@<TRIPOS>MOLECULE
*****
 53 56 0 0 0
SMALL
GASTEIGER

@<TRIPOS>ATOM
      1 C          -3.2029   -1.0047    1.0874 C.3     1  UNL1       -0.0541
      2 C          -3.5907    0.0935    0.1124 C.3     1  UNL1        0.0088
      3 C          -4.8521   -0.2681   -0.5708 C.ar    1  UNL1       -0.0400
      4 C          -5.4731   -1.4573   -0.2659 C.ar    1  UNL1       -0.0580
      5 C          -6.6506   -1.7567   -0.9281 C.ar    1  UNL1       -0.0615
      6 C          -7.2001   -0.9077   -1.8642 C.ar    1  UNL1       -0.0617
      7 C          -6.5825    0.2902   -2.1771 C.ar    1  UNL1       -0.0615
      8 C          -5.4081    0.5757   -1.5084 C.ar    1  UNL1       -0.0580
      9 C          -3.8283    1.4011    0.8190 C.3     1  UNL1       -0.0408
     10 C          -2.6673    1.9043    1.6019 C.3     1  UNL1       -0.0363
     11 C          -1.3204    1.5554    1.0799 C.3     1  UNL1        0.0162
     12 N          -1.2818    0.6616   -0.0328 N.am    1  UNL1       -0.2848
     13 C          -0.0047    0.0946   -0.3835 C.2     1  UNL1        0.3022
     14 O           0.0981   -0.7087   -1.3557 O.2     1  UNL1       -0.2526
     15 N           1.1720    0.4086    0.3348 N.am    1  UNL1       -0.2989
     16 C           2.4655   -0.1812   -0.0390 C.3     1  UNL1        0.0170
     17 C           3.5086    0.3538    0.9174 C.3     1  UNL1       -0.0119
     18 C           4.8514   -0.1633    0.6478 C.ar    1  UNL1       -0.0438
     19 C           5.2749   -1.3427    1.2725 C.ar    1  UNL1       -0.0564
     20 C           6.5443   -1.8146    1.0058 C.ar    1  UNL1       -0.0340
     21 C           7.3650   -1.1231    0.1372 C.ar    1  UNL1        0.0888
     22 N           8.6306   -1.3548   -0.2954 N.ar    1  UNL1       -0.2359
     23 C           8.9950   -0.3786   -1.1486 C.ar    1  UNL1        0.0944
     24 N           7.9472    0.4627   -1.2439 N.ar    1  UNL1       -0.3444
     25 C           6.9354    0.0411   -0.4741 C.ar    1  UNL1        0.0663
     26 C           5.6701    0.5206   -0.2146 C.ar    1  UNL1       -0.0330
     27 C          -2.4515    0.2950   -0.8333 C.3     1  UNL1        0.0255
     28 H          -3.9928   -1.1698    1.8631 H       1  UNL1        0.0239
     29 H          -3.0627   -1.9761    0.5731 H       1  UNL1        0.0239
     30 H          -2.2888   -0.7281    1.6250 H       1  UNL1        0.0239
     31 H          -5.0863   -2.1631    0.4618 H       1  UNL1        0.0620
     32 H          -7.1482   -2.7096   -0.6837 H       1  UNL1        0.0618
     33 H          -8.1365   -1.1677   -2.3769 H       1  UNL1        0.0618
     34 H          -7.0167    0.9543   -2.9126 H       1  UNL1        0.0618
     35 H          -4.9389    1.5302   -1.7744 H       1  UNL1        0.0620
     36 H          -4.6965    1.2423    1.5011 H       1  UNL1        0.0275
     37 H          -4.0976    2.1427    0.0209 H       1  UNL1        0.0275
     38 H          -2.7639    3.0309    1.6293 H       1  UNL1        0.0281
     39 H          -2.8079    1.6160    2.6741 H       1  UNL1        0.0281
     40 H          -0.7583    1.0835    1.9410 H       1  UNL1        0.0465
     41 H          -0.7165    2.4896    0.8775 H       1  UNL1        0.0465
     42 H           1.0955    1.0708    1.1352 H       1  UNL1        0.1502
     43 H           2.6494    0.0809   -1.0844 H       1  UNL1        0.0466
     44 H           2.4019   -1.2870    0.0308 H       1  UNL1        0.0466
     45 H           3.4479    1.4519    0.9692 H       1  UNL1        0.0328
     46 H           3.2027   -0.0124    1.9368 H       1  UNL1        0.0328
     47 H           4.6258   -1.8833    1.9551 H       1  UNL1        0.0621
     48 H           6.9093   -2.7339    1.4764 H       1  UNL1        0.0639
     49 H           9.9264   -0.2416   -1.6818 H       1  UNL1        0.1027
     50 H           7.8848    1.3446   -1.8306 H       1  UNL1        0.1668
     51 H           5.2960    1.4321   -0.6754 H       1  UNL1        0.0641
     52 H          -2.6569    1.0512   -1.6150 H       1  UNL1        0.0474
     53 H          -2.2152   -0.6452   -1.3669 H       1  UNL1        0.0474
@<TRIPOS>BOND
     1     1     2    1
     2     2     3    1
     3     3     4   ar
     4     4     5   ar
     5     5     6   ar
     6     6     7   ar
     7     7     8   ar
     8     2     9    1
     9     9    10    1
    10    10    11    1
    11    11    12    1
    12    12    13   am
    13    13    14    2
    14    13    15   am
    15    15    16    1
    16    16    17    1
    17    17    18    1
    18    18    19   ar
    19    19    20   ar
    20    20    21   ar
    21    21    22   ar
    22    22    23   ar
    23    23    24   ar
    24    24    25   ar
    25    25    26   ar
    26    12    27    1
    27    27     2    1
    28     8     3   ar
    29    26    18   ar
    30    25    21   ar
    31     1    28    1
    32     1    29    1
    33     1    30    1
    34     4    31    1
    35     5    32    1
    36     6    33    1
    37     7    34    1
    38     8    35    1
    39     9    36    1
    40     9    37    1
    41    10    38    1
    42    10    39    1
    43    11    40    1
    44    11    41    1
    45    15    42    1
    46    16    43    1
    47    16    44    1
    48    17    45    1
    49    17    46    1
    50    19    47    1
    51    20    48    1
    52    23    49    1
    53    24    50    1
    54    26    51    1
    55    27    52    1
    56    27    53    1
