@<TRIPOS>MOLECULE
*****
 68 71 0 0 0
SMALL
GASTEIGER

@<TRIPOS>ATOM
      1 C          -6.0994   -3.3370   -0.6113 C.3     1  UNL1        0.0790
      2 O          -6.6214   -2.1386   -0.0785 O.3     1  UNL1       -0.4913
      3 C          -5.7344   -1.1542    0.3261 C.ar    1  UNL1        0.1654
      4 C          -4.3899   -1.3350    0.2136 C.ar    1  UNL1       -0.0129
      5 C          -3.4537   -0.4047    0.5935 C.ar    1  UNL1       -0.0402
      6 C          -2.0149   -0.7223    0.4191 C.3     1  UNL1       -0.0255
      7 C          -1.5123   -0.2826   -0.9310 C.3     1  UNL1       -0.0223
      8 C          -0.0575   -0.5849   -1.1433 C.3     1  UNL1        0.1110
      9 N           0.8195    0.0282   -0.2189 N.3     1  UNL1       -0.2910
     10 CA          0.8056    1.4398   -0.1143 C.3     1  UNL1        0.1103
     11 C           1.7752    1.8581    1.0090 C.3     1  UNL1       -0.0017
     12 C           3.1471    1.4142    0.7158 C.ar    1  UNL1       -0.0418
     13 C           3.9795    2.2621   -0.0273 C.ar    1  UNL1       -0.0577
     14 C           5.2574    1.8531   -0.2954 C.ar    1  UNL1       -0.0501
     15 C           5.7028    0.6288    0.1630 C.ar    1  UNL1        0.0279
     16 C           4.9195   -0.2245    0.8907 C.ar    1  UNL1        0.1365
     17 C           3.6141    0.1977    1.1625 C.ar    1  UNL1       -0.0155
     18 O           5.6087   -1.2909    1.1775 O.2     1  UNL1       -0.4548
     19 C           6.8377   -1.2278    0.6867 C.ar    1  UNL1        0.1362
     20 C           7.9207   -2.0881    0.7214 C.ar    1  UNL1       -0.0187
     21 C           9.1111   -1.7632    0.1114 C.ar    1  UNL1       -0.0582
     22 C           9.2014   -0.5534   -0.5395 C.ar    1  UNL1       -0.0610
     23 C           8.1233    0.3034   -0.5743 C.ar    1  UNL1       -0.0504
     24 C           6.9154   -0.0129    0.0379 C.ar    1  UNL1        0.0279
     25 C           1.1607    2.0997   -1.3706 C.2     1  UNL1        0.3223
     26 O           1.4887    1.5290   -2.4271 O.2     1  UNL1       -0.2492
     27 OXT         1.1391    3.5090   -1.4229 O.3     1  UNL1       -0.4795
     28 P           0.2517   -2.3927   -1.0285 P.3     1  UNL1        0.3445
     29 O           1.6873   -2.5981   -1.4938 O.2     1  UNL1       -0.2572
     30 O          -0.7510   -3.2566   -2.0449 O.3     1  UNL1       -0.3230
     31 O           0.1728   -2.9121    0.5696 O.3     1  UNL1       -0.3230
     32 C          -3.9112    0.7809    1.1195 C.ar    1  UNL1       -0.0129
     33 C          -5.2721    1.0103    1.2535 C.ar    1  UNL1        0.1654
     34 O          -5.7298    2.2252    1.7923 O.3     1  UNL1       -0.4913
     35 C          -4.7704    3.1960    2.1890 C.3     1  UNL1        0.0790
     36 C          -6.1758    0.0494    0.8595 C.ar    1  UNL1        0.2035
     37 O          -7.5493    0.2291    0.9722 O.3     1  UNL1       -0.4885
     38 C          -8.1948    0.8230   -0.1573 C.3     1  UNL1        0.0791
     39 H          -5.5790   -3.9181    0.1621 H       1  UNL1        0.0660
     40 H          -6.9818   -3.9152   -0.9920 H       1  UNL1        0.0660
     41 H          -5.3849   -3.1700   -1.4440 H       1  UNL1        0.0660
     42 H          -4.0413   -2.2692   -0.2007 H       1  UNL1        0.0658
     43 H          -1.4650   -0.1870    1.2203 H       1  UNL1        0.0314
     44 H          -1.8883   -1.7946    0.6038 H       1  UNL1        0.0314
     45 H          -1.6714    0.8098   -1.0180 H       1  UNL1        0.0289
     46 H          -2.1009   -0.7632   -1.7365 H       1  UNL1        0.0289
     47 H           0.2073   -0.3259   -2.1769 H       1  UNL1        0.0586
     48 H           0.8888   -0.4707    0.6997 H       1  UNL1        0.1235
     49 HA         -0.1907    1.7685    0.2342 H       1  UNL1        0.0579
     50 H           1.4304    1.4764    1.9792 H       1  UNL1        0.0334
     51 H           1.7880    2.9780    1.0753 H       1  UNL1        0.0334
     52 H           3.6636    3.2158   -0.3947 H       1  UNL1        0.0621
     53 H           5.9722    2.4458   -0.8643 H       1  UNL1        0.0625
     54 H           3.0075   -0.4905    1.7460 H       1  UNL1        0.0657
     55 H           7.8562   -3.0353    1.2287 H       1  UNL1        0.0654
     56 H           9.9764   -2.4450    0.1361 H       1  UNL1        0.0619
     57 H          10.1356   -0.3048   -1.0150 H       1  UNL1        0.0618
     58 H           8.1596    1.2670   -1.0794 H       1  UNL1        0.0625
     59 HXT         1.7189    3.9608   -2.1094 H       1  UNL1        0.2951
     60 H          -1.2188   -2.7092   -2.7196 H       1  UNL1        0.2198
     61 H           0.1065   -3.8822    0.5694 H       1  UNL1        0.2198
     62 H          -3.2010    1.5328    1.4277 H       1  UNL1        0.0658
     63 H          -4.2134    2.7645    3.0546 H       1  UNL1        0.0660
     64 H          -4.0838    3.3686    1.3285 H       1  UNL1        0.0660
     65 H          -5.2317    4.1332    2.5089 H       1  UNL1        0.0660
     66 H          -7.5151    1.5150   -0.6992 H       1  UNL1        0.0660
     67 H          -8.4421   -0.0321   -0.8464 H       1  UNL1        0.0660
     68 H          -9.1033    1.3197    0.2255 H       1  UNL1        0.0660
@<TRIPOS>BOND
     1     1     2    1
     2     2     3    1
     3     3     4   ar
     4     4     5   ar
     5     5     6    1
     6     6     7    1
     7     7     8    1
     8     8     9    1
     9     9    10    1
    10    10    11    1
    11    11    12    1
    12    12    13   ar
    13    13    14   ar
    14    14    15   ar
    15    15    16   ar
    16    16    17   ar
    17    16    18   ar
    18    18    19   ar
    19    19    20   ar
    20    20    21   ar
    21    21    22   ar
    22    22    23   ar
    23    23    24   ar
    24    10    25    1
    25    25    26    2
    26    25    27    1
    27     8    28    1
    28    28    29    2
    29    28    30    1
    30    28    31    1
    31     5    32   ar
    32    32    33   ar
    33    33    34    1
    34    34    35    1
    35    33    36   ar
    36    36    37    1
    37    37    38    1
    38    36     3   ar
    39    17    12   ar
    40    24    19   ar
    41    24    15   ar
    42     1    39    1
    43     1    40    1
    44     1    41    1
    45     4    42    1
    46     6    43    1
    47     6    44    1
    48     7    45    1
    49     7    46    1
    50     8    47    1
    51     9    48    1
    52    10    49    1
    53    11    50    1
    54    11    51    1
    55    13    52    1
    56    14    53    1
    57    17    54    1
    58    20    55    1
    59    21    56    1
    60    22    57    1
    61    23    58    1
    62    27    59    1
    63    30    60    1
    64    31    61    1
    65    32    62    1
    66    35    63    1
    67    35    64    1
    68    35    65    1
    69    38    66    1
    70    38    67    1
    71    38    68    1
