
     RDKit          3D

 68 71  0  0  0  0  0  0  0  0999 V2000
   -6.0994   -3.3370   -0.6113 C   0  0  0  0  0  0  0  0  0  0  0  0
   -6.6214   -2.1386   -0.0785 O   0  0  0  0  0  0  0  0  0  0  0  0
   -5.7344   -1.1542    0.3261 C   0  0  0  0  0  0  0  0  0  0  0  0
   -4.3899   -1.3350    0.2136 C   0  0  0  0  0  0  0  0  0  0  0  0
   -3.4537   -0.4047    0.5935 C   0  0  0  0  0  0  0  0  0  0  0  0
   -2.0149   -0.7223    0.4191 C   0  0  0  0  0  0  0  0  0  0  0  0
   -1.5123   -0.2826   -0.9310 C   0  0  0  0  0  0  0  0  0  0  0  0
   -0.0575   -0.5849   -1.1433 C   0  0  0  0  0  0  0  0  0  0  0  0
    0.8195    0.0282   -0.2189 N   0  0  0  0  0  0  0  0  0  0  0  0
    0.8056    1.4398   -0.1143 C   0  0  1  0  0  0  0  0  0  0  0  0
    1.7752    1.8581    1.0090 C   0  0  0  0  0  0  0  0  0  0  0  0
    3.1471    1.4142    0.7158 C   0  0  0  0  0  0  0  0  0  0  0  0
    3.9795    2.2621   -0.0273 C   0  0  0  0  0  0  0  0  0  0  0  0
    5.2574    1.8531   -0.2954 C   0  0  0  0  0  0  0  0  0  0  0  0
    5.7028    0.6288    0.1630 C   0  0  0  0  0  0  0  0  0  0  0  0
    4.9195   -0.2245    0.8907 C   0  0  0  0  0  0  0  0  0  0  0  0
    3.6141    0.1977    1.1625 C   0  0  0  0  0  0  0  0  0  0  0  0
    5.6087   -1.2909    1.1775 O   0  0  0  0  0  0  0  0  0  0  0  0
    6.8377   -1.2278    0.6867 C   0  0  0  0  0  0  0  0  0  0  0  0
    7.9207   -2.0881    0.7214 C   0  0  0  0  0  0  0  0  0  0  0  0
    9.1111   -1.7632    0.1114 C   0  0  0  0  0  0  0  0  0  0  0  0
    9.2014   -0.5534   -0.5395 C   0  0  0  0  0  0  0  0  0  0  0  0
    8.1233    0.3034   -0.5743 C   0  0  0  0  0  0  0  0  0  0  0  0
    6.9154   -0.0129    0.0379 C   0  0  0  0  0  0  0  0  0  0  0  0
    1.1607    2.0997   -1.3706 C   0  0  0  0  0  0  0  0  0  0  0  0
    1.4887    1.5290   -2.4271 O   0  0  0  0  0  0  0  0  0  0  0  0
    1.1391    3.5090   -1.4229 O   0  0  0  0  0  0  0  0  0  0  0  0
    0.2517   -2.3927   -1.0285 P   0  0  0  0  0  5  0  0  0  0  0  0
    1.6873   -2.5981   -1.4938 O   0  0  0  0  0  0  0  0  0  0  0  0
   -0.7510   -3.2566   -2.0449 O   0  0  0  0  0  0  0  0  0  0  0  0
    0.1728   -2.9121    0.5696 O   0  0  0  0  0  0  0  0  0  0  0  0
   -3.9112    0.7809    1.1195 C   0  0  0  0  0  0  0  0  0  0  0  0
   -5.2721    1.0103    1.2535 C   0  0  0  0  0  0  0  0  0  0  0  0
   -5.7298    2.2252    1.7923 O   0  0  0  0  0  0  0  0  0  0  0  0
   -4.7704    3.1960    2.1890 C   0  0  0  0  0  0  0  0  0  0  0  0
   -6.1758    0.0494    0.8595 C   0  0  0  0  0  0  0  0  0  0  0  0
   -7.5493    0.2291    0.9722 O   0  0  0  0  0  0  0  0  0  0  0  0
   -8.1948    0.8230   -0.1573 C   0  0  0  0  0  0  0  0  0  0  0  0
   -5.5790   -3.9181    0.1621 H   0  0  0  0  0  0  0  0  0  0  0  0
   -6.9818   -3.9152   -0.9920 H   0  0  0  0  0  0  0  0  0  0  0  0
   -5.3849   -3.1700   -1.4440 H   0  0  0  0  0  0  0  0  0  0  0  0
   -4.0413   -2.2692   -0.2007 H   0  0  0  0  0  0  0  0  0  0  0  0
   -1.4650   -0.1870    1.2203 H   0  0  0  0  0  0  0  0  0  0  0  0
   -1.8883   -1.7946    0.6038 H   0  0  0  0  0  0  0  0  0  0  0  0
   -1.6714    0.8098   -1.0180 H   0  0  0  0  0  0  0  0  0  0  0  0
   -2.1009   -0.7632   -1.7365 H   0  0  0  0  0  0  0  0  0  0  0  0
    0.2073   -0.3259   -2.1769 H   0  0  0  0  0  0  0  0  0  0  0  0
    0.8888   -0.4707    0.6997 H   0  0  0  0  0  0  0  0  0  0  0  0
   -0.1907    1.7685    0.2342 H   0  0  0  0  0  0  0  0  0  0  0  0
    1.4304    1.4764    1.9792 H   0  0  0  0  0  0  0  0  0  0  0  0
    1.7880    2.9780    1.0753 H   0  0  0  0  0  0  0  0  0  0  0  0
    3.6636    3.2158   -0.3947 H   0  0  0  0  0  0  0  0  0  0  0  0
    5.9722    2.4458   -0.8643 H   0  0  0  0  0  0  0  0  0  0  0  0
    3.0075   -0.4905    1.7460 H   0  0  0  0  0  0  0  0  0  0  0  0
    7.8562   -3.0353    1.2287 H   0  0  0  0  0  0  0  0  0  0  0  0
    9.9764   -2.4450    0.1361 H   0  0  0  0  0  0  0  0  0  0  0  0
   10.1356   -0.3048   -1.0150 H   0  0  0  0  0  0  0  0  0  0  0  0
    8.1596    1.2670   -1.0794 H   0  0  0  0  0  0  0  0  0  0  0  0
    1.7189    3.9608   -2.1094 H   0  0  0  0  0  0  0  0  0  0  0  0
   -1.2188   -2.7092   -2.7196 H   0  0  0  0  0  0  0  0  0  0  0  0
    0.1065   -3.8822    0.5694 H   0  0  0  0  0  0  0  0  0  0  0  0
   -3.2010    1.5328    1.4277 H   0  0  0  0  0  0  0  0  0  0  0  0
   -4.2134    2.7645    3.0546 H   0  0  0  0  0  0  0  0  0  0  0  0
   -4.0838    3.3686    1.3285 H   0  0  0  0  0  0  0  0  0  0  0  0
   -5.2317    4.1332    2.5089 H   0  0  0  0  0  0  0  0  0  0  0  0
   -7.5151    1.5150   -0.6992 H   0  0  0  0  0  0  0  0  0  0  0  0
   -8.4421   -0.0321   -0.8464 H   0  0  0  0  0  0  0  0  0  0  0  0
   -9.1033    1.3197    0.2255 H   0  0  0  0  0  0  0  0  0  0  0  0
  1  2  1  0
  2  3  1  0
  3  4  2  0
  4  5  1  0
  5  6  1  0
  6  7  1  0
  7  8  1  0
  8  9  1  0
  9 10  1  0
 10 11  1  0
 11 12  1  0
 12 13  2  0
 13 14  1  0
 14 15  2  0
 15 16  1  0
 16 17  2  0
 16 18  1  0
 18 19  1  0
 19 20  2  0
 20 21  1  0
 21 22  2  0
 22 23  1  0
 23 24  2  0
 10 25  1  0
 25 26  2  0
 25 27  1  0
  8 28  1  0
 28 29  2  0
 28 30  1  0
 28 31  1  0
  5 32  2  0
 32 33  1  0
 33 34  1  0
 34 35  1  0
 33 36  2  0
 36 37  1  0
 37 38  1  0
 36  3  1  0
 17 12  1  0
 24 19  1  0
 24 15  1  0
  1 39  1  0
  1 40  1  0
  1 41  1  0
  4 42  1  0
  6 43  1  0
  6 44  1  0
  7 45  1  0
  7 46  1  0
  8 47  1  0
  9 48  1  0
 10 49  1  1
 11 50  1  0
 11 51  1  0
 13 52  1  0
 14 53  1  0
 17 54  1  0
 20 55  1  0
 21 56  1  0
 22 57  1  0
 23 58  1  0
 27 59  1  0
 30 60  1  0
 31 61  1  0
 32 62  1  0
 35 63  1  0
 35 64  1  0
 35 65  1  0
 38 66  1  0
 38 67  1  0
 38 68  1  0
M  END
$$$$
