@<TRIPOS>MOLECULE
*****
 29 31 0 0 0
SMALL
GASTEIGER

@<TRIPOS>ATOM
      1 O           5.2677    0.1244   -1.9127 O.3     1  UNL1        0.0000
      2 B           4.5338   -0.0766   -0.6671 B       1  UNL1        0.0000
      3 O           5.0403    0.0542    0.7023 O.3     1  UNL1        0.0000
      4 C           4.1095   -0.7112    1.4289 C.3     1  UNL1        0.0000
      5 C           2.7940   -0.4507    0.8046 C.ar    1  UNL1        0.0000
      6 C           2.9647   -0.0462   -0.5157 C.ar    1  UNL1        0.0000
      7 C           1.9164    0.2668   -1.3502 C.ar    1  UNL1        0.0000
      8 C           0.6090    0.1770   -0.8560 C.ar    1  UNL1        0.0000
      9 C           0.4168   -0.2273    0.4671 C.ar    1  UNL1        0.0000
     10 O          -0.8209   -0.3435    1.0349 O.3     1  UNL1        0.0000
     11 C          -2.0503   -0.1201    0.5155 C.ar    1  UNL1        0.0000
     12 C          -2.8151   -1.0631   -0.1204 C.ar    1  UNL1        0.0000
     13 C          -4.0877   -0.8534   -0.6643 C.ar    1  UNL1        0.0000
     14 C          -4.5781    0.4305   -0.5258 C.ar    1  UNL1        0.0000
     15 C          -3.8851    1.4489    0.0979 C.ar    1  UNL1        0.0000
     16 C          -2.6513    1.1371    0.5937 C.ar    1  UNL1        0.0000
     17 C          -5.8961    0.7329   -1.0645 C.1     1  UNL1        0.0000
     18 N          -6.9530    0.9693   -1.5169 N.1     1  UNL1        0.0000
     19 C           1.5054   -0.5389    1.2909 C.ar    1  UNL1        0.0000
     20 H           6.1476    0.5323   -1.6681 H       1  UNL1        0.0000
     21 H           4.1198   -0.4747    2.5075 H       1  UNL1        0.0000
     22 H           4.4352   -1.7679    1.2703 H       1  UNL1        0.0000
     23 H           2.1251    0.5755   -2.3703 H       1  UNL1        0.0000
     24 H          -0.2254    0.4119   -1.4746 H       1  UNL1        0.0000
     25 H          -2.3882   -2.0650   -0.2075 H       1  UNL1        0.0000
     26 H          -4.6072   -1.6544   -1.1427 H       1  UNL1        0.0000
     27 H          -4.2917    2.4479    0.1937 H       1  UNL1        0.0000
     28 H          -2.0831    1.9355    1.0945 H       1  UNL1        0.0000
     29 H           1.3481   -0.8509    2.3134 H       1  UNL1        0.0000
@<TRIPOS>BOND
     1     1     2    1
     2     2     3    1
     3     3     4    1
     4     4     5    1
     5     5     6   ar
     6     6     7   ar
     7     7     8   ar
     8     8     9   ar
     9     9    10    1
    10    10    11    1
    11    11    12   ar
    12    12    13   ar
    13    13    14   ar
    14    14    15   ar
    15    15    16   ar
    16    14    17    1
    17    17    18    3
    18     9    19   ar
    19     6     2    1
    20    16    11   ar
    21    19     5   ar
    22     1    20    1
    23     4    21    1
    24     4    22    1
    25     7    23    1
    26     8    24    1
    27    12    25    1
    28    13    26    1
    29    15    27    1
    30    16    28    1
    31    19    29    1
