@<TRIPOS>MOLECULE
*****
 65 68 0 0 0
SMALL
GASTEIGER

@<TRIPOS>ATOM
      1 O          -4.7678   -2.0878    0.7596 O.2     1  UNL1       -0.2702
      2 C          -5.1171   -0.8537    0.6076 C.2     1  UNL1        0.2444
      3 N          -4.0991    0.1060    0.3756 N.am    1  UNL1       -0.3042
      4 C          -2.7009   -0.2449    0.3044 C.3     1  UNL1        0.0693
      5 C          -1.8740    0.4857    1.3529 C.3     1  UNL1        0.0156
      6 S          -2.5792    2.1364    1.6220 S.3     1  UNL1       -0.1588
      7 C          -2.3756    3.1865    0.1613 C.3     1  UNL1       -0.0061
      8 C          -1.6103    2.4778   -0.9331 C.3     1  UNL1       -0.0406
      9 C          -2.4285    1.3899   -1.5947 C.3     1  UNL1       -0.0131
     10 C          -2.0824    0.0409   -1.0380 C.3     1  UNL1        0.1224
     11 O          -0.6739   -0.0322   -0.9311 O.3     1  UNL1       -0.4560
     12 C           0.0994   -0.9225   -1.6483 C.2     1  UNL1        0.3397
     13 O          -0.4394   -1.7176   -2.4407 O.2     1  UNL1       -0.2449
     14 C           1.5511   -0.9379   -1.4830 C.ar    1  UNL1        0.0659
     15 C           2.3255   -1.8189   -2.1910 C.ar    1  UNL1       -0.0053
     16 C           3.6930   -1.8447   -2.0440 C.ar    1  UNL1        0.1320
     17 O           4.4774   -2.7367   -2.7609 O.3     1  UNL1       -0.5059
     18 C           4.3751   -0.9863   -1.1749 C.ar    1  UNL1        0.1050
     19 C           5.8012   -0.9433   -1.1139 C.2     1  UNL1        0.2044
     20 O           6.4529   -1.3605   -2.1415 O.2     1  UNL1       -0.2863
     21 C           6.5943   -0.4620   -0.0063 C.ar    1  UNL1        0.0778
     22 C           7.7251    0.2987   -0.3657 C.ar    1  UNL1        0.1285
     23 O           7.9392    0.5212   -1.7301 O.3     1  UNL1       -0.5060
     24 C           8.5498    0.7794    0.5973 C.ar    1  UNL1       -0.0194
     25 C           8.2840    0.5257    1.9184 C.ar    1  UNL1       -0.0575
     26 C           7.2067   -0.2063    2.3067 C.ar    1  UNL1       -0.0468
     27 C           6.3493   -0.7109    1.3100 C.ar    1  UNL1        0.0731
     28 C           5.3611   -1.6628    1.7711 C.2     1  UNL1        0.3376
     29 O           5.1155   -1.7497    3.0227 O.2     1  UNL1       -0.2451
     30 O           4.6412   -2.5189    0.9793 O.3     1  UNL1       -0.4771
     31 C           3.5816   -0.1050   -0.4711 C.ar    1  UNL1        0.1320
     32 O           4.0990    0.8191    0.4271 O.3     1  UNL1       -0.5059
     33 C           2.1991   -0.0848   -0.6240 C.ar    1  UNL1       -0.0053
     34 C          -6.5144   -0.5041    0.6790 C.ar    1  UNL1        0.0369
     35 C          -7.4576   -1.4800    0.9052 C.ar    1  UNL1       -0.0462
     36 C          -8.8208   -1.1629    0.9785 C.ar    1  UNL1       -0.0195
     37 C          -9.2363    0.1291    0.8253 C.ar    1  UNL1        0.1169
     38 O         -10.6107    0.4284    0.9021 O.3     1  UNL1       -0.5068
     39 C          -8.3063    1.1091    0.5996 C.ar    1  UNL1       -0.0195
     40 C          -6.9469    0.7828    0.5280 C.ar    1  UNL1       -0.0462
     41 H          -4.3578    1.0986    0.2517 H       1  UNL1        0.1495
     42 H          -2.6365   -1.3586    0.4690 H       1  UNL1        0.0543
     43 H          -0.8253    0.5499    1.0611 H       1  UNL1        0.0396
     44 H          -2.0006   -0.0739    2.3065 H       1  UNL1        0.0396
     45 H          -1.7618    4.0575    0.4701 H       1  UNL1        0.0376
     46 H          -3.3159    3.5567   -0.2480 H       1  UNL1        0.0376
     47 H          -0.6548    2.0564   -0.5677 H       1  UNL1        0.0274
     48 H          -1.3838    3.2408   -1.7058 H       1  UNL1        0.0274
     49 H          -2.1339    1.3607   -2.6849 H       1  UNL1        0.0302
     50 H          -3.5167    1.6322   -1.5251 H       1  UNL1        0.0302
     51 H          -2.3738   -0.7432   -1.7899 H       1  UNL1        0.0753
     52 H           1.8293   -2.5107   -2.8848 H       1  UNL1        0.0662
     53 H           4.6446   -3.6853   -2.5014 H       1  UNL1        0.2922
     54 H           8.8663    0.5080   -2.1342 H       1  UNL1        0.2922
     55 H           9.4177    1.3641    0.3074 H       1  UNL1        0.0654
     56 H           8.9518    0.9196    2.6782 H       1  UNL1        0.0619
     57 H           7.0164   -0.3940    3.3596 H       1  UNL1        0.0626
     58 H           3.6399   -2.6954    1.1190 H       1  UNL1        0.2954
     59 H           3.8246    1.7891    0.4623 H       1  UNL1        0.2922
     60 H           1.5856    0.6180   -0.0588 H       1  UNL1        0.0662
     61 H          -7.1682   -2.5149    1.0318 H       1  UNL1        0.0626
     62 H          -9.5686   -1.9370    1.1579 H       1  UNL1        0.0654
     63 H         -10.9576    1.3461    1.0541 H       1  UNL1        0.2921
     64 H          -8.6365    2.1231    0.4797 H       1  UNL1        0.0654
     65 H          -6.2649    1.6106    0.3465 H       1  UNL1        0.0626
@<TRIPOS>BOND
     1     1     2    2
     2     2     3   am
     3     3     4    1
     4     4     5    1
     5     5     6    1
     6     6     7    1
     7     7     8    1
     8     8     9    1
     9     9    10    1
    10    10    11    1
    11    11    12    1
    12    12    13    2
    13    12    14    1
    14    14    15   ar
    15    15    16   ar
    16    16    17    1
    17    16    18   ar
    18    18    19    1
    19    19    20    2
    20    19    21    1
    21    21    22   ar
    22    22    23    1
    23    22    24   ar
    24    24    25   ar
    25    25    26   ar
    26    26    27   ar
    27    27    28    1
    28    28    29    2
    29    28    30    1
    30    18    31   ar
    31    31    32    1
    32    31    33   ar
    33     2    34    1
    34    34    35   ar
    35    35    36   ar
    36    36    37   ar
    37    37    38    1
    38    37    39   ar
    39    39    40   ar
    40    10     4    1
    41    33    14   ar
    42    40    34   ar
    43    27    21   ar
    44     3    41    1
    45     4    42    1
    46     5    43    1
    47     5    44    1
    48     7    45    1
    49     7    46    1
    50     8    47    1
    51     8    48    1
    52     9    49    1
    53     9    50    1
    54    10    51    1
    55    15    52    1
    56    17    53    1
    57    23    54    1
    58    24    55    1
    59    25    56    1
    60    26    57    1
    61    30    58    1
    62    32    59    1
    63    33    60    1
    64    35    61    1
    65    36    62    1
    66    38    63    1
    67    39    64    1
    68    40    65    1
