
     RDKit          3D

 65 68  0  0  0  0  0  0  0  0999 V2000
   -4.7678   -2.0878    0.7596 O   0  0  0  0  0  0  0  0  0  0  0  0
   -5.1171   -0.8537    0.6076 C   0  0  0  0  0  0  0  0  0  0  0  0
   -4.0991    0.1060    0.3756 N   0  0  0  0  0  0  0  0  0  0  0  0
   -2.7009   -0.2449    0.3044 C   0  0  2  0  0  0  0  0  0  0  0  0
   -1.8740    0.4857    1.3529 C   0  0  0  0  0  0  0  0  0  0  0  0
   -2.5792    2.1364    1.6220 S   0  0  0  0  0  0  0  0  0  0  0  0
   -2.3756    3.1865    0.1613 C   0  0  0  0  0  0  0  0  0  0  0  0
   -1.6103    2.4778   -0.9331 C   0  0  0  0  0  0  0  0  0  0  0  0
   -2.4285    1.3899   -1.5947 C   0  0  0  0  0  0  0  0  0  0  0  0
   -2.0824    0.0409   -1.0380 C   0  0  1  0  0  0  0  0  0  0  0  0
   -0.6739   -0.0322   -0.9311 O   0  0  0  0  0  0  0  0  0  0  0  0
    0.0994   -0.9225   -1.6483 C   0  0  0  0  0  0  0  0  0  0  0  0
   -0.4394   -1.7176   -2.4407 O   0  0  0  0  0  0  0  0  0  0  0  0
    1.5511   -0.9379   -1.4830 C   0  0  0  0  0  0  0  0  0  0  0  0
    2.3255   -1.8189   -2.1910 C   0  0  0  0  0  0  0  0  0  0  0  0
    3.6930   -1.8447   -2.0440 C   0  0  0  0  0  0  0  0  0  0  0  0
    4.4774   -2.7367   -2.7609 O   0  0  0  0  0  0  0  0  0  0  0  0
    4.3751   -0.9863   -1.1749 C   0  0  0  0  0  0  0  0  0  0  0  0
    5.8012   -0.9433   -1.1139 C   0  0  0  0  0  0  0  0  0  0  0  0
    6.4529   -1.3605   -2.1415 O   0  0  0  0  0  0  0  0  0  0  0  0
    6.5943   -0.4620   -0.0063 C   0  0  0  0  0  0  0  0  0  0  0  0
    7.7251    0.2987   -0.3657 C   0  0  0  0  0  0  0  0  0  0  0  0
    7.9392    0.5212   -1.7301 O   0  0  0  0  0  0  0  0  0  0  0  0
    8.5498    0.7794    0.5973 C   0  0  0  0  0  0  0  0  0  0  0  0
    8.2840    0.5257    1.9184 C   0  0  0  0  0  0  0  0  0  0  0  0
    7.2067   -0.2063    2.3067 C   0  0  0  0  0  0  0  0  0  0  0  0
    6.3493   -0.7109    1.3100 C   0  0  0  0  0  0  0  0  0  0  0  0
    5.3611   -1.6628    1.7711 C   0  0  0  0  0  0  0  0  0  0  0  0
    5.1155   -1.7497    3.0227 O   0  0  0  0  0  0  0  0  0  0  0  0
    4.6412   -2.5189    0.9793 O   0  0  0  0  0  0  0  0  0  0  0  0
    3.5816   -0.1050   -0.4711 C   0  0  0  0  0  0  0  0  0  0  0  0
    4.0990    0.8191    0.4271 O   0  0  0  0  0  0  0  0  0  0  0  0
    2.1991   -0.0848   -0.6240 C   0  0  0  0  0  0  0  0  0  0  0  0
   -6.5144   -0.5041    0.6790 C   0  0  0  0  0  0  0  0  0  0  0  0
   -7.4576   -1.4800    0.9052 C   0  0  0  0  0  0  0  0  0  0  0  0
   -8.8208   -1.1629    0.9785 C   0  0  0  0  0  0  0  0  0  0  0  0
   -9.2363    0.1291    0.8253 C   0  0  0  0  0  0  0  0  0  0  0  0
  -10.6107    0.4284    0.9021 O   0  0  0  0  0  0  0  0  0  0  0  0
   -8.3063    1.1091    0.5996 C   0  0  0  0  0  0  0  0  0  0  0  0
   -6.9469    0.7828    0.5280 C   0  0  0  0  0  0  0  0  0  0  0  0
   -4.3578    1.0986    0.2517 H   0  0  0  0  0  0  0  0  0  0  0  0
   -2.6365   -1.3586    0.4690 H   0  0  0  0  0  0  0  0  0  0  0  0
   -0.8253    0.5499    1.0611 H   0  0  0  0  0  0  0  0  0  0  0  0
   -2.0006   -0.0739    2.3065 H   0  0  0  0  0  0  0  0  0  0  0  0
   -1.7618    4.0575    0.4701 H   0  0  0  0  0  0  0  0  0  0  0  0
   -3.3159    3.5567   -0.2480 H   0  0  0  0  0  0  0  0  0  0  0  0
   -0.6548    2.0564   -0.5677 H   0  0  0  0  0  0  0  0  0  0  0  0
   -1.3838    3.2408   -1.7058 H   0  0  0  0  0  0  0  0  0  0  0  0
   -2.1339    1.3607   -2.6849 H   0  0  0  0  0  0  0  0  0  0  0  0
   -3.5167    1.6322   -1.5251 H   0  0  0  0  0  0  0  0  0  0  0  0
   -2.3738   -0.7432   -1.7899 H   0  0  0  0  0  0  0  0  0  0  0  0
    1.8293   -2.5107   -2.8848 H   0  0  0  0  0  0  0  0  0  0  0  0
    4.6446   -3.6853   -2.5014 H   0  0  0  0  0  0  0  0  0  0  0  0
    8.8663    0.5080   -2.1342 H   0  0  0  0  0  0  0  0  0  0  0  0
    9.4177    1.3641    0.3074 H   0  0  0  0  0  0  0  0  0  0  0  0
    8.9518    0.9196    2.6782 H   0  0  0  0  0  0  0  0  0  0  0  0
    7.0164   -0.3940    3.3596 H   0  0  0  0  0  0  0  0  0  0  0  0
    3.6399   -2.6954    1.1190 H   0  0  0  0  0  0  0  0  0  0  0  0
    3.8246    1.7891    0.4623 H   0  0  0  0  0  0  0  0  0  0  0  0
    1.5856    0.6180   -0.0588 H   0  0  0  0  0  0  0  0  0  0  0  0
   -7.1682   -2.5149    1.0318 H   0  0  0  0  0  0  0  0  0  0  0  0
   -9.5686   -1.9370    1.1579 H   0  0  0  0  0  0  0  0  0  0  0  0
  -10.9576    1.3461    1.0541 H   0  0  0  0  0  0  0  0  0  0  0  0
   -8.6365    2.1231    0.4797 H   0  0  0  0  0  0  0  0  0  0  0  0
   -6.2649    1.6106    0.3465 H   0  0  0  0  0  0  0  0  0  0  0  0
  1  2  2  0
  2  3  1  0
  3  4  1  0
  4  5  1  0
  5  6  1  0
  6  7  1  0
  7  8  1  0
  8  9  1  0
  9 10  1  0
 10 11  1  0
 11 12  1  0
 12 13  2  0
 12 14  1  0
 14 15  2  0
 15 16  1  0
 16 17  1  0
 16 18  2  0
 18 19  1  0
 19 20  2  0
 19 21  1  0
 21 22  2  0
 22 23  1  0
 22 24  1  0
 24 25  2  0
 25 26  1  0
 26 27  2  0
 27 28  1  0
 28 29  2  0
 28 30  1  0
 18 31  1  0
 31 32  1  0
 31 33  2  0
  2 34  1  0
 34 35  2  0
 35 36  1  0
 36 37  2  0
 37 38  1  0
 37 39  1  0
 39 40  2  0
 10  4  1  0
 33 14  1  0
 40 34  1  0
 27 21  1  0
  3 41  1  0
  4 42  1  1
  5 43  1  0
  5 44  1  0
  7 45  1  0
  7 46  1  0
  8 47  1  0
  8 48  1  0
  9 49  1  0
  9 50  1  0
 10 51  1  6
 15 52  1  0
 17 53  1  0
 23 54  1  0
 24 55  1  0
 25 56  1  0
 26 57  1  0
 30 58  1  0
 32 59  1  0
 33 60  1  0
 35 61  1  0
 36 62  1  0
 38 63  1  0
 39 64  1  0
 40 65  1  0
M  END
$$$$
