@<TRIPOS>MOLECULE
*****
 62 66 0 0 0
SMALL
GASTEIGER

@<TRIPOS>ATOM
      1 C           9.3101   -1.0444   -0.2624 C.3     1  UNL1        0.0596
      2 S           8.0703   -2.2999   -0.5619 S.O2    1  UNL1       -0.0059
      3 O           8.2495   -2.9410   -1.9042 O.2     1  UNL1       -0.1696
      4 O           8.1538   -3.3550    0.5191 O.2     1  UNL1       -0.1696
      5 C           6.4883   -1.5668   -0.4347 C.ar    1  UNL1        0.0883
      6 C           5.8775   -1.0153   -1.5396 C.ar    1  UNL1       -0.0334
      7 C           4.6301   -0.4325   -1.4618 C.ar    1  UNL1       -0.0178
      8 C           3.9739   -0.3996   -0.2465 C.ar    1  UNL1        0.1246
      9 C           4.5554   -0.9398    0.8699 C.ar    1  UNL1       -0.0038
     10 C           5.7875   -1.5105    0.7726 C.ar    1  UNL1       -0.0302
     11 C           3.8419   -0.8926    2.1398 C.3     1  UNL1       -0.0206
     12 C           2.7613    0.1261    2.2538 C.3     1  UNL1       -0.0088
     13 C           1.9674    0.3382    1.0165 C.3     1  UNL1        0.1124
     14 C           1.5244    1.8104    1.0002 C.3     1  UNL1       -0.0114
     15 C           0.5807    2.0802   -0.1135 C.3     1  UNL1       -0.0335
     16 C          -0.8658    2.1040    0.2234 C.3     1  UNL1        0.0163
     17 N          -1.2465    0.8833    0.8657 N.am    1  UNL1       -0.2855
     18 C          -2.6597    0.5694    0.7919 C.2     1  UNL1        0.3024
     19 O          -3.0644   -0.5060    1.3240 O.2     1  UNL1       -0.2526
     20 N          -3.6136    1.3923    0.1619 N.am    1  UNL1       -0.2958
     21 C          -5.0026    0.9900    0.1384 C.3     1  UNL1        0.0320
     22 C          -6.0780    2.0032    0.2944 C.3     1  UNL1       -0.0254
     23 C          -5.8708    1.3555   -1.0091 C.3     1  UNL1        0.0043
     24 C          -6.7776    0.2698   -1.4871 C.ar    1  UNL1       -0.0425
     25 C          -7.0278    0.1364   -2.8204 C.ar    1  UNL1       -0.0582
     26 C          -7.8539   -0.8449   -3.3246 C.ar    1  UNL1       -0.0615
     27 C          -8.4484   -1.7240   -2.4392 C.ar    1  UNL1       -0.0617
     28 C          -8.1998   -1.5945   -1.0916 C.ar    1  UNL1       -0.0615
     29 C          -7.3711   -0.6075   -0.6055 C.ar    1  UNL1       -0.0582
     30 C          -0.4447   -0.0667    1.5818 C.3     1  UNL1        0.0197
     31 C           0.7697   -0.5633    0.8596 C.3     1  UNL1        0.0030
     32 O           2.7440    0.1707   -0.1519 O.3     1  UNL1       -0.4854
     33 H           9.2697   -0.3499   -1.1359 H       1  UNL1        0.0468
     34 H           8.9811   -0.4872    0.6335 H       1  UNL1        0.0468
     35 H          10.2895   -1.5095   -0.1263 H       1  UNL1        0.0468
     36 H           6.3933   -1.0392   -2.5025 H       1  UNL1        0.0638
     37 H           4.1298    0.0089   -2.3208 H       1  UNL1        0.0655
     38 H           6.2777   -1.9454    1.6260 H       1  UNL1        0.0640
     39 H           4.5990   -0.6744    2.9481 H       1  UNL1        0.0316
     40 H           3.4728   -1.9250    2.3922 H       1  UNL1        0.0316
     41 H           2.1105   -0.1536    3.1086 H       1  UNL1        0.0307
     42 H           3.2455    1.0985    2.5629 H       1  UNL1        0.0307
     43 H           2.3992    2.4787    0.9082 H       1  UNL1        0.0304
     44 H           1.0295    2.0822    1.9630 H       1  UNL1        0.0304
     45 H           0.8437    3.0862   -0.5471 H       1  UNL1        0.0282
     46 H           0.7077    1.3838   -0.9773 H       1  UNL1        0.0282
     47 H          -1.2026    3.0112    0.7639 H       1  UNL1        0.0465
     48 H          -1.4072    2.1598   -0.7734 H       1  UNL1        0.0465
     49 H          -3.3193    2.3076   -0.2915 H       1  UNL1        0.1505
     50 H          -5.2076    0.0257    0.6450 H       1  UNL1        0.0505
     51 H          -6.9619    1.7647    0.9351 H       1  UNL1        0.0290
     52 H          -5.7446    3.0523    0.4308 H       1  UNL1        0.0290
     53 H          -5.4457    1.9930   -1.8005 H       1  UNL1        0.0367
     54 H          -6.5864    0.8025   -3.5738 H       1  UNL1        0.0620
     55 H          -8.0260   -0.9148   -4.3971 H       1  UNL1        0.0618
     56 H          -9.0956   -2.4889   -2.8607 H       1  UNL1        0.0618
     57 H          -8.6695   -2.2873   -0.4031 H       1  UNL1        0.0618
     58 H          -7.1719   -0.5026    0.4645 H       1  UNL1        0.0620
     59 H          -1.0779   -0.9575    1.7793 H       1  UNL1        0.0466
     60 H          -0.1801    0.3091    2.6165 H       1  UNL1        0.0466
     61 H           1.0461   -1.5411    1.3024 H       1  UNL1        0.0319
     62 H           0.5397   -0.7130   -0.1905 H       1  UNL1        0.0319
@<TRIPOS>BOND
     1     1     2    1
     2     2     3    2
     3     2     4    2
     4     2     5    1
     5     5     6   ar
     6     6     7   ar
     7     7     8   ar
     8     8     9   ar
     9     9    10   ar
    10     9    11    1
    11    11    12    1
    12    12    13    1
    13    13    14    1
    14    14    15    1
    15    15    16    1
    16    16    17    1
    17    17    18   am
    18    18    19    2
    19    18    20   am
    20    20    21    1
    21    21    22    1
    22    22    23    1
    23    23    24    1
    24    24    25   ar
    25    25    26   ar
    26    26    27   ar
    27    27    28   ar
    28    28    29   ar
    29    17    30    1
    30    30    31    1
    31    13    32    1
    32    10     5   ar
    33    31    13    1
    34    32     8    1
    35    23    21    1
    36    29    24   ar
    37     1    33    1
    38     1    34    1
    39     1    35    1
    40     6    36    1
    41     7    37    1
    42    10    38    1
    43    11    39    1
    44    11    40    1
    45    12    41    1
    46    12    42    1
    47    14    43    1
    48    14    44    1
    49    15    45    1
    50    15    46    1
    51    16    47    1
    52    16    48    1
    53    20    49    1
    54    21    50    1
    55    22    51    1
    56    22    52    1
    57    23    53    1
    58    25    54    1
    59    26    55    1
    60    27    56    1
    61    28    57    1
    62    29    58    1
    63    30    59    1
    64    30    60    1
    65    31    61    1
    66    31    62    1
