@<TRIPOS>MOLECULE
*****
 40 41 0 0 0
SMALL
GASTEIGER

@<TRIPOS>ATOM
      1 C           3.8110    0.3113    1.6410 C.3     1  UNL1       -0.0612
      2 C           3.7619   -0.6649    0.4906 C.3     1  UNL1       -0.0312
      3 C           5.1257   -1.2973    0.2649 C.3     1  UNL1       -0.0612
      4 C           3.3847    0.0217   -0.8049 C.3     1  UNL1        0.0128
      5 N           2.0950    0.6490   -0.7293 N.pl3   1  UNL1       -0.3272
      6 C           0.9307   -0.1252   -0.4853 C.ar    1  UNL1        0.1460
      7 N           0.9565   -1.4583   -0.3180 N.ar    1  UNL1       -0.2017
      8 C          -0.1501   -2.1883   -0.0896 C.ar    1  UNL1        0.2354
      9 C          -0.0153   -3.6125    0.0760 C.1     1  UNL1        0.1400
     10 N           0.1098   -4.7684    0.1976 N.1     1  UNL1       -0.1876
     11 N          -1.3199   -1.5530   -0.0279 N.ar    1  UNL1       -0.2015
     12 C          -1.4525   -0.2213   -0.1820 C.ar    1  UNL1        0.1487
     13 N          -2.7068    0.4289   -0.1119 N.pl3   1  UNL1       -0.3092
     14 C          -2.8873    1.4384    0.9026 C.3     1  UNL1        0.0371
     15 C          -4.2191    1.1151    1.5921 C.3     1  UNL1        0.0634
     16 O          -5.2000    1.2649    0.6068 O.3     1  UNL1       -0.3767
     17 C          -5.1444    0.2196   -0.3077 C.3     1  UNL1        0.0634
     18 C          -3.8040    0.1336   -0.9984 C.3     1  UNL1        0.0371
     19 C          -0.3075    0.5174   -0.4162 C.ar    1  UNL1        0.1054
     20 N          -0.3277    1.9238   -0.5935 N.pl3   1  UNL1       -0.3526
     21 H           3.7624    1.3655    1.3246 H       1  UNL1        0.0233
     22 H           3.0463    0.1015    2.4093 H       1  UNL1        0.0233
     23 H           4.8076    0.1867    2.1568 H       1  UNL1        0.0233
     24 H           3.0653   -1.4843    0.7484 H       1  UNL1        0.0310
     25 H           5.7162   -0.6276   -0.4023 H       1  UNL1        0.0233
     26 H           5.6279   -1.4047    1.2353 H       1  UNL1        0.0233
     27 H           4.9381   -2.2715   -0.2371 H       1  UNL1        0.0233
     28 H           3.3656   -0.7938   -1.5842 H       1  UNL1        0.0464
     29 H           4.1754    0.7248   -1.1337 H       1  UNL1        0.0464
     30 H           2.0149    1.6830   -0.8551 H       1  UNL1        0.1475
     31 H          -3.0345    2.4515    0.4528 H       1  UNL1        0.0487
     32 H          -2.0504    1.4520    1.6343 H       1  UNL1        0.0487
     33 H          -4.1478    0.0263    1.8702 H       1  UNL1        0.0575
     34 H          -4.3997    1.7525    2.4551 H       1  UNL1        0.0575
     35 H          -5.9076    0.4206   -1.0882 H       1  UNL1        0.0575
     36 H          -5.4098   -0.7370    0.1667 H       1  UNL1        0.0575
     37 H          -3.7335   -0.8763   -1.4527 H       1  UNL1        0.0487
     38 H          -3.8075    0.9295   -1.7848 H       1  UNL1        0.0487
     39 H           0.2534    2.5875   -0.0064 H       1  UNL1        0.1425
     40 H          -0.9227    2.3794   -1.3193 H       1  UNL1        0.1425
@<TRIPOS>BOND
     1     1     2    1
     2     2     3    1
     3     2     4    1
     4     4     5    1
     5     5     6    1
     6     6     7   ar
     7     7     8   ar
     8     8     9    1
     9     9    10    3
    10     8    11   ar
    11    11    12   ar
    12    12    13    1
    13    13    14    1
    14    14    15    1
    15    15    16    1
    16    16    17    1
    17    17    18    1
    18    12    19   ar
    19    19    20    1
    20    19     6   ar
    21    18    13    1
    22     1    21    1
    23     1    22    1
    24     1    23    1
    25     2    24    1
    26     3    25    1
    27     3    26    1
    28     3    27    1
    29     4    28    1
    30     4    29    1
    31     5    30    1
    32    14    31    1
    33    14    32    1
    34    15    33    1
    35    15    34    1
    36    17    35    1
    37    17    36    1
    38    18    37    1
    39    18    38    1
    40    20    39    1
    41    20    40    1
