@<TRIPOS>MOLECULE
*****
 48 51 0 0 0
SMALL
GASTEIGER

@<TRIPOS>ATOM
      1 C          -7.0966   -1.7269   -0.3566 C.3     1  UNL1       -0.0470
      2 C          -6.3629   -0.4578    0.0537 C.3     1  UNL1        0.0150
      3 C          -6.5126   -0.2686    1.5733 C.3     1  UNL1       -0.0470
      4 N          -4.9374   -0.5323   -0.1995 N.pl3   1  UNL1       -0.3415
      5 C          -3.9970    0.5196   -0.0963 C.ar    1  UNL1        0.0294
      6 C          -2.6619    0.2270   -0.3642 C.ar    1  UNL1       -0.0147
      7 C          -1.6713    1.1685   -0.3239 C.ar    1  UNL1        0.0781
      8 C          -2.0963    2.4468    0.0094 C.ar    1  UNL1        0.0203
      9 C          -0.9451    3.2004   -0.0275 C.ar    1  UNL1        0.0576
     10 N           0.0813    2.3965   -0.3663 N.ar    1  UNL1       -0.1722
     11 N          -0.3641    1.1363   -0.5513 N.ar    1  UNL1       -0.2124
     12 C           0.5137    0.1026   -0.9309 C.ar    1  UNL1        0.1748
     13 N           1.8283    0.1742   -0.5399 N.ar    1  UNL1       -0.2073
     14 C           2.7437   -0.7467   -0.8700 C.ar    1  UNL1        0.1581
     15 C           2.4012   -1.8361   -1.6340 C.ar    1  UNL1        0.0705
     16 N           1.1080   -1.9648   -2.0525 N.ar    1  UNL1       -0.2559
     17 C           0.2167   -0.9985   -1.6904 C.ar    1  UNL1        0.0719
     18 N           4.1266   -0.7690   -0.5588 N.ar    1  UNL1       -0.3065
     19 C           4.9903   -0.5412   -1.5986 C.ar    1  UNL1        0.0115
     20 C           6.3251   -0.5827   -1.1732 C.ar    1  UNL1       -0.0401
     21 C           6.2384   -0.8527    0.1980 C.ar    1  UNL1       -0.0189
     22 C           7.4225   -0.9773    1.0512 C.3     1  UNL1        0.0713
     23 C           7.8414    0.3329    1.6333 C.2     1  UNL1        0.3091
     24 O           7.6115    1.5798    1.1468 O.3     1  UNL1       -0.4804
     25 O           8.4994    0.3737    2.7292 O.2     1  UNL1       -0.2507
     26 C           4.8999   -0.9528    0.4963 C.ar    1  UNL1        0.0149
     27 C          -3.3920    2.8037    0.2860 C.ar    1  UNL1       -0.0493
     28 C          -4.3500    1.8150    0.2279 C.ar    1  UNL1       -0.0401
     29 H          -7.9408   -1.4084   -1.0177 H       1  UNL1        0.0247
     30 H          -7.5266   -2.1847    0.5517 H       1  UNL1        0.0247
     31 H          -6.3933   -2.4140   -0.8970 H       1  UNL1        0.0247
     32 H          -6.7434    0.4447   -0.4840 H       1  UNL1        0.0492
     33 H          -5.6353    0.3075    1.9106 H       1  UNL1        0.0247
     34 H          -7.4691    0.1814    1.8454 H       1  UNL1        0.0247
     35 H          -6.3849   -1.2961    2.0209 H       1  UNL1        0.0247
     36 H          -4.6431   -1.4720   -0.4877 H       1  UNL1        0.1463
     37 H          -2.4130   -0.7954   -0.6027 H       1  UNL1        0.0657
     38 H          -0.7662    4.2327    0.1593 H       1  UNL1        0.0854
     39 H           3.0558   -2.6474   -1.9706 H       1  UNL1        0.0867
     40 H          -0.7693   -1.1769   -2.0832 H       1  UNL1        0.0867
     41 H           4.8053   -0.3429   -2.6475 H       1  UNL1        0.0813
     42 H           7.2222   -0.4449   -1.7363 H       1  UNL1        0.0635
     43 H           8.2836   -1.4265    0.5561 H       1  UNL1        0.0427
     44 H           7.1021   -1.6197    1.9147 H       1  UNL1        0.0427
     45 H           8.3681    2.2464    0.9667 H       1  UNL1        0.2951
     46 H           4.4537   -1.1592    1.4532 H       1  UNL1        0.0816
     47 H          -3.6858    3.8017    0.5459 H       1  UNL1        0.0625
     48 H          -5.3808    2.1039    0.4353 H       1  UNL1        0.0636
@<TRIPOS>BOND
     1     1     2    1
     2     2     3    1
     3     2     4    1
     4     4     5    1
     5     5     6   ar
     6     6     7   ar
     7     7     8   ar
     8     8     9   ar
     9     9    10   ar
    10    10    11   ar
    11    11    12    1
    12    12    13   ar
    13    13    14   ar
    14    14    15   ar
    15    15    16   ar
    16    16    17   ar
    17    14    18    1
    18    18    19   ar
    19    19    20   ar
    20    20    21   ar
    21    21    22    1
    22    22    23    1
    23    23    24    1
    24    23    25    2
    25    21    26   ar
    26     8    27   ar
    27    27    28   ar
    28    28     5   ar
    29    11     7   ar
    30    17    12   ar
    31    26    18   ar
    32     1    29    1
    33     1    30    1
    34     1    31    1
    35     2    32    1
    36     3    33    1
    37     3    34    1
    38     3    35    1
    39     4    36    1
    40     6    37    1
    41     9    38    1
    42    15    39    1
    43    17    40    1
    44    19    41    1
    45    20    42    1
    46    22    43    1
    47    22    44    1
    48    24    45    1
    49    26    46    1
    50    27    47    1
    51    28    48    1
