
     RDKit          3D

 53 52  0  0  0  0  0  0  0  0999 V2000
   -1.4635   -1.3951    0.3599 C   0  0  2  0  0  0  0  0  0  0  0  0
   -1.7191   -2.1753   -0.8824 C   0  0  0  0  0  0  0  0  0  0  0  0
   -1.5159    0.0678    0.0745 C   0  0  0  0  0  0  0  0  0  0  0  0
   -2.8120    0.5921   -0.4565 C   0  0  0  0  0  0  0  0  0  0  0  0
   -3.9369    0.3770    0.4863 C   0  0  0  0  0  0  0  0  0  0  0  0
   -5.2342    0.9679   -0.1158 C   0  0  0  0  0  0  0  0  0  0  0  0
   -6.3176    0.7076    0.8991 C   0  0  0  0  0  0  0  0  0  0  0  0
   -4.9969    2.4457   -0.3459 C   0  0  0  0  0  0  0  0  0  0  0  0
   -0.3754   -1.7859    1.2469 C   0  0  0  0  0  0  0  0  0  0  0  0
    1.0263   -1.8743    0.8569 C   0  0  0  0  0  0  0  0  0  0  0  0
    1.7502   -0.6752    0.3559 C   0  0  0  0  0  0  0  0  0  0  0  0
    3.1997   -1.1565    0.1047 C   0  0  1  0  0  0  0  0  0  0  0  0
    3.1407   -2.2874   -0.9290 C   0  0  0  0  0  0  0  0  0  0  0  0
    4.0546   -0.0571   -0.4489 C   0  0  0  0  0  0  0  0  0  0  0  0
    4.1457    1.1247    0.4827 C   0  0  1  0  0  0  0  0  0  0  0  0
    4.7016    0.6652    1.6919 O   0  0  0  0  0  0  0  0  0  0  0  0
    5.2255    2.4158   -0.2089 P   0  0  0  0  0  0  0  0  0  0  0  0
    6.8205    1.9044   -0.1221 O   0  0  0  0  0  0  0  0  0  0  0  0
    5.0447    3.8483    0.6453 O   0  0  0  0  0  0  0  0  0  0  0  0
    4.8481    2.6733   -1.6489 O   0  0  0  0  0  0  0  0  0  0  0  0
   -2.4282   -1.6041    0.9911 H   0  0  0  0  0  0  0  0  0  0  0  0
   -1.1323   -1.7215   -1.7351 H   0  0  0  0  0  0  0  0  0  0  0  0
   -2.7721   -2.0104   -1.1994 H   0  0  0  0  0  0  0  0  0  0  0  0
   -1.5701   -3.2478   -0.8015 H   0  0  0  0  0  0  0  0  0  0  0  0
   -1.2437    0.6187    1.0061 H   0  0  0  0  0  0  0  0  0  0  0  0
   -0.7039    0.3239   -0.6757 H   0  0  0  0  0  0  0  0  0  0  0  0
   -2.9874    0.1243   -1.4453 H   0  0  0  0  0  0  0  0  0  0  0  0
   -2.6700    1.6830   -0.6093 H   0  0  0  0  0  0  0  0  0  0  0  0
   -4.1245   -0.7217    0.6664 H   0  0  0  0  0  0  0  0  0  0  0  0
   -3.8173    0.8927    1.4578 H   0  0  0  0  0  0  0  0  0  0  0  0
   -5.4053    0.4233   -1.0694 H   0  0  0  0  0  0  0  0  0  0  0  0
   -7.2381    0.4477    0.3494 H   0  0  0  0  0  0  0  0  0  0  0  0
   -6.4627    1.6212    1.4925 H   0  0  0  0  0  0  0  0  0  0  0  0
   -6.0623   -0.0998    1.6166 H   0  0  0  0  0  0  0  0  0  0  0  0
   -4.6837    2.6449   -1.3922 H   0  0  0  0  0  0  0  0  0  0  0  0
   -4.2223    2.8432    0.3508 H   0  0  0  0  0  0  0  0  0  0  0  0
   -5.9568    2.9796   -0.1182 H   0  0  0  0  0  0  0  0  0  0  0  0
   -0.6242   -2.8004    1.7268 H   0  0  0  0  0  0  0  0  0  0  0  0
   -0.3942   -1.1341    2.1917 H   0  0  0  0  0  0  0  0  0  0  0  0
    1.2755   -2.7581    0.2062 H   0  0  0  0  0  0  0  0  0  0  0  0
    1.5961   -2.1526    1.8096 H   0  0  0  0  0  0  0  0  0  0  0  0
    1.4456   -0.2979   -0.6384 H   0  0  0  0  0  0  0  0  0  0  0  0
    1.7799    0.1275    1.0820 H   0  0  0  0  0  0  0  0  0  0  0  0
    3.6428   -1.5956    1.0168 H   0  0  0  0  0  0  0  0  0  0  0  0
    3.9860   -2.1939   -1.6507 H   0  0  0  0  0  0  0  0  0  0  0  0
    2.2121   -2.2176   -1.5329 H   0  0  0  0  0  0  0  0  0  0  0  0
    3.1508   -3.2590   -0.4198 H   0  0  0  0  0  0  0  0  0  0  0  0
    3.5883    0.2974   -1.4177 H   0  0  0  0  0  0  0  0  0  0  0  0
    5.0742   -0.4274   -0.7097 H   0  0  0  0  0  0  0  0  0  0  0  0
    3.1485    1.5181    0.7108 H   0  0  0  0  0  0  0  0  0  0  0  0
    5.3112   -0.0767    1.4667 H   0  0  0  0  0  0  0  0  0  0  0  0
    6.8942    0.9352    0.0726 H   0  0  0  0  0  0  0  0  0  0  0  0
    5.8079    4.4551    0.4807 H   0  0  0  0  0  0  0  0  0  0  0  0
  1  2  1  0
  1  3  1  0
  3  4  1  0
  4  5  1  0
  5  6  1  0
  6  7  1  0
  6  8  1  0
  1  9  1  0
  9 10  1  0
 10 11  1  0
 11 12  1  0
 12 13  1  0
 12 14  1  0
 14 15  1  0
 15 16  1  0
 15 17  1  0
 17 18  1  0
 17 19  1  0
 17 20  2  0
  1 21  1  1
  2 22  1  0
  2 23  1  0
  2 24  1  0
  3 25  1  0
  3 26  1  0
  4 27  1  0
  4 28  1  0
  5 29  1  0
  5 30  1  0
  6 31  1  0
  7 32  1  0
  7 33  1  0
  7 34  1  0
  8 35  1  0
  8 36  1  0
  8 37  1  0
  9 38  1  0
  9 39  1  0
 10 40  1  0
 10 41  1  0
 11 42  1  0
 11 43  1  0
 12 44  1  1
 13 45  1  0
 13 46  1  0
 13 47  1  0
 14 48  1  0
 14 49  1  0
 15 50  1  1
 16 51  1  0
 18 52  1  0
 19 53  1  0
M  END
$$$$
