@<TRIPOS>MOLECULE
*****
 37 39 0 0 0
SMALL
GASTEIGER

@<TRIPOS>ATOM
      1 O          -5.2205    0.7109   -2.1336 O.2     1  UNL1       -0.2451
      2 C          -5.4121   -0.0229   -1.1379 C.2     1  UNL1        0.3369
      3 O          -6.5969   -0.7145   -0.9969 O.3     1  UNL1       -0.4771
      4 C          -4.3429   -0.1199   -0.1371 C.ar    1  UNL1        0.0607
      5 C          -4.5226   -0.9169    0.9670 C.ar    1  UNL1       -0.0477
      6 C          -3.5290   -1.0140    1.9082 C.ar    1  UNL1       -0.0591
      7 C          -2.3494   -0.3050    1.7360 C.ar    1  UNL1       -0.0353
      8 C          -2.1409    0.5018    0.6393 C.ar    1  UNL1        0.1063
      9 S          -0.6520    1.3509    0.4880 S.O2    1  UNL1        0.0612
     10 O          -0.9381    2.7190   -0.0787 O.2     1  UNL1       -0.1528
     11 O          -0.1035    1.5975    1.8882 O.2     1  UNL1       -0.1528
     12 N           0.5504    0.5223   -0.3847 N.3     1  UNL1       -0.1720
     13 C           0.8679   -0.7114    0.2995 C.3     1  UNL1        0.0248
     14 C           2.1302   -0.5709    1.1600 C.3     1  UNL1       -0.0129
     15 C           3.2303   -0.3560    0.1551 C.ar    1  UNL1       -0.0406
     16 C           4.4056   -1.0533    0.1642 C.ar    1  UNL1       -0.0442
     17 C           5.3506   -0.7717   -0.8168 C.ar    1  UNL1        0.0182
     18 BR          6.9815   -1.7278   -0.8177 Br      1  UNL1       -0.0503
     19 C           5.0977    0.1875   -1.7681 C.ar    1  UNL1       -0.0474
     20 C           3.9159    0.8950   -1.7846 C.ar    1  UNL1       -0.0560
     21 C           2.9672    0.6094   -0.7964 C.ar    1  UNL1       -0.0284
     22 C           1.6777    1.3185   -0.7358 C.3     1  UNL1        0.0458
     23 C          -3.1589    0.5747   -0.2833 C.ar    1  UNL1       -0.0214
     24 H          -7.3622   -0.6707   -1.6687 H       1  UNL1        0.2954
     25 H          -5.4437   -1.4629    1.0896 H       1  UNL1        0.0626
     26 H          -3.6669   -1.6499    2.7936 H       1  UNL1        0.0618
     27 H          -1.6154   -0.4327    2.5227 H       1  UNL1        0.0637
     28 H           0.0310   -1.0613    0.9103 H       1  UNL1        0.0447
     29 H           1.1363   -1.4638   -0.4711 H       1  UNL1        0.0447
     30 H           2.0447    0.2673    1.8595 H       1  UNL1        0.0326
     31 H           2.2871   -1.5088    1.6870 H       1  UNL1        0.0326
     32 H           4.5779   -1.8035    0.9258 H       1  UNL1        0.0631
     33 H           5.8635    0.3812   -2.5228 H       1  UNL1        0.0629
     34 H           3.6920    1.6551   -2.5224 H       1  UNL1        0.0621
     35 H           1.7830    2.1135    0.0331 H       1  UNL1        0.0493
     36 H           1.5016    1.7475   -1.7504 H       1  UNL1        0.0493
     37 H          -3.0370    1.1857   -1.1424 H       1  UNL1        0.0645
@<TRIPOS>BOND
     1     1     2    2
     2     2     3    1
     3     2     4    1
     4     4     5   ar
     5     5     6   ar
     6     6     7   ar
     7     7     8   ar
     8     8     9    1
     9     9    10    2
    10     9    11    2
    11     9    12    1
    12    12    13    1
    13    13    14    1
    14    14    15    1
    15    15    16   ar
    16    16    17   ar
    17    17    18    1
    18    17    19   ar
    19    19    20   ar
    20    20    21   ar
    21    21    22    1
    22     8    23   ar
    23    23     4   ar
    24    22    12    1
    25    21    15   ar
    26     3    24    1
    27     5    25    1
    28     6    26    1
    29     7    27    1
    30    13    28    1
    31    13    29    1
    32    14    30    1
    33    14    31    1
    34    16    32    1
    35    19    33    1
    36    20    34    1
    37    22    35    1
    38    22    36    1
    39    23    37    1
