
     RDKit          3D

 37 39  0  0  0  0  0  0  0  0999 V2000
   -5.2205    0.7109   -2.1336 O   0  0  0  0  0  0  0  0  0  0  0  0
   -5.4121   -0.0229   -1.1379 C   0  0  0  0  0  0  0  0  0  0  0  0
   -6.5969   -0.7145   -0.9969 O   0  0  0  0  0  0  0  0  0  0  0  0
   -4.3429   -0.1199   -0.1371 C   0  0  0  0  0  0  0  0  0  0  0  0
   -4.5226   -0.9169    0.9670 C   0  0  0  0  0  0  0  0  0  0  0  0
   -3.5290   -1.0140    1.9082 C   0  0  0  0  0  0  0  0  0  0  0  0
   -2.3494   -0.3050    1.7360 C   0  0  0  0  0  0  0  0  0  0  0  0
   -2.1409    0.5018    0.6393 C   0  0  0  0  0  0  0  0  0  0  0  0
   -0.6520    1.3509    0.4880 S   0  0  0  0  0  6  0  0  0  0  0  0
   -0.9381    2.7190   -0.0787 O   0  0  0  0  0  0  0  0  0  0  0  0
   -0.1035    1.5975    1.8882 O   0  0  0  0  0  0  0  0  0  0  0  0
    0.5504    0.5223   -0.3847 N   0  0  0  0  0  0  0  0  0  0  0  0
    0.8679   -0.7114    0.2995 C   0  0  0  0  0  0  0  0  0  0  0  0
    2.1302   -0.5709    1.1600 C   0  0  0  0  0  0  0  0  0  0  0  0
    3.2303   -0.3560    0.1551 C   0  0  0  0  0  0  0  0  0  0  0  0
    4.4056   -1.0533    0.1642 C   0  0  0  0  0  0  0  0  0  0  0  0
    5.3506   -0.7717   -0.8168 C   0  0  0  0  0  0  0  0  0  0  0  0
    6.9815   -1.7278   -0.8177 Br  0  0  0  0  0  0  0  0  0  0  0  0
    5.0977    0.1875   -1.7681 C   0  0  0  0  0  0  0  0  0  0  0  0
    3.9159    0.8950   -1.7846 C   0  0  0  0  0  0  0  0  0  0  0  0
    2.9672    0.6094   -0.7964 C   0  0  0  0  0  0  0  0  0  0  0  0
    1.6777    1.3185   -0.7358 C   0  0  0  0  0  0  0  0  0  0  0  0
   -3.1589    0.5747   -0.2833 C   0  0  0  0  0  0  0  0  0  0  0  0
   -7.3622   -0.6707   -1.6687 H   0  0  0  0  0  0  0  0  0  0  0  0
   -5.4437   -1.4629    1.0896 H   0  0  0  0  0  0  0  0  0  0  0  0
   -3.6669   -1.6499    2.7936 H   0  0  0  0  0  0  0  0  0  0  0  0
   -1.6154   -0.4327    2.5227 H   0  0  0  0  0  0  0  0  0  0  0  0
    0.0310   -1.0613    0.9103 H   0  0  0  0  0  0  0  0  0  0  0  0
    1.1363   -1.4638   -0.4711 H   0  0  0  0  0  0  0  0  0  0  0  0
    2.0447    0.2673    1.8595 H   0  0  0  0  0  0  0  0  0  0  0  0
    2.2871   -1.5088    1.6870 H   0  0  0  0  0  0  0  0  0  0  0  0
    4.5779   -1.8035    0.9258 H   0  0  0  0  0  0  0  0  0  0  0  0
    5.8635    0.3812   -2.5228 H   0  0  0  0  0  0  0  0  0  0  0  0
    3.6920    1.6551   -2.5224 H   0  0  0  0  0  0  0  0  0  0  0  0
    1.7830    2.1135    0.0331 H   0  0  0  0  0  0  0  0  0  0  0  0
    1.5016    1.7475   -1.7504 H   0  0  0  0  0  0  0  0  0  0  0  0
   -3.0370    1.1857   -1.1424 H   0  0  0  0  0  0  0  0  0  0  0  0
  1  2  2  0
  2  3  1  0
  2  4  1  0
  4  5  2  0
  5  6  1  0
  6  7  2  0
  7  8  1  0
  8  9  1  0
  9 10  2  0
  9 11  2  0
  9 12  1  0
 12 13  1  0
 13 14  1  0
 14 15  1  0
 15 16  2  0
 16 17  1  0
 17 18  1  0
 17 19  2  0
 19 20  1  0
 20 21  2  0
 21 22  1  0
  8 23  2  0
 23  4  1  0
 22 12  1  0
 21 15  1  0
  3 24  1  0
  5 25  1  0
  6 26  1  0
  7 27  1  0
 13 28  1  0
 13 29  1  0
 14 30  1  0
 14 31  1  0
 16 32  1  0
 19 33  1  0
 20 34  1  0
 22 35  1  0
 22 36  1  0
 23 37  1  0
M  END
$$$$
