@<TRIPOS>MOLECULE
*****
 30 30 0 0 0
SMALL
GASTEIGER

@<TRIPOS>ATOM
      1 C          -2.1604    3.0234    0.8471 C.3     1  UNL1       -0.0558
      2 C          -1.1050    2.2521    0.0410 C.3     1  UNL1       -0.0033
      3 S          -1.7318    0.6119   -0.2219 S.3     1  UNL1       -0.1069
      4 C          -0.7127   -0.4844   -1.1344 C.2     1  UNL1        0.1200
      5 C           0.6101   -0.3549   -1.7647 C.3     1  UNL1        0.0242
      6 C           1.7148   -0.0460   -0.8475 C.ar    1  UNL1       -0.0410
      7 C           2.3136   -1.1964   -0.3204 C.ar    1  UNL1       -0.0582
      8 C           3.3715   -1.1445    0.5614 C.ar    1  UNL1       -0.0615
      9 C           3.8752    0.0789    0.9529 C.ar    1  UNL1       -0.0617
     10 C           3.2922    1.2190    0.4391 C.ar    1  UNL1       -0.0615
     11 C           2.2390    1.1635   -0.4386 C.ar    1  UNL1       -0.0582
     12 N          -1.4905   -1.5380   -1.1125 N.2     1  UNL1       -0.0480
     13 O          -2.7062   -1.5029   -0.4782 O.2     1  UNL1       -0.2068
     14 S          -3.4126   -2.8353    0.2767 S.O2    1  UNL1        0.2709
     15 O          -2.7694   -2.9795    1.8148 O.3     1  UNL1       -0.2209
     16 O          -4.8816   -2.6332    0.4090 O.2     1  UNL1       -0.1060
     17 O          -3.1427   -4.0445   -0.5841 O.2     1  UNL1       -0.1060
     18 H          -1.9687    2.8614    1.9083 H       1  UNL1        0.0238
     19 H          -2.2021    4.0976    0.5499 H       1  UNL1        0.0238
     20 H          -3.1726    2.5724    0.6310 H       1  UNL1        0.0238
     21 H          -0.9728    2.7668   -0.9373 H       1  UNL1        0.0377
     22 H          -0.1813    2.3163    0.6465 H       1  UNL1        0.0377
     23 H           0.5320    0.5014   -2.4759 H       1  UNL1        0.0383
     24 H           0.8531   -1.2253   -2.4083 H       1  UNL1        0.0383
     25 H           2.0119   -2.2121   -0.5482 H       1  UNL1        0.0620
     26 H           3.8504   -2.0105    0.9816 H       1  UNL1        0.0618
     27 H           4.7004    0.2101    1.6386 H       1  UNL1        0.0618
     28 H           3.6190    2.2168    0.6883 H       1  UNL1        0.0618
     29 H           1.7183    2.0038   -0.8931 H       1  UNL1        0.0620
     30 H          -2.0910   -3.6879    1.7789 H       1  UNL1        0.2480
@<TRIPOS>BOND
     1     1     2    1
     2     2     3    1
     3     3     4    1
     4     4     5    1
     5     5     6    1
     6     6     7   ar
     7     7     8   ar
     8     8     9   ar
     9     9    10   ar
    10    10    11   ar
    11     4    12    2
    12    12    13    1
    13    13    14    1
    14    14    15    1
    15    14    16    2
    16    14    17    2
    17    11     6   ar
    18     1    18    1
    19     1    19    1
    20     1    20    1
    21     2    21    1
    22     2    22    1
    23     5    23    1
    24     5    24    1
    25     7    25    1
    26     8    26    1
    27     9    27    1
    28    10    28    1
    29    11    29    1
    30    15    30    1
