
     RDKit          3D

 30 30  0  0  0  0  0  0  0  0999 V2000
   -2.1604    3.0234    0.8471 C   0  0  0  0  0  0  0  0  0  0  0  0
   -1.1050    2.2521    0.0410 C   0  0  0  0  0  0  0  0  0  0  0  0
   -1.7318    0.6119   -0.2219 S   0  0  0  0  0  0  0  0  0  0  0  0
   -0.7127   -0.4844   -1.1344 C   0  0  0  0  0  0  0  0  0  0  0  0
    0.6101   -0.3549   -1.7647 C   0  0  0  0  0  0  0  0  0  0  0  0
    1.7148   -0.0460   -0.8475 C   0  0  0  0  0  0  0  0  0  0  0  0
    2.3136   -1.1964   -0.3204 C   0  0  0  0  0  0  0  0  0  0  0  0
    3.3715   -1.1445    0.5614 C   0  0  0  0  0  0  0  0  0  0  0  0
    3.8752    0.0789    0.9529 C   0  0  0  0  0  0  0  0  0  0  0  0
    3.2922    1.2190    0.4391 C   0  0  0  0  0  0  0  0  0  0  0  0
    2.2390    1.1635   -0.4386 C   0  0  0  0  0  0  0  0  0  0  0  0
   -1.4905   -1.5380   -1.1125 N   0  0  0  0  0  0  0  0  0  0  0  0
   -2.7062   -1.5029   -0.4782 O   0  0  0  0  0  0  0  0  0  0  0  0
   -3.4126   -2.8353    0.2767 S   0  0  0  0  0  0  0  0  0  0  0  0
   -2.7694   -2.9795    1.8148 O   0  0  0  0  0  0  0  0  0  0  0  0
   -4.8816   -2.6332    0.4090 O   0  0  0  0  0  0  0  0  0  0  0  0
   -3.1427   -4.0445   -0.5841 O   0  0  0  0  0  0  0  0  0  0  0  0
   -1.9687    2.8614    1.9083 H   0  0  0  0  0  0  0  0  0  0  0  0
   -2.2021    4.0976    0.5499 H   0  0  0  0  0  0  0  0  0  0  0  0
   -3.1726    2.5724    0.6310 H   0  0  0  0  0  0  0  0  0  0  0  0
   -0.9728    2.7668   -0.9373 H   0  0  0  0  0  0  0  0  0  0  0  0
   -0.1813    2.3163    0.6465 H   0  0  0  0  0  0  0  0  0  0  0  0
    0.5320    0.5014   -2.4759 H   0  0  0  0  0  0  0  0  0  0  0  0
    0.8531   -1.2253   -2.4083 H   0  0  0  0  0  0  0  0  0  0  0  0
    2.0119   -2.2121   -0.5482 H   0  0  0  0  0  0  0  0  0  0  0  0
    3.8504   -2.0105    0.9816 H   0  0  0  0  0  0  0  0  0  0  0  0
    4.7004    0.2101    1.6386 H   0  0  0  0  0  0  0  0  0  0  0  0
    3.6190    2.2168    0.6883 H   0  0  0  0  0  0  0  0  0  0  0  0
    1.7183    2.0038   -0.8931 H   0  0  0  0  0  0  0  0  0  0  0  0
   -2.0910   -3.6879    1.7789 H   0  0  0  0  0  0  0  0  0  0  0  0
  1  2  1  0
  2  3  1  0
  3  4  1  0
  4  5  1  0
  5  6  1  0
  6  7  2  0
  7  8  1  0
  8  9  2  0
  9 10  1  0
 10 11  2  0
  4 12  2  0
 12 13  1  0
 13 14  1  0
 14 15  1  0
 14 16  2  0
 14 17  2  0
 11  6  1  0
  1 18  1  0
  1 19  1  0
  1 20  1  0
  2 21  1  0
  2 22  1  0
  5 23  1  0
  5 24  1  0
  7 25  1  0
  8 26  1  0
  9 27  1  0
 10 28  1  0
 11 29  1  0
 15 30  1  0
M  END
$$$$
