@<TRIPOS>MOLECULE
*****
 57 61 0 0 0
SMALL
GASTEIGER

@<TRIPOS>ATOM
      1 C           7.9030    3.6012    0.8083 C.3     1  UNL1        0.0788
      2 O           7.6891    2.2282    0.5633 O.3     1  UNL1       -0.4951
      3 C           6.4038    1.7355    0.5820 C.ar    1  UNL1        0.1202
      4 C           5.3579    2.5854    0.8374 C.ar    1  UNL1       -0.0182
      5 C           4.0604    2.1346    0.8656 C.ar    1  UNL1       -0.0368
      6 C           3.7490    0.7900    0.6351 C.ar    1  UNL1        0.0383
      7 N           2.3602    0.4133    0.6552 N.am    1  UNL1       -0.2506
      8 C           1.3689    1.4378    0.6471 C.3     1  UNL1        0.0510
      9 C           0.0215    0.9870    0.3263 C.ar    1  UNL1        0.0288
     10 C          -0.9871    1.9595    0.0824 C.ar    1  UNL1        0.0392
     11 N          -2.2142    1.5324   -0.1478 N.ar    1  UNL1       -0.2222
     12 C          -2.6098    0.2645   -0.1754 C.ar    1  UNL1        0.2212
     13 N          -3.9659   -0.1443   -0.4294 N.pl3   1  UNL1       -0.2836
     14 C          -5.0548    0.6703   -0.7110 C.ar    1  UNL1        0.0337
     15 C          -6.3369    0.1153   -0.7553 C.ar    1  UNL1       -0.0378
     16 C          -7.4530    0.8700   -1.0369 C.ar    1  UNL1       -0.0247
     17 C          -7.3412    2.2179   -1.2882 C.ar    1  UNL1        0.1235
     18 F          -8.4713    2.9365   -1.5639 F       1  UNL1       -0.2055
     19 C          -6.1023    2.7891   -1.2525 C.ar    1  UNL1       -0.0247
     20 C          -4.9853    2.0070   -0.9656 C.ar    1  UNL1       -0.0378
     21 N          -1.6614   -0.6618    0.0530 N.ar    1  UNL1       -0.1985
     22 C          -0.3616   -0.3150    0.3001 C.ar    1  UNL1        0.1388
     23 N           0.5984   -1.3462    0.4680 N.am    1  UNL1       -0.2359
     24 C           0.2676   -2.7552    0.4672 C.3     1  UNL1        0.0364
     25 C          -0.7607   -3.1666    1.4614 C.3     1  UNL1       -0.0314
     26 C          -1.3577   -4.4188    0.8526 C.3     1  UNL1       -0.0251
     27 C          -1.4554   -4.0591   -0.6073 C.3     1  UNL1        0.0570
     28 O          -2.7190   -3.4880   -0.8443 O.3     1  UNL1       -0.3917
     29 C          -0.3337   -3.0846   -0.8882 C.3     1  UNL1       -0.0077
     30 C           1.9698   -0.9421    0.6504 C.2     1  UNL1        0.3150
     31 O           2.7894   -1.8970    0.8083 O.2     1  UNL1       -0.2516
     32 C           4.7742   -0.0601    0.3807 C.ar    1  UNL1       -0.0368
     33 C           6.1010    0.4215    0.3563 C.ar    1  UNL1       -0.0182
     34 H           7.7094    3.8711    1.8491 H       1  UNL1        0.0660
     35 H           8.9676    3.8020    0.5048 H       1  UNL1        0.0660
     36 H           7.2923    4.1871    0.0784 H       1  UNL1        0.0660
     37 H           5.5509    3.6548    1.0257 H       1  UNL1        0.0655
     38 H           3.2327    2.8057    1.0713 H       1  UNL1        0.0637
     39 H           1.2973    1.9781    1.6252 H       1  UNL1        0.0520
     40 H           1.6567    2.2795   -0.0686 H       1  UNL1        0.0520
     41 H          -0.6680    2.9829    0.1045 H       1  UNL1        0.0835
     42 H          -4.1650   -1.2036   -0.4012 H       1  UNL1        0.1550
     43 H          -6.4337   -0.9293   -0.5611 H       1  UNL1        0.0637
     44 H          -8.4566    0.4174   -1.0679 H       1  UNL1        0.0647
     45 H          -5.9962    3.8395   -1.4460 H       1  UNL1        0.0647
     46 H          -4.0130    2.5207   -0.9576 H       1  UNL1        0.0637
     47 H           1.2038   -3.3756    0.6259 H       1  UNL1        0.0506
     48 H          -1.5174   -2.3990    1.6023 H       1  UNL1        0.0284
     49 H          -0.2832   -3.4821    2.4261 H       1  UNL1        0.0284
     50 H          -0.6473   -5.2493    0.9597 H       1  UNL1        0.0291
     51 H          -2.3542   -4.6424    1.2913 H       1  UNL1        0.0291
     52 H          -1.3996   -4.9679   -1.2608 H       1  UNL1        0.0594
     53 H          -3.3716   -4.1547   -1.1299 H       1  UNL1        0.2098
     54 H           0.4013   -3.6508   -1.5136 H       1  UNL1        0.0308
     55 H          -0.7455   -2.2300   -1.4208 H       1  UNL1        0.0308
     56 H           4.6185   -1.1171    0.1759 H       1  UNL1        0.0637
     57 H           6.8778   -0.2951    0.1501 H       1  UNL1        0.0655
@<TRIPOS>BOND
     1     1     2    1
     2     2     3    1
     3     3     4   ar
     4     4     5   ar
     5     5     6   ar
     6     6     7    1
     7     7     8    1
     8     8     9    1
     9     9    10   ar
    10    10    11   ar
    11    11    12   ar
    12    12    13    1
    13    13    14    1
    14    14    15   ar
    15    15    16   ar
    16    16    17   ar
    17    17    18    1
    18    17    19   ar
    19    19    20   ar
    20    12    21   ar
    21    21    22   ar
    22    22    23    1
    23    23    24    1
    24    24    25    1
    25    25    26    1
    26    26    27    1
    27    27    28    1
    28    27    29    1
    29    23    30   am
    30    30    31    2
    31     6    32   ar
    32    32    33   ar
    33    33     3   ar
    34    30     7   am
    35    22     9   ar
    36    29    24    1
    37    20    14   ar
    38     1    34    1
    39     1    35    1
    40     1    36    1
    41     4    37    1
    42     5    38    1
    43     8    39    1
    44     8    40    1
    45    10    41    1
    46    13    42    1
    47    15    43    1
    48    16    44    1
    49    19    45    1
    50    20    46    1
    51    24    47    1
    52    25    48    1
    53    25    49    1
    54    26    50    1
    55    26    51    1
    56    27    52    1
    57    28    53    1
    58    29    54    1
    59    29    55    1
    60    32    56    1
    61    33    57    1
