
     RDKit          3D

 77 82  0  0  0  0  0  0  0  0999 V2000
    8.4144    3.0176    0.8197 C   0  0  0  0  0  0  0  0  0  0  0  0
    8.6504    1.5563    0.5583 C   0  0  0  0  0  0  0  0  0  0  0  0
    9.8768    1.4645   -0.3526 C   0  0  0  0  0  0  0  0  0  0  0  0
    7.5513    0.9972   -0.1516 N   0  0  0  0  0  0  0  0  0  0  0  0
    6.2870    1.0069    0.4997 C   0  0  0  0  0  0  0  0  0  0  0  0
    6.2668   -0.2313    1.3814 C   0  0  0  0  0  0  0  0  0  0  0  0
    7.2837   -1.1502    0.7805 C   0  0  0  0  0  0  0  0  0  0  0  0
    7.7620   -0.4208   -0.4389 C   0  0  0  0  0  0  0  0  0  0  0  0
    6.8745   -0.7269   -1.6294 C   0  0  0  0  0  0  0  0  0  0  0  0
    5.5021   -0.3720   -1.3560 N   0  0  0  0  0  0  0  0  0  0  0  0
    4.4569   -1.1590   -1.8828 C   0  0  0  0  0  0  0  0  0  0  0  0
    4.6867   -2.1886   -2.6072 O   0  0  0  0  0  0  0  0  0  0  0  0
    3.0383   -0.8856   -1.6588 C   0  0  0  0  0  0  0  0  0  0  0  0
    2.2181   -1.7708   -1.0006 C   0  0  0  0  0  0  0  0  0  0  0  0
    0.8633   -1.4657   -0.8082 C   0  0  0  0  0  0  0  0  0  0  0  0
    0.2935   -0.2984   -1.2532 C   0  0  0  0  0  0  0  0  0  0  0  0
   -1.0571    0.0769   -1.0954 N   0  0  0  0  0  0  0  0  0  0  0  0
   -2.0723   -0.6454   -0.4462 C   0  0  0  0  0  0  0  0  0  0  0  0
   -1.8902   -1.8101    0.1772 N   0  0  0  0  0  0  0  0  0  0  0  0
   -2.8469   -2.5108    0.7950 C   0  0  0  0  0  0  0  0  0  0  0  0
   -4.1442   -2.0141    0.8070 C   0  0  0  0  0  0  0  0  0  0  0  0
   -5.3350   -2.4429    1.3244 C   0  0  0  0  0  0  0  0  0  0  0  0
   -6.3020   -1.4980    1.0052 C   0  0  0  0  0  0  0  0  0  0  0  0
   -7.7209   -1.5661    1.3719 C   0  0  0  0  0  0  0  0  0  0  0  0
   -8.4938   -2.2989    0.7189 O   0  0  0  0  0  0  0  0  0  0  0  0
   -8.1979   -0.7997    2.4623 N   0  0  0  0  0  0  0  0  0  0  0  0
   -7.2707    0.0536    3.2102 C   0  0  0  0  0  0  0  0  0  0  0  0
   -9.5665   -0.7965    2.9018 C   0  0  0  0  0  0  0  0  0  0  0  0
   -5.6738   -0.5405    0.3140 N   0  0  0  0  0  0  0  0  0  0  0  0
   -6.3217    0.6391   -0.2183 C   0  0  0  0  0  0  0  0  0  0  0  0
   -7.6750    0.3278   -0.8271 C   0  0  0  0  0  0  0  0  0  0  0  0
   -7.8714    1.3713   -1.9181 C   0  0  0  0  0  0  0  0  0  0  0  0
   -6.5096    1.8932   -2.2742 C   0  0  0  0  0  0  0  0  0  0  0  0
   -5.5134    1.2001   -1.3682 C   0  0  0  0  0  0  0  0  0  0  0  0
   -4.3568   -0.8137    0.1698 C   0  0  0  0  0  0  0  0  0  0  0  0
   -3.3500   -0.1595   -0.4328 N   0  0  0  0  0  0  0  0  0  0  0  0
    1.1493    0.5542   -1.9039 N   0  0  0  0  0  0  0  0  0  0  0  0
    2.4383    0.2765   -2.0938 C   0  0  0  0  0  0  0  0  0  0  0  0
    5.1976    0.7773   -0.5515 C   0  0  0  0  0  0  0  0  0  0  0  0
    8.3384    3.5913   -0.1457 H   0  0  0  0  0  0  0  0  0  0  0  0
    9.3270    3.4347    1.3131 H   0  0  0  0  0  0  0  0  0  0  0  0
    7.5076    3.2124    1.4095 H   0  0  0  0  0  0  0  0  0  0  0  0
    8.8993    1.0287    1.5005 H   0  0  0  0  0  0  0  0  0  0  0  0
    9.4917    1.5948   -1.4059 H   0  0  0  0  0  0  0  0  0  0  0  0
   10.5606    2.3406   -0.1976 H   0  0  0  0  0  0  0  0  0  0  0  0
   10.4357    0.5411   -0.2153 H   0  0  0  0  0  0  0  0  0  0  0  0
    6.0219    1.9122    1.0416 H   0  0  0  0  0  0  0  0  0  0  0  0
    6.4889    0.0628    2.4269 H   0  0  0  0  0  0  0  0  0  0  0  0
    5.2739   -0.7312    1.3677 H   0  0  0  0  0  0  0  0  0  0  0  0
    6.8542   -2.1206    0.4519 H   0  0  0  0  0  0  0  0  0  0  0  0
    8.1660   -1.3012    1.4498 H   0  0  0  0  0  0  0  0  0  0  0  0
    8.7899   -0.6426   -0.7254 H   0  0  0  0  0  0  0  0  0  0  0  0
    7.0050   -1.7450   -2.0202 H   0  0  0  0  0  0  0  0  0  0  0  0
    7.2131   -0.0293   -2.4483 H   0  0  0  0  0  0  0  0  0  0  0  0
    2.6443   -2.6903   -0.6442 H   0  0  0  0  0  0  0  0  0  0  0  0
    0.2404   -2.1872   -0.2862 H   0  0  0  0  0  0  0  0  0  0  0  0
   -1.3254    1.0175   -1.5201 H   0  0  0  0  0  0  0  0  0  0  0  0
   -2.6558   -3.4514    1.2875 H   0  0  0  0  0  0  0  0  0  0  0  0
   -5.4942   -3.3453    1.8769 H   0  0  0  0  0  0  0  0  0  0  0  0
   -7.2402   -0.3683    4.2412 H   0  0  0  0  0  0  0  0  0  0  0  0
   -6.2462    0.0151    2.7940 H   0  0  0  0  0  0  0  0  0  0  0  0
   -7.6198    1.0908    3.2660 H   0  0  0  0  0  0  0  0  0  0  0  0
  -10.2736   -1.1895    2.1411 H   0  0  0  0  0  0  0  0  0  0  0  0
   -9.9043    0.2318    3.1471 H   0  0  0  0  0  0  0  0  0  0  0  0
   -9.7181   -1.4250    3.8081 H   0  0  0  0  0  0  0  0  0  0  0  0
   -6.4300    1.3562    0.6190 H   0  0  0  0  0  0  0  0  0  0  0  0
   -7.6961   -0.6523   -1.3269 H   0  0  0  0  0  0  0  0  0  0  0  0
   -8.4339    0.3660   -0.0488 H   0  0  0  0  0  0  0  0  0  0  0  0
   -8.3373    0.9388   -2.8188 H   0  0  0  0  0  0  0  0  0  0  0  0
   -8.5412    2.1518   -1.5233 H   0  0  0  0  0  0  0  0  0  0  0  0
   -6.4558    2.9812   -2.0514 H   0  0  0  0  0  0  0  0  0  0  0  0
   -6.2386    1.7570   -3.3309 H   0  0  0  0  0  0  0  0  0  0  0  0
   -4.7205    1.8638   -0.9957 H   0  0  0  0  0  0  0  0  0  0  0  0
   -5.0678    0.3765   -1.9599 H   0  0  0  0  0  0  0  0  0  0  0  0
    3.1067    0.9759   -2.6208 H   0  0  0  0  0  0  0  0  0  0  0  0
    4.2399    0.6965   -0.0092 H   0  0  0  0  0  0  0  0  0  0  0  0
    5.1528    1.6948   -1.1862 H   0  0  0  0  0  0  0  0  0  0  0  0
  1  2  1  0
  2  3  1  0
  2  4  1  0
  4  5  1  0
  5  6  1  0
  6  7  1  0
  7  8  1  0
  8  9  1  0
  9 10  1  0
 10 11  1  0
 11 12  2  0
 11 13  1  0
 13 14  2  0
 14 15  1  0
 15 16  2  0
 16 17  1  0
 17 18  1  0
 18 19  2  0
 19 20  1  0
 20 21  2  0
 21 22  1  0
 22 23  2  0
 23 24  1  0
 24 25  2  0
 24 26  1  0
 26 27  1  0
 26 28  1  0
 23 29  1  0
 29 30  1  0
 30 31  1  0
 31 32  1  0
 32 33  1  0
 33 34  1  0
 29 35  1  0
 35 36  2  0
 16 37  1  0
 37 38  2  0
 10 39  1  0
  8  4  1  0
 38 13  1  0
 39  5  1  0
 36 18  1  0
 35 21  1  0
 34 30  1  0
  1 40  1  0
  1 41  1  0
  1 42  1  0
  2 43  1  0
  3 44  1  0
  3 45  1  0
  3 46  1  0
  5 47  1  0
  6 48  1  0
  6 49  1  0
  7 50  1  0
  7 51  1  0
  8 52  1  0
  9 53  1  0
  9 54  1  0
 14 55  1  0
 15 56  1  0
 17 57  1  0
 20 58  1  0
 22 59  1  0
 27 60  1  0
 27 61  1  0
 27 62  1  0
 28 63  1  0
 28 64  1  0
 28 65  1  0
 30 66  1  0
 31 67  1  0
 31 68  1  0
 32 69  1  0
 32 70  1  0
 33 71  1  0
 33 72  1  0
 34 73  1  0
 34 74  1  0
 38 75  1  0
 39 76  1  0
 39 77  1  0
M  END
$$$$
