@<TRIPOS>MOLECULE
*****
 77 82 0 0 0
SMALL
GASTEIGER

@<TRIPOS>ATOM
      1 C           8.4144    3.0176    0.8197 C.3     1  UNL1       -0.0497
      2 C           8.6504    1.5563    0.5583 C.3     1  UNL1        0.0054
      3 C           9.8768    1.4645   -0.3526 C.3     1  UNL1       -0.0497
      4 N           7.5513    0.9972   -0.1516 N.3     1  UNL1       -0.2911
      5 C           6.2870    1.0069    0.4997 C.3     1  UNL1        0.0268
      6 C           6.2668   -0.2313    1.3814 C.3     1  UNL1       -0.0344
      7 C           7.2837   -1.1502    0.7805 C.3     1  UNL1       -0.0344
      8 C           7.7620   -0.4208   -0.4389 C.3     1  UNL1        0.0268
      9 C           6.8745   -0.7269   -1.6294 C.3     1  UNL1        0.0307
     10 N           5.5021   -0.3720   -1.3560 N.am    1  UNL1       -0.2945
     11 C           4.4569   -1.1590   -1.8828 C.2     1  UNL1        0.2482
     12 O           4.6867   -2.1886   -2.6072 O.2     1  UNL1       -0.2699
     13 C           3.0383   -0.8856   -1.6588 C.ar    1  UNL1        0.0551
     14 C           2.2181   -1.7708   -1.0006 C.ar    1  UNL1       -0.0449
     15 C           0.8633   -1.4657   -0.8082 C.ar    1  UNL1       -0.0208
     16 C           0.2935   -0.2984   -1.2532 C.ar    1  UNL1        0.1250
     17 N          -1.0571    0.0769   -1.0954 N.pl3   1  UNL1       -0.2685
     18 C          -2.0723   -0.6454   -0.4462 C.ar    1  UNL1        0.2224
     19 N          -1.8902   -1.8101    0.1772 N.ar    1  UNL1       -0.2219
     20 C          -2.8469   -2.5108    0.7950 C.ar    1  UNL1        0.0419
     21 C          -4.1442   -2.0141    0.8070 C.ar    1  UNL1        0.0378
     22 C          -5.3350   -2.4429    1.3244 C.ar    1  UNL1       -0.0209
     23 C          -6.3020   -1.4980    1.0052 C.ar    1  UNL1        0.1070
     24 C          -7.7209   -1.5661    1.3719 C.2     1  UNL1        0.2627
     25 O          -8.4938   -2.2989    0.7189 O.2     1  UNL1       -0.2684
     26 N          -8.1979   -0.7997    2.4623 N.am    1  UNL1       -0.3024
     27 C          -7.2707    0.0536    3.2102 C.3     1  UNL1        0.0032
     28 C          -9.5665   -0.7965    2.9018 C.3     1  UNL1        0.0032
     29 N          -5.6738   -0.5405    0.3140 N.ar    1  UNL1       -0.3180
     30 C          -6.3217    0.6391   -0.2183 C.3     1  UNL1        0.0366
     31 C          -7.6750    0.3278   -0.8271 C.3     1  UNL1       -0.0320
     32 C          -7.8714    1.3713   -1.9181 C.3     1  UNL1       -0.0511
     33 C          -6.5096    1.8932   -2.2742 C.3     1  UNL1       -0.0511
     34 C          -5.5134    1.2001   -1.3682 C.3     1  UNL1       -0.0320
     35 C          -4.3568   -0.8137    0.1698 C.ar    1  UNL1        0.1466
     36 N          -3.3500   -0.1595   -0.4328 N.ar    1  UNL1       -0.1962
     37 N           1.1493    0.5542   -1.9039 N.ar    1  UNL1       -0.2394
     38 C           2.4383    0.2765   -2.0938 C.ar    1  UNL1        0.0418
     39 C           5.1976    0.7773   -0.5515 C.3     1  UNL1        0.0307
     40 H           8.3384    3.5913   -0.1457 H       1  UNL1        0.0245
     41 H           9.3270    3.4347    1.3131 H       1  UNL1        0.0245
     42 H           7.5076    3.2124    1.4095 H       1  UNL1        0.0245
     43 H           8.8993    1.0287    1.5005 H       1  UNL1        0.0457
     44 H           9.4917    1.5948   -1.4059 H       1  UNL1        0.0245
     45 H          10.5606    2.3406   -0.1976 H       1  UNL1        0.0245
     46 H          10.4357    0.5411   -0.2153 H       1  UNL1        0.0245
     47 H           6.0219    1.9122    1.0416 H       1  UNL1        0.0478
     48 H           6.4889    0.0628    2.4269 H       1  UNL1        0.0281
     49 H           5.2739   -0.7312    1.3677 H       1  UNL1        0.0281
     50 H           6.8542   -2.1206    0.4519 H       1  UNL1        0.0281
     51 H           8.1660   -1.3012    1.4498 H       1  UNL1        0.0281
     52 H           8.7899   -0.6426   -0.7254 H       1  UNL1        0.0478
     53 H           7.0050   -1.7450   -2.0202 H       1  UNL1        0.0480
     54 H           7.2131   -0.0293   -2.4483 H       1  UNL1        0.0480
     55 H           2.6443   -2.6903   -0.6442 H       1  UNL1        0.0627
     56 H           0.2404   -2.1872   -0.2862 H       1  UNL1        0.0652
     57 H          -1.3254    1.0175   -1.5201 H       1  UNL1        0.1564
     58 H          -2.6558   -3.4514    1.2875 H       1  UNL1        0.0838
     59 H          -5.4942   -3.3453    1.8769 H       1  UNL1        0.0647
     60 H          -7.2402   -0.3683    4.2412 H       1  UNL1        0.0428
     61 H          -6.2462    0.0151    2.7940 H       1  UNL1        0.0428
     62 H          -7.6198    1.0908    3.2660 H       1  UNL1        0.0428
     63 H         -10.2736   -1.1895    2.1411 H       1  UNL1        0.0428
     64 H          -9.9043    0.2318    3.1471 H       1  UNL1        0.0428
     65 H          -9.7181   -1.4250    3.8081 H       1  UNL1        0.0428
     66 H          -6.4300    1.3562    0.6190 H       1  UNL1        0.0528
     67 H          -7.6961   -0.6523   -1.3269 H       1  UNL1        0.0285
     68 H          -8.4339    0.3660   -0.0488 H       1  UNL1        0.0285
     69 H          -8.3373    0.9388   -2.8188 H       1  UNL1        0.0266
     70 H          -8.5412    2.1518   -1.5233 H       1  UNL1        0.0266
     71 H          -6.4558    2.9812   -2.0514 H       1  UNL1        0.0266
     72 H          -6.2386    1.7570   -3.3309 H       1  UNL1        0.0266
     73 H          -4.7205    1.8638   -0.9957 H       1  UNL1        0.0285
     74 H          -5.0678    0.3765   -1.9599 H       1  UNL1        0.0285
     75 H           3.1067    0.9759   -2.6208 H       1  UNL1        0.0838
     76 H           4.2399    0.6965   -0.0092 H       1  UNL1        0.0480
     77 H           5.1528    1.6948   -1.1862 H       1  UNL1        0.0480
@<TRIPOS>BOND
     1     1     2    1
     2     2     3    1
     3     2     4    1
     4     4     5    1
     5     5     6    1
     6     6     7    1
     7     7     8    1
     8     8     9    1
     9     9    10    1
    10    10    11   am
    11    11    12    2
    12    11    13    1
    13    13    14   ar
    14    14    15   ar
    15    15    16   ar
    16    16    17    1
    17    17    18    1
    18    18    19   ar
    19    19    20   ar
    20    20    21   ar
    21    21    22   ar
    22    22    23   ar
    23    23    24    1
    24    24    25    2
    25    24    26   am
    26    26    27    1
    27    26    28    1
    28    23    29   ar
    29    29    30    1
    30    30    31    1
    31    31    32    1
    32    32    33    1
    33    33    34    1
    34    29    35   ar
    35    35    36   ar
    36    16    37   ar
    37    37    38   ar
    38    10    39    1
    39     8     4    1
    40    38    13   ar
    41    39     5    1
    42    36    18   ar
    43    35    21   ar
    44    34    30    1
    45     1    40    1
    46     1    41    1
    47     1    42    1
    48     2    43    1
    49     3    44    1
    50     3    45    1
    51     3    46    1
    52     5    47    1
    53     6    48    1
    54     6    49    1
    55     7    50    1
    56     7    51    1
    57     8    52    1
    58     9    53    1
    59     9    54    1
    60    14    55    1
    61    15    56    1
    62    17    57    1
    63    20    58    1
    64    22    59    1
    65    27    60    1
    66    27    61    1
    67    27    62    1
    68    28    63    1
    69    28    64    1
    70    28    65    1
    71    30    66    1
    72    31    67    1
    73    31    68    1
    74    32    69    1
    75    32    70    1
    76    33    71    1
    77    33    72    1
    78    34    73    1
    79    34    74    1
    80    38    75    1
    81    39    76    1
    82    39    77    1
