@<TRIPOS>MOLECULE
*****
 53 55 0 0 0
SMALL
GASTEIGER

@<TRIPOS>ATOM
      1 C           9.2418   -0.9806   -0.2439 C.3     1  UNL1        0.0788
      2 O           8.5899    0.2522   -0.3263 O.3     1  UNL1       -0.4951
      3 C           7.1988    0.2642   -0.4501 C.ar    1  UNL1        0.1201
      4 C           6.4608   -0.9001   -0.4928 C.ar    1  UNL1       -0.0194
      5 C           5.0868   -0.8831   -0.6152 C.ar    1  UNL1       -0.0506
      6 C           4.3877    0.3053   -0.7006 C.ar    1  UNL1       -0.0177
      7 C           2.9273    0.3324   -0.8308 C.ar    1  UNL1       -0.0178
      8 C           2.3056    1.3463   -1.5196 C.ar    1  UNL1       -0.0522
      9 C           0.9314    1.3747   -1.6441 C.ar    1  UNL1       -0.0348
     10 C           0.1379    0.3950   -1.0865 C.ar    1  UNL1        0.1053
     11 S          -1.6294    0.4308   -1.2447 S.O2    1  UNL1        0.0591
     12 O          -2.0494   -1.0307   -1.1640 O.2     1  UNL1       -0.1530
     13 O          -2.0382    0.9344   -2.5899 O.2     1  UNL1       -0.1530
     14 N          -2.3376    1.2882    0.0488 N.3     1  UNL1       -0.1759
     15 C          -3.1130    0.3913    0.9034 C.3     1  UNL1        0.1281
     16 C          -2.4523    0.2935    2.2441 C.2     1  UNL1        0.3238
     17 O          -1.4051    0.9873    2.4790 O.2     1  UNL1       -0.2492
     18 O          -2.8927   -0.5060    3.2708 O.3     1  UNL1       -0.4795
     19 C          -4.4994    0.9331    0.9578 C.3     1  UNL1       -0.0137
     20 C          -5.1364    1.0032   -0.3950 C.3     1  UNL1       -0.0482
     21 C          -5.5542   -0.3116   -0.9386 C.3     1  UNL1       -0.0527
     22 C          -6.2298   -1.2452    0.0078 C.3     1  UNL1       -0.0530
     23 C          -5.6605   -1.2291    1.4118 C.3     1  UNL1       -0.0527
     24 C          -5.4177    0.1973    1.8736 C.3     1  UNL1       -0.0482
     25 C           0.7785   -0.6120   -0.4006 C.ar    1  UNL1       -0.0348
     26 C           2.1366   -0.6491   -0.2719 C.ar    1  UNL1       -0.0522
     27 C           5.1290    1.4684   -0.6577 C.ar    1  UNL1       -0.0506
     28 C           6.5040    1.4523   -0.5352 C.ar    1  UNL1       -0.0194
     29 H           8.9224   -1.6940   -1.0391 H       1  UNL1        0.0660
     30 H          10.3394   -0.7931   -0.3624 H       1  UNL1        0.0660
     31 H           9.0987   -1.4681    0.7322 H       1  UNL1        0.0660
     32 H           6.9804   -1.8310   -0.4283 H       1  UNL1        0.0654
     33 H           4.4961   -1.7945   -0.6496 H       1  UNL1        0.0625
     34 H           2.8913    2.1513   -1.9829 H       1  UNL1        0.0624
     35 H           0.4209    2.1723   -2.1876 H       1  UNL1        0.0637
     36 H          -1.6740    1.8593    0.5925 H       1  UNL1        0.1489
     37 H          -3.0777   -0.6058    0.4755 H       1  UNL1        0.0595
     38 H          -2.3114   -0.8501    4.0235 H       1  UNL1        0.2951
     39 H          -4.4561    1.9905    1.3325 H       1  UNL1        0.0322
     40 H          -6.0295    1.6582   -0.3312 H       1  UNL1        0.0269
     41 H          -4.4056    1.4535   -1.1017 H       1  UNL1        0.0269
     42 H          -4.7389   -0.8384   -1.4967 H       1  UNL1        0.0265
     43 H          -6.3215   -0.0961   -1.7509 H       1  UNL1        0.0265
     44 H          -7.3384   -1.1418    0.0260 H       1  UNL1        0.0265
     45 H          -6.0531   -2.2937   -0.3727 H       1  UNL1        0.0265
     46 H          -4.7565   -1.8410    1.5248 H       1  UNL1        0.0265
     47 H          -6.4380   -1.6514    2.0814 H       1  UNL1        0.0265
     48 H          -5.0267    0.1804    2.8821 H       1  UNL1        0.0269
     49 H          -6.4039    0.7312    1.8616 H       1  UNL1        0.0269
     50 H           0.1716   -1.3892    0.0435 H       1  UNL1        0.0637
     51 H           2.6524   -1.4360    0.2653 H       1  UNL1        0.0624
     52 H           4.5774    2.4066   -0.7251 H       1  UNL1        0.0625
     53 H           7.0800    2.3814   -0.5023 H       1  UNL1        0.0654
@<TRIPOS>BOND
     1     1     2    1
     2     2     3    1
     3     3     4   ar
     4     4     5   ar
     5     5     6   ar
     6     6     7    1
     7     7     8   ar
     8     8     9   ar
     9     9    10   ar
    10    10    11    1
    11    11    12    2
    12    11    13    2
    13    11    14    1
    14    14    15    1
    15    15    16    1
    16    16    17    2
    17    16    18    1
    18    15    19    1
    19    19    20    1
    20    20    21    1
    21    21    22    1
    22    22    23    1
    23    23    24    1
    24    10    25   ar
    25    25    26   ar
    26     6    27   ar
    27    27    28   ar
    28    28     3   ar
    29    26     7   ar
    30    24    19    1
    31     1    29    1
    32     1    30    1
    33     1    31    1
    34     4    32    1
    35     5    33    1
    36     8    34    1
    37     9    35    1
    38    14    36    1
    39    15    37    1
    40    18    38    1
    41    19    39    1
    42    20    40    1
    43    20    41    1
    44    21    42    1
    45    21    43    1
    46    22    44    1
    47    22    45    1
    48    23    46    1
    49    23    47    1
    50    24    48    1
    51    24    49    1
    52    25    50    1
    53    26    51    1
    54    27    52    1
    55    28    53    1
