
     RDKit          3D

 36 35  0  0  0  0  0  0  0  0999 V2000
    4.6701    0.6232   -0.1580 C   0  0  2  0  0  0  0  0  0  0  0  0
    4.5925    1.2475   -1.3925 O   0  0  0  0  0  0  0  0  0  0  0  0
    4.9764   -0.8390   -0.3472 C   0  0  0  0  0  0  0  0  0  0  0  0
    5.0587   -1.4866    0.8896 O   0  0  0  0  0  0  0  0  0  0  0  0
    3.3741    0.7532    0.6133 C   0  0  0  0  0  0  0  0  0  0  0  0
    2.3085    0.1669   -0.0980 O   0  0  0  0  0  0  0  0  0  0  0  0
    0.9420    0.3850    0.8741 P   0  0  0  0  0  0  0  0  0  0  0  0
    0.8827   -0.9658    1.9166 O   0  0  0  0  0  1  0  0  0  0  0  0
    1.0966    1.6586    1.6543 O   0  0  0  0  0  0  0  0  0  0  0  0
   -0.4890    0.4481   -0.0345 O   0  0  0  0  0  0  0  0  0  0  0  0
   -1.1646   -0.7623    0.1116 C   0  0  0  0  0  0  0  0  0  0  0  0
   -2.4544   -0.7756   -0.6736 C   0  0  0  0  0  0  0  0  0  0  0  0
   -3.3945    0.2311   -0.3048 N   0  0  0  0  0  4  0  0  0  0  0  0
   -4.5590   -0.3377    0.3910 C   0  0  0  0  0  0  0  0  0  0  0  0
   -3.9108    0.8460   -1.5141 C   0  0  0  0  0  0  0  0  0  0  0  0
   -2.8460    1.2356    0.5809 C   0  0  0  0  0  0  0  0  0  0  0  0
    5.4663    1.0894    0.4332 H   0  0  0  0  0  0  0  0  0  0  0  0
    5.0994    0.6903   -2.0522 H   0  0  0  0  0  0  0  0  0  0  0  0
    5.9041   -0.9715   -0.9051 H   0  0  0  0  0  0  0  0  0  0  0  0
    4.1334   -1.3064   -0.9102 H   0  0  0  0  0  0  0  0  0  0  0  0
    5.5407   -0.9130    1.5445 H   0  0  0  0  0  0  0  0  0  0  0  0
    3.1261    1.8196    0.7949 H   0  0  0  0  0  0  0  0  0  0  0  0
    3.4342    0.1980    1.5710 H   0  0  0  0  0  0  0  0  0  0  0  0
   -1.2479   -1.0882    1.1469 H   0  0  0  0  0  0  0  0  0  0  0  0
   -0.5035   -1.5146   -0.4098 H   0  0  0  0  0  0  0  0  0  0  0  0
   -2.1535   -0.6601   -1.7519 H   0  0  0  0  0  0  0  0  0  0  0  0
   -2.9311   -1.7631   -0.5720 H   0  0  0  0  0  0  0  0  0  0  0  0
   -4.7887   -1.2851   -0.0996 H   0  0  0  0  0  0  0  0  0  0  0  0
   -5.4268    0.3383    0.2412 H   0  0  0  0  0  0  0  0  0  0  0  0
   -4.3647   -0.4118    1.4794 H   0  0  0  0  0  0  0  0  0  0  0  0
   -3.2346    1.6146   -1.8906 H   0  0  0  0  0  0  0  0  0  0  0  0
   -3.9578    0.0162   -2.2771 H   0  0  0  0  0  0  0  0  0  0  0  0
   -4.9598    1.1866   -1.3958 H   0  0  0  0  0  0  0  0  0  0  0  0
   -2.3034    0.7379    1.4101 H   0  0  0  0  0  0  0  0  0  0  0  0
   -2.2352    1.9986    0.0655 H   0  0  0  0  0  0  0  0  0  0  0  0
   -3.6805    1.7964    1.0687 H   0  0  0  0  0  0  0  0  0  0  0  0
  1  2  1  0
  1  3  1  0
  3  4  1  0
  1  5  1  0
  5  6  1  0
  6  7  1  0
  7  8  1  0
  7  9  2  0
  7 10  1  0
 10 11  1  0
 11 12  1  0
 12 13  1  0
 13 14  1  0
 13 15  1  0
 13 16  1  0
  1 17  1  1
  2 18  1  0
  3 19  1  0
  3 20  1  0
  4 21  1  0
  5 22  1  0
  5 23  1  0
 11 24  1  0
 11 25  1  0
 12 26  1  0
 12 27  1  0
 14 28  1  0
 14 29  1  0
 14 30  1  0
 15 31  1  0
 15 32  1  0
 15 33  1  0
 16 34  1  0
 16 35  1  0
 16 36  1  0
M  CHG  2   8  -1  13   1
M  END
$$$$
