@<TRIPOS>MOLECULE
*****
 62 65 0 0 0
SMALL
GASTEIGER

@<TRIPOS>ATOM
      1 C           4.7105    3.0202    2.0559 C.3     1  UNL1        0.0333
      2 C           4.4188    1.9178    1.0790 C.2     1  UNL1        0.3049
      3 O           5.2379    1.6430    0.1666 O.2     1  UNL1       -0.2511
      4 O           3.2552    1.1716    1.1425 O.3     1  UNL1       -0.4500
      5 C           3.0329    0.1319    0.1816 C.3     1  UNL1        0.1758
      6 C           4.0870   -0.8867    0.2458 C.2     1  UNL1        0.1741
      7 C           4.3504   -2.0003   -0.6614 C.3     1  UNL1       -0.0020
      8 O           4.8745   -0.7855    1.2091 O.2     1  UNL1       -0.2934
      9 C           3.0647    0.6885   -1.2476 C.3     1  UNL1       -0.0050
     10 C           1.7675    0.1288   -1.8650 C.3     1  UNL1       -0.0453
     11 C           0.8810    0.2665   -0.7126 C.3     1  UNL1       -0.0283
     12 C          -0.4655   -0.3093   -0.7014 C.3     1  UNL1       -0.0334
     13 C          -1.2277   -0.1571   -1.9947 C.3     1  UNL1       -0.0433
     14 C          -2.4564   -1.0534   -1.8173 C.3     1  UNL1       -0.0215
     15 C          -3.2227   -1.1617   -3.0892 C.3     1  UNL1       -0.0587
     16 C          -3.2318   -0.4366   -0.7116 C.2     1  UNL1       -0.0572
     17 C          -4.5390   -0.3476   -0.8850 C.2     1  UNL1       -0.0192
     18 C          -5.4141    0.2445    0.1394 C.2     1  UNL1        0.1561
     19 O          -6.6058   -0.0675    0.2535 O.2     1  UNL1       -0.2927
     20 C          -4.8178    1.2348    1.0376 C.3     1  UNL1        0.0107
     21 C          -3.3338    1.3703    0.8857 C.3     1  UNL1       -0.0366
     22 C          -2.6486    0.0660    0.5317 C.3     1  UNL1       -0.0069
     23 C          -3.0107   -0.9137    1.6401 C.3     1  UNL1       -0.0555
     24 C          -1.1783    0.3356    0.4803 C.3     1  UNL1       -0.0288
     25 C          -0.4439   -0.0508    1.7221 C.3     1  UNL1       -0.0485
     26 C           1.0133    0.2605    1.6642 C.3     1  UNL1       -0.0430
     27 C           1.6581   -0.3679    0.4393 C.3     1  UNL1        0.0179
     28 C           1.6089   -1.8399    0.4898 C.3     1  UNL1       -0.0552
     29 H           4.1859    2.8571    3.0095 H       1  UNL1        0.0342
     30 H           4.5331    4.0085    1.6022 H       1  UNL1        0.0342
     31 H           5.8113    2.9158    2.2778 H       1  UNL1        0.0342
     32 H           3.6000   -2.2396   -1.4052 H       1  UNL1        0.0307
     33 H           4.5344   -2.9391   -0.0605 H       1  UNL1        0.0307
     34 H           5.3609   -1.8053   -1.1227 H       1  UNL1        0.0307
     35 H           2.9118    1.7755   -1.1605 H       1  UNL1        0.0308
     36 H           3.9467    0.3786   -1.7988 H       1  UNL1        0.0308
     37 H           1.8943   -0.8494   -2.3131 H       1  UNL1        0.0270
     38 H           1.4554    0.8098   -2.7133 H       1  UNL1        0.0270
     39 H           0.7980    1.3543   -0.4632 H       1  UNL1        0.0310
     40 H          -0.4160   -1.4045   -0.4850 H       1  UNL1        0.0307
     41 H          -0.5847   -0.5055   -2.8026 H       1  UNL1        0.0274
     42 H          -1.5304    0.8889   -2.1798 H       1  UNL1        0.0274
     43 H          -2.0716   -2.0339   -1.4695 H       1  UNL1        0.0343
     44 H          -3.7016   -0.1667   -3.2924 H       1  UNL1        0.0235
     45 H          -3.9455   -1.9851   -3.0292 H       1  UNL1        0.0235
     46 H          -2.5070   -1.4276   -3.8966 H       1  UNL1        0.0235
     47 H          -4.9920   -0.7246   -1.8168 H       1  UNL1        0.0652
     48 H          -5.1217    0.9728    2.0853 H       1  UNL1        0.0345
     49 H          -5.2736    2.2260    0.8204 H       1  UNL1        0.0345
     50 H          -3.0282    2.1477    0.1704 H       1  UNL1        0.0278
     51 H          -2.9264    1.6702    1.8835 H       1  UNL1        0.0278
     52 H          -2.4236   -1.8500    1.5767 H       1  UNL1        0.0238
     53 H          -2.8300   -0.4899    2.6492 H       1  UNL1        0.0238
     54 H          -4.0723   -1.2198    1.5797 H       1  UNL1        0.0238
     55 H          -0.9836    1.4434    0.3435 H       1  UNL1        0.0312
     56 H          -0.8470    0.5729    2.5830 H       1  UNL1        0.0268
     57 H          -0.5878   -1.0990    2.0327 H       1  UNL1        0.0268
     58 H           1.1041    1.3743    1.5035 H       1  UNL1        0.0272
     59 H           1.5339    0.0442    2.5924 H       1  UNL1        0.0272
     60 H           1.4688   -2.3346   -0.4743 H       1  UNL1        0.0237
     61 H           2.5412   -2.2182    0.9516 H       1  UNL1        0.0237
     62 H           0.7986   -2.2491    1.1437 H       1  UNL1        0.0237
@<TRIPOS>BOND
     1     1     2    1
     2     2     3    2
     3     2     4    1
     4     5     4    1
     5     5     6    1
     6     6     7    1
     7     6     8    2
     8     5     9    1
     9     9    10    1
    10    10    11    1
    11    11    12    1
    12    12    13    1
    13    13    14    1
    14    14    15    1
    15    14    16    1
    16    16    17    2
    17    17    18    1
    18    18    19    2
    19    18    20    1
    20    20    21    1
    21    21    22    1
    22    22    23    1
    23    22    24    1
    24    24    25    1
    25    25    26    1
    26    26    27    1
    27    27    28    1
    28    27     5    1
    29    27    11    1
    30    24    12    1
    31    22    16    1
    32     1    29    1
    33     1    30    1
    34     1    31    1
    35     7    32    1
    36     7    33    1
    37     7    34    1
    38     9    35    1
    39     9    36    1
    40    10    37    1
    41    10    38    1
    42    11    39    1
    43    12    40    1
    44    13    41    1
    45    13    42    1
    46    14    43    1
    47    15    44    1
    48    15    45    1
    49    15    46    1
    50    17    47    1
    51    20    48    1
    52    20    49    1
    53    21    50    1
    54    21    51    1
    55    23    52    1
    56    23    53    1
    57    23    54    1
    58    24    55    1
    59    25    56    1
    60    25    57    1
    61    26    58    1
    62    26    59    1
    63    28    60    1
    64    28    61    1
    65    28    62    1
