
     RDKit          3D

 62 65  0  0  0  0  0  0  0  0999 V2000
    4.7105    3.0202    2.0559 C   0  0  0  0  0  0  0  0  0  0  0  0
    4.4188    1.9178    1.0790 C   0  0  0  0  0  0  0  0  0  0  0  0
    5.2379    1.6430    0.1666 O   0  0  0  0  0  0  0  0  0  0  0  0
    3.2552    1.1716    1.1425 O   0  0  0  0  0  0  0  0  0  0  0  0
    3.0329    0.1319    0.1816 C   0  0  2  0  0  0  0  0  0  0  0  0
    4.0870   -0.8867    0.2458 C   0  0  0  0  0  0  0  0  0  0  0  0
    4.3504   -2.0003   -0.6614 C   0  0  0  0  0  0  0  0  0  0  0  0
    4.8745   -0.7855    1.2091 O   0  0  0  0  0  0  0  0  0  0  0  0
    3.0647    0.6885   -1.2476 C   0  0  0  0  0  0  0  0  0  0  0  0
    1.7675    0.1288   -1.8650 C   0  0  0  0  0  0  0  0  0  0  0  0
    0.8810    0.2665   -0.7126 C   0  0  1  0  0  0  0  0  0  0  0  0
   -0.4655   -0.3093   -0.7014 C   0  0  2  0  0  0  0  0  0  0  0  0
   -1.2277   -0.1571   -1.9947 C   0  0  0  0  0  0  0  0  0  0  0  0
   -2.4564   -1.0534   -1.8173 C   0  0  2  0  0  0  0  0  0  0  0  0
   -3.2227   -1.1617   -3.0892 C   0  0  0  0  0  0  0  0  0  0  0  0
   -3.2318   -0.4366   -0.7116 C   0  0  0  0  0  0  0  0  0  0  0  0
   -4.5390   -0.3476   -0.8850 C   0  0  0  0  0  0  0  0  0  0  0  0
   -5.4141    0.2445    0.1394 C   0  0  0  0  0  0  0  0  0  0  0  0
   -6.6058   -0.0675    0.2535 O   0  0  0  0  0  0  0  0  0  0  0  0
   -4.8178    1.2348    1.0376 C   0  0  0  0  0  0  0  0  0  0  0  0
   -3.3338    1.3703    0.8857 C   0  0  0  0  0  0  0  0  0  0  0  0
   -2.6486    0.0660    0.5317 C   0  0  1  0  0  0  0  0  0  0  0  0
   -3.0107   -0.9137    1.6401 C   0  0  0  0  0  0  0  0  0  0  0  0
   -1.1783    0.3356    0.4803 C   0  0  1  0  0  0  0  0  0  0  0  0
   -0.4439   -0.0508    1.7221 C   0  0  0  0  0  0  0  0  0  0  0  0
    1.0133    0.2605    1.6642 C   0  0  0  0  0  0  0  0  0  0  0  0
    1.6581   -0.3679    0.4393 C   0  0  2  0  0  0  0  0  0  0  0  0
    1.6089   -1.8399    0.4898 C   0  0  0  0  0  0  0  0  0  0  0  0
    4.1859    2.8571    3.0095 H   0  0  0  0  0  0  0  0  0  0  0  0
    4.5331    4.0085    1.6022 H   0  0  0  0  0  0  0  0  0  0  0  0
    5.8113    2.9158    2.2778 H   0  0  0  0  0  0  0  0  0  0  0  0
    3.6000   -2.2396   -1.4052 H   0  0  0  0  0  0  0  0  0  0  0  0
    4.5344   -2.9391   -0.0605 H   0  0  0  0  0  0  0  0  0  0  0  0
    5.3609   -1.8053   -1.1227 H   0  0  0  0  0  0  0  0  0  0  0  0
    2.9118    1.7755   -1.1605 H   0  0  0  0  0  0  0  0  0  0  0  0
    3.9467    0.3786   -1.7988 H   0  0  0  0  0  0  0  0  0  0  0  0
    1.8943   -0.8494   -2.3131 H   0  0  0  0  0  0  0  0  0  0  0  0
    1.4554    0.8098   -2.7133 H   0  0  0  0  0  0  0  0  0  0  0  0
    0.7980    1.3543   -0.4632 H   0  0  0  0  0  0  0  0  0  0  0  0
   -0.4160   -1.4045   -0.4850 H   0  0  0  0  0  0  0  0  0  0  0  0
   -0.5847   -0.5055   -2.8026 H   0  0  0  0  0  0  0  0  0  0  0  0
   -1.5304    0.8889   -2.1798 H   0  0  0  0  0  0  0  0  0  0  0  0
   -2.0716   -2.0339   -1.4695 H   0  0  0  0  0  0  0  0  0  0  0  0
   -3.7016   -0.1667   -3.2924 H   0  0  0  0  0  0  0  0  0  0  0  0
   -3.9455   -1.9851   -3.0292 H   0  0  0  0  0  0  0  0  0  0  0  0
   -2.5070   -1.4276   -3.8966 H   0  0  0  0  0  0  0  0  0  0  0  0
   -4.9920   -0.7246   -1.8168 H   0  0  0  0  0  0  0  0  0  0  0  0
   -5.1217    0.9728    2.0853 H   0  0  0  0  0  0  0  0  0  0  0  0
   -5.2736    2.2260    0.8204 H   0  0  0  0  0  0  0  0  0  0  0  0
   -3.0282    2.1477    0.1704 H   0  0  0  0  0  0  0  0  0  0  0  0
   -2.9264    1.6702    1.8835 H   0  0  0  0  0  0  0  0  0  0  0  0
   -2.4236   -1.8500    1.5767 H   0  0  0  0  0  0  0  0  0  0  0  0
   -2.8300   -0.4899    2.6492 H   0  0  0  0  0  0  0  0  0  0  0  0
   -4.0723   -1.2198    1.5797 H   0  0  0  0  0  0  0  0  0  0  0  0
   -0.9836    1.4434    0.3435 H   0  0  0  0  0  0  0  0  0  0  0  0
   -0.8470    0.5729    2.5830 H   0  0  0  0  0  0  0  0  0  0  0  0
   -0.5878   -1.0990    2.0327 H   0  0  0  0  0  0  0  0  0  0  0  0
    1.1041    1.3743    1.5035 H   0  0  0  0  0  0  0  0  0  0  0  0
    1.5339    0.0442    2.5924 H   0  0  0  0  0  0  0  0  0  0  0  0
    1.4688   -2.3346   -0.4743 H   0  0  0  0  0  0  0  0  0  0  0  0
    2.5412   -2.2182    0.9516 H   0  0  0  0  0  0  0  0  0  0  0  0
    0.7986   -2.2491    1.1437 H   0  0  0  0  0  0  0  0  0  0  0  0
  1  2  1  0
  2  3  2  0
  2  4  1  0
  5  4  1  1
  5  6  1  0
  6  7  1  0
  6  8  2  0
  5  9  1  0
  9 10  1  0
 10 11  1  0
 11 12  1  0
 12 13  1  0
 13 14  1  0
 14 15  1  0
 14 16  1  0
 16 17  2  0
 17 18  1  0
 18 19  2  0
 18 20  1  0
 20 21  1  0
 21 22  1  0
 22 23  1  1
 22 24  1  0
 24 25  1  0
 25 26  1  0
 26 27  1  0
 27 28  1  1
 27  5  1  0
 27 11  1  0
 24 12  1  0
 22 16  1  0
  1 29  1  0
  1 30  1  0
  1 31  1  0
  7 32  1  0
  7 33  1  0
  7 34  1  0
  9 35  1  0
  9 36  1  0
 10 37  1  0
 10 38  1  0
 11 39  1  1
 12 40  1  1
 13 41  1  0
 13 42  1  0
 14 43  1  1
 15 44  1  0
 15 45  1  0
 15 46  1  0
 17 47  1  0
 20 48  1  0
 20 49  1  0
 21 50  1  0
 21 51  1  0
 23 52  1  0
 23 53  1  0
 23 54  1  0
 24 55  1  6
 25 56  1  0
 25 57  1  0
 26 58  1  0
 26 59  1  0
 28 60  1  0
 28 61  1  0
 28 62  1  0
M  END
$$$$
