
     RDKit          3D

 43 46  0  0  0  0  0  0  0  0999 V2000
   -3.0958    1.9171    0.8406 C   0  0  0  0  0  0  0  0  0  0  0  0
   -3.8723    1.6504   -0.3779 N   0  0  0  0  0  0  0  0  0  0  0  0
   -4.5054    2.5652   -1.0760 N   0  0  0  0  0  0  0  0  0  0  0  0
   -5.1343    2.0263   -2.1246 C   0  0  0  0  0  0  0  0  0  0  0  0
   -4.8854    0.6857   -2.0909 C   0  0  0  0  0  0  0  0  0  0  0  0
   -4.0757    0.4636   -0.9663 C   0  0  0  0  0  0  0  0  0  0  0  0
   -3.5760   -0.8414   -0.5358 C   0  0  0  0  0  0  0  0  0  0  0  0
   -4.4618   -1.8944   -0.4601 C   0  0  0  0  0  0  0  0  0  0  0  0
   -4.0635   -3.1618   -0.0721 C   0  0  0  0  0  0  0  0  0  0  0  0
   -5.1940   -4.5061    0.0248 Cl  0  0  0  0  0  0  0  0  0  0  0  0
   -2.7527   -3.4023    0.2517 C   0  0  0  0  0  0  0  0  0  0  0  0
   -1.8469   -2.3647    0.1834 C   0  0  0  0  0  0  0  0  0  0  0  0
   -2.2623   -1.0829   -0.2114 C   0  0  0  0  0  0  0  0  0  0  0  0
   -1.3831   -0.0385   -0.2871 O   0  0  0  0  0  0  0  0  0  0  0  0
   -0.0218   -0.1064    0.0400 C   0  0  0  0  0  0  0  0  0  0  0  0
    0.9567    0.1315   -0.8885 C   0  0  0  0  0  0  0  0  0  0  0  0
    2.2859    0.0610   -0.5477 C   0  0  0  0  0  0  0  0  0  0  0  0
    3.2357    0.3005   -1.4800 F   0  0  0  0  0  0  0  0  0  0  0  0
    2.6291   -0.2535    0.7456 C   0  0  0  0  0  0  0  0  0  0  0  0
    4.3511   -0.3392    1.1578 S   0  0  0  0  0  6  0  0  0  0  0  0
    4.9365   -1.3945    0.2663 O   0  0  0  0  0  0  0  0  0  0  0  0
    4.4699   -0.7460    2.6001 O   0  0  0  0  0  0  0  0  0  0  0  0
    5.1296    1.1628    0.8715 N   0  0  0  0  0  0  0  0  0  0  0  0
    6.0530    1.2722   -0.1975 C   0  0  0  0  0  0  0  0  0  0  0  0
    6.7908    2.2117   -0.6868 N   0  0  0  0  0  0  0  0  0  0  0  0
    7.5590    2.1501   -1.6293 C   0  0  0  0  0  0  0  0  0  0  0  0
    7.6654    0.8410   -2.3012 N   0  0  0  0  0  0  0  0  0  0  0  0
    6.4795   -0.1313   -1.2906 S   0  0  0  0  0  0  0  0  0  0  0  0
    1.6698   -0.4973    1.6998 C   0  0  0  0  0  0  0  0  0  0  0  0
    0.3463   -0.4206    1.3352 C   0  0  0  0  0  0  0  0  0  0  0  0
   -0.6445   -0.6414    2.2494 F   0  0  0  0  0  0  0  0  0  0  0  0
   -3.7140    2.7012    1.3812 H   0  0  0  0  0  0  0  0  0  0  0  0
   -2.1430    2.4062    0.6464 H   0  0  0  0  0  0  0  0  0  0  0  0
   -3.0787    1.0682    1.5311 H   0  0  0  0  0  0  0  0  0  0  0  0
   -5.7356    2.5114   -2.8815 H   0  0  0  0  0  0  0  0  0  0  0  0
   -5.2228   -0.1014   -2.7756 H   0  0  0  0  0  0  0  0  0  0  0  0
   -5.5004   -1.7351   -0.7093 H   0  0  0  0  0  0  0  0  0  0  0  0
   -2.4033   -4.3979    0.5641 H   0  0  0  0  0  0  0  0  0  0  0  0
   -0.8111   -2.5721    0.4356 H   0  0  0  0  0  0  0  0  0  0  0  0
    0.7121    0.3783   -1.9026 H   0  0  0  0  0  0  0  0  0  0  0  0
    4.9361    1.9944    1.4683 H   0  0  0  0  0  0  0  0  0  0  0  0
    8.2250    2.8755   -2.1221 H   0  0  0  0  0  0  0  0  0  0  0  0
    1.9532   -0.7456    2.7215 H   0  0  0  0  0  0  0  0  0  0  0  0
  1  2  1  0
  2  3  1  0
  3  4  2  0
  4  5  1  0
  5  6  2  0
  6  7  1  0
  7  8  2  0
  8  9  1  0
  9 10  1  0
  9 11  2  0
 11 12  1  0
 12 13  2  0
 13 14  1  0
 14 15  1  0
 15 16  2  0
 16 17  1  0
 17 18  1  0
 17 19  2  0
 19 20  1  0
 20 21  2  0
 20 22  2  0
 20 23  1  0
 23 24  1  0
 24 25  2  0
 25 26  1  0
 26 27  2  0
 27 28  1  0
 19 29  1  0
 29 30  2  0
 30 31  1  0
  6  2  1  0
 13  7  1  0
 30 15  1  0
 28 24  1  0
  1 32  1  0
  1 33  1  0
  1 34  1  0
  4 35  1  0
  5 36  1  0
  8 37  1  0
 11 38  1  0
 12 39  1  0
 16 40  1  0
 23 41  1  0
 26 42  1  0
 29 43  1  0
M  END
$$$$
