@<TRIPOS>MOLECULE
*****
 43 46 0 0 0
SMALL
GASTEIGER

@<TRIPOS>ATOM
      1 C          -3.0958    1.9171    0.8406 C.3     1  UNL1        0.0309
      2 N          -3.8723    1.6504   -0.3779 N.ar    1  UNL1       -0.2667
      3 N          -4.5054    2.5652   -1.0760 N.ar    1  UNL1       -0.1793
      4 C          -5.1343    2.0263   -2.1246 C.ar    1  UNL1        0.0500
      5 C          -4.8854    0.6857   -2.0909 C.ar    1  UNL1       -0.0162
      6 C          -4.0757    0.4636   -0.9663 C.ar    1  UNL1        0.0721
      7 C          -3.5760   -0.8414   -0.5358 C.ar    1  UNL1        0.0436
      8 C          -4.4618   -1.8944   -0.4601 C.ar    1  UNL1       -0.0307
      9 C          -4.0635   -3.1618   -0.0721 C.ar    1  UNL1        0.0418
     10 CL         -5.1940   -4.5061    0.0248 Cl      1  UNL1       -0.0835
     11 C          -2.7527   -3.4023    0.2517 C.ar    1  UNL1       -0.0399
     12 C          -1.8469   -2.3647    0.1834 C.ar    1  UNL1       -0.0173
     13 C          -2.2623   -1.0829   -0.2114 C.ar    1  UNL1        0.1378
     14 O          -1.3831   -0.0385   -0.2871 O.3     1  UNL1       -0.4524
     15 C          -0.0218   -0.1064    0.0400 C.ar    1  UNL1        0.1663
     16 C           0.9567    0.1315   -0.8885 C.ar    1  UNL1        0.0207
     17 C           2.2859    0.0610   -0.5477 C.ar    1  UNL1        0.1536
     18 F           3.2357    0.3005   -1.4800 F       1  UNL1       -0.2033
     19 C           2.6291   -0.2535    0.7456 C.ar    1  UNL1        0.1465
     20 S           4.3511   -0.3392    1.1578 S.O2    1  UNL1        0.0767
     21 O           4.9365   -1.3945    0.2663 O.2     1  UNL1       -0.1498
     22 O           4.4699   -0.7460    2.6001 O.2     1  UNL1       -0.1498
     23 N           5.1296    1.1628    0.8715 N.pl3   1  UNL1       -0.1925
     24 C           6.0530    1.2722   -0.1975 C.ar    1  UNL1        0.1970
     25 N           6.7908    2.2117   -0.6868 N.ar    1  UNL1       -0.2109
     26 C           7.5590    2.1501   -1.6293 C.ar    1  UNL1        0.1273
     27 N           7.6654    0.8410   -2.3012 N.ar    1  UNL1       -0.1958
     28 S           6.4795   -0.1313   -1.2906 S.2     1  UNL1        0.0500
     29 C           1.6698   -0.4973    1.6998 C.ar    1  UNL1        0.0067
     30 C           0.3463   -0.4206    1.3352 C.ar    1  UNL1        0.1674
     31 F          -0.6445   -0.6414    2.2494 F       1  UNL1       -0.2016
     32 H          -3.7140    2.7012    1.3812 H       1  UNL1        0.0473
     33 H          -2.1430    2.4062    0.6464 H       1  UNL1        0.0473
     34 H          -3.0787    1.0682    1.5311 H       1  UNL1        0.0473
     35 H          -5.7356    2.5114   -2.8815 H       1  UNL1        0.0848
     36 H          -5.2228   -0.1014   -2.7756 H       1  UNL1        0.0654
     37 H          -5.5004   -1.7351   -0.7093 H       1  UNL1        0.0640
     38 H          -2.4033   -4.3979    0.5641 H       1  UNL1        0.0633
     39 H          -0.8111   -2.5721    0.4356 H       1  UNL1        0.0655
     40 H           0.7121    0.3783   -1.9026 H       1  UNL1        0.0685
     41 H           4.9361    1.9944    1.4683 H       1  UNL1        0.1758
     42 H           8.2250    2.8755   -2.1221 H       1  UNL1        0.1054
     43 H           1.9532   -0.7456    2.7215 H       1  UNL1        0.0668
@<TRIPOS>BOND
     1     1     2    1
     2     2     3   ar
     3     3     4   ar
     4     4     5   ar
     5     5     6   ar
     6     6     7    1
     7     7     8   ar
     8     8     9   ar
     9     9    10    1
    10     9    11   ar
    11    11    12   ar
    12    12    13   ar
    13    13    14    1
    14    14    15    1
    15    15    16   ar
    16    16    17   ar
    17    17    18    1
    18    17    19   ar
    19    19    20    1
    20    20    21    2
    21    20    22    2
    22    20    23    1
    23    23    24    1
    24    24    25   ar
    25    25    26   ar
    26    26    27   ar
    27    27    28   ar
    28    19    29   ar
    29    29    30   ar
    30    30    31    1
    31     6     2   ar
    32    13     7   ar
    33    30    15   ar
    34    28    24   ar
    35     1    32    1
    36     1    33    1
    37     1    34    1
    38     4    35    1
    39     5    36    1
    40     8    37    1
    41    11    38    1
    42    12    39    1
    43    16    40    1
    44    23    41    1
    45    26    42    1
    46    29    43    1
