
     RDKit          3D

 44 48  0  0  0  0  0  0  0  0999 V2000
    8.5431   -1.1504    0.3941 N   0  0  0  0  0  0  0  0  0  0  0  0
    7.8044   -0.0591   -0.1323 C   0  0  0  0  0  0  0  0  0  0  0  0
    8.4425    0.8811   -0.6617 O   0  0  0  0  0  0  0  0  0  0  0  0
    6.3541   -0.0781   -0.0361 C   0  0  0  0  0  0  0  0  0  0  0  0
    5.6255    0.9969   -0.5588 C   0  0  0  0  0  0  0  0  0  0  0  0
    4.2506    0.9628   -0.4595 C   0  0  0  0  0  0  0  0  0  0  0  0
    3.5924   -0.1031    0.1407 C   0  0  0  0  0  0  0  0  0  0  0  0
    2.1349   -0.0820    0.2159 C   0  0  0  0  0  0  0  0  0  0  0  0
    1.4044   -1.2530    0.1832 C   0  0  0  0  0  0  0  0  0  0  0  0
    0.0297   -1.2702    0.2532 C   0  0  0  0  0  0  0  0  0  0  0  0
   -0.6876   -0.0816    0.3617 C   0  0  0  0  0  0  0  0  0  0  0  0
   -2.0675   -0.0730    0.4337 O   0  0  0  0  0  0  0  0  0  0  0  0
   -2.8092    0.0044   -0.7472 C   0  0  0  0  0  0  0  0  0  0  0  0
   -2.1658    0.0721   -1.9410 C   0  0  0  0  0  0  0  0  0  0  0  0
   -2.7517    0.1491   -3.1341 N   0  0  0  0  0  0  0  0  0  0  0  0
   -4.1070    0.1599   -3.1431 C   0  0  0  0  0  0  0  0  0  0  0  0
   -4.7981    0.0921   -1.9428 C   0  0  0  0  0  0  0  0  0  0  0  0
   -6.5630    0.0803   -1.5416 S   0  0  0  0  0  0  0  0  0  0  0  0
   -6.3704   -0.0280    0.2129 C   0  0  0  0  0  0  0  0  0  0  0  0
   -7.4685   -0.0767    1.1453 C   0  0  0  0  0  0  0  0  0  0  0  0
   -8.7744   -0.0533    0.8537 N   0  0  0  0  0  0  0  0  0  0  0  0
   -9.4851   -0.1161    1.9795 N   0  0  0  0  0  0  0  0  0  0  0  0
   -8.6237   -0.1801    2.9990 N   0  0  0  0  0  0  0  0  0  0  0  0
   -7.3887   -0.1549    2.4691 N   0  0  0  0  0  0  0  0  0  0  0  0
   -5.0401   -0.0471    0.3691 C   0  0  0  0  0  0  0  0  0  0  0  0
   -4.2312    0.0126   -0.7045 C   0  0  0  0  0  0  0  0  0  0  0  0
    0.0518    1.0848    0.3936 C   0  0  0  0  0  0  0  0  0  0  0  0
    1.4252    1.0960    0.3233 C   0  0  0  0  0  0  0  0  0  0  0  0
    4.3293   -1.1496    0.6481 C   0  0  0  0  0  0  0  0  0  0  0  0
    5.6983   -1.1260    0.5546 C   0  0  0  0  0  0  0  0  0  0  0  0
    8.6376   -2.0671   -0.0898 H   0  0  0  0  0  0  0  0  0  0  0  0
    9.0124   -1.0172    1.3148 H   0  0  0  0  0  0  0  0  0  0  0  0
    6.1863    1.7929   -1.0113 H   0  0  0  0  0  0  0  0  0  0  0  0
    3.6998    1.7970   -0.8662 H   0  0  0  0  0  0  0  0  0  0  0  0
    1.9797   -2.1711    0.0983 H   0  0  0  0  0  0  0  0  0  0  0  0
   -0.5353   -2.2054    0.2261 H   0  0  0  0  0  0  0  0  0  0  0  0
   -1.0667    0.0636   -1.9356 H   0  0  0  0  0  0  0  0  0  0  0  0
   -4.6829    0.2194   -4.0483 H   0  0  0  0  0  0  0  0  0  0  0  0
   -6.5307   -0.1937    3.0603 H   0  0  0  0  0  0  0  0  0  0  0  0
   -4.6417   -0.1143    1.4239 H   0  0  0  0  0  0  0  0  0  0  0  0
   -0.4483    2.0377    0.4771 H   0  0  0  0  0  0  0  0  0  0  0  0
    1.9864    2.0424    0.3513 H   0  0  0  0  0  0  0  0  0  0  0  0
    3.7982   -1.9636    1.1082 H   0  0  0  0  0  0  0  0  0  0  0  0
    6.2510   -1.9639    0.9632 H   0  0  0  0  0  0  0  0  0  0  0  0
  1  2  1  0
  2  3  2  0
  2  4  1  0
  4  5  2  0
  5  6  1  0
  6  7  2  0
  7  8  1  0
  8  9  2  0
  9 10  1  0
 10 11  2  0
 11 12  1  0
 12 13  1  0
 13 14  2  0
 14 15  1  0
 15 16  2  0
 16 17  1  0
 17 18  1  0
 18 19  1  0
 19 20  1  0
 20 21  2  0
 21 22  1  0
 22 23  2  0
 23 24  1  0
 19 25  2  0
 25 26  1  0
 11 27  1  0
 27 28  2  0
  7 29  1  0
 29 30  2  0
 30  4  1  0
 28  8  1  0
 26 13  1  0
 26 17  2  0
 24 20  1  0
  1 31  1  0
  1 32  1  0
  5 33  1  0
  6 34  1  0
  9 35  1  0
 10 36  1  0
 14 37  1  0
 16 38  1  0
 24 39  1  0
 25 40  1  0
 27 41  1  0
 28 42  1  0
 29 43  1  0
 30 44  1  0
M  END
$$$$
