@<TRIPOS>MOLECULE
*****
 44 48 0 0 0
SMALL
GASTEIGER

@<TRIPOS>ATOM
      1 N           8.5431   -1.1504    0.3941 N.am    1  UNL1       -0.3253
      2 C           7.8044   -0.0591   -0.1323 C.2     1  UNL1        0.2415
      3 O           8.4425    0.8811   -0.6617 O.2     1  UNL1       -0.2704
      4 C           6.3541   -0.0781   -0.0361 C.ar    1  UNL1        0.0365
      5 C           5.6255    0.9969   -0.5588 C.ar    1  UNL1       -0.0491
      6 C           4.2506    0.9628   -0.4595 C.ar    1  UNL1       -0.0533
      7 C           3.5924   -0.1031    0.1407 C.ar    1  UNL1       -0.0178
      8 C           2.1349   -0.0820    0.2159 C.ar    1  UNL1       -0.0177
      9 C           1.4044   -1.2530    0.1832 C.ar    1  UNL1       -0.0506
     10 C           0.0297   -1.2702    0.2532 C.ar    1  UNL1       -0.0188
     11 C          -0.6876   -0.0816    0.3617 C.ar    1  UNL1        0.1286
     12 O          -2.0675   -0.0730    0.4337 O.3     1  UNL1       -0.4539
     13 C          -2.8092    0.0044   -0.7472 C.ar    1  UNL1        0.1546
     14 C          -2.1658    0.0721   -1.9410 C.ar    1  UNL1        0.0704
     15 N          -2.7517    0.1491   -3.1341 N.ar    1  UNL1       -0.2585
     16 C          -4.1070    0.1599   -3.1431 C.ar    1  UNL1        0.0421
     17 C          -4.7981    0.0921   -1.9428 C.ar    1  UNL1        0.0416
     18 S          -6.5630    0.0803   -1.5416 S.2     1  UNL1       -0.0835
     19 C          -6.3704   -0.0280    0.2129 C.ar    1  UNL1        0.0589
     20 C          -7.4685   -0.0767    1.1453 C.ar    1  UNL1        0.1860
     21 N          -8.7744   -0.0533    0.8537 N.ar    1  UNL1       -0.1078
     22 N          -9.4851   -0.1161    1.9795 N.ar    1  UNL1       -0.0229
     23 N          -8.6237   -0.1801    2.9990 N.ar    1  UNL1       -0.0464
     24 N          -7.3887   -0.1549    2.4691 N.ar    1  UNL1       -0.2384
     25 C          -5.0401   -0.0471    0.3691 C.ar    1  UNL1       -0.0325
     26 C          -4.2312    0.0126   -0.7045 C.ar    1  UNL1        0.0351
     27 C           0.0518    1.0848    0.3936 C.ar    1  UNL1       -0.0188
     28 C           1.4252    1.0960    0.3233 C.ar    1  UNL1       -0.0506
     29 C           4.3293   -1.1496    0.6481 C.ar    1  UNL1       -0.0533
     30 C           5.6983   -1.1260    0.5546 C.ar    1  UNL1       -0.0491
     31 H           8.6376   -2.0671   -0.0898 H       1  UNL1        0.1453
     32 H           9.0124   -1.0172    1.3148 H       1  UNL1        0.1453
     33 H           6.1863    1.7929   -1.0113 H       1  UNL1        0.0625
     34 H           3.6998    1.7970   -0.8662 H       1  UNL1        0.0624
     35 H           1.9797   -2.1711    0.0983 H       1  UNL1        0.0625
     36 H          -0.5353   -2.2054    0.2261 H       1  UNL1        0.0654
     37 H          -1.0667    0.0636   -1.9356 H       1  UNL1        0.0867
     38 H          -4.6829    0.2194   -4.0483 H       1  UNL1        0.0841
     39 H          -6.5307   -0.1937    3.0603 H       1  UNL1        0.1923
     40 H          -4.6417   -0.1143    1.4239 H       1  UNL1        0.0637
     41 H          -0.4483    2.0377    0.4771 H       1  UNL1        0.0654
     42 H           1.9864    2.0424    0.3513 H       1  UNL1        0.0625
     43 H           3.7982   -1.9636    1.1082 H       1  UNL1        0.0624
     44 H           6.2510   -1.9639    0.9632 H       1  UNL1        0.0625
@<TRIPOS>BOND
     1     1     2   am
     2     2     3    2
     3     2     4    1
     4     4     5   ar
     5     5     6   ar
     6     6     7   ar
     7     7     8    1
     8     8     9   ar
     9     9    10   ar
    10    10    11   ar
    11    11    12    1
    12    12    13    1
    13    13    14   ar
    14    14    15   ar
    15    15    16   ar
    16    16    17   ar
    17    17    18   ar
    18    18    19   ar
    19    19    20    1
    20    20    21   ar
    21    21    22   ar
    22    22    23   ar
    23    23    24   ar
    24    19    25   ar
    25    25    26   ar
    26    11    27   ar
    27    27    28   ar
    28     7    29   ar
    29    29    30   ar
    30    30     4   ar
    31    28     8   ar
    32    26    13   ar
    33    26    17   ar
    34    24    20   ar
    35     1    31    1
    36     1    32    1
    37     5    33    1
    38     6    34    1
    39     9    35    1
    40    10    36    1
    41    14    37    1
    42    16    38    1
    43    24    39    1
    44    25    40    1
    45    27    41    1
    46    28    42    1
    47    29    43    1
    48    30    44    1
