@<TRIPOS>MOLECULE
*****
 49 51 0 0 0
SMALL
GASTEIGER

@<TRIPOS>ATOM
      1 C           7.9363    3.3085   -1.8308 C.2     1  UNL1       -0.0938
      2 C           7.5798    2.0720   -1.5676 C.2     1  UNL1       -0.0066
      3 C           6.2766    1.8134   -0.9842 C.2     1  UNL1        0.2405
      4 O           5.5246    2.7786   -0.7465 O.2     1  UNL1       -0.2705
      5 N           5.8445    0.5082   -0.6824 N.am    1  UNL1       -0.2820
      6 C           4.6019    0.1276   -0.1141 C.ar    1  UNL1        0.0338
      7 C           4.3634   -1.2346    0.1078 C.ar    1  UNL1       -0.0386
      8 C           3.1965   -1.7081    0.6516 C.ar    1  UNL1       -0.0336
      9 C           2.1767   -0.8571    1.0161 C.ar    1  UNL1        0.1056
     10 S           0.6995   -1.4851    1.7134 S.O2    1  UNL1        0.0609
     11 O           0.1633   -0.4097    2.6143 O.2     1  UNL1       -0.1528
     12 O           1.0140   -2.7072    2.5703 O.2     1  UNL1       -0.1528
     13 N          -0.3718   -1.8998    0.4353 N.3     1  UNL1       -0.1736
     14 C          -0.6833   -0.7323   -0.3218 C.3     1  UNL1        0.0363
     15 C          -1.8864   -0.0679    0.3160 C.3     1  UNL1        0.0280
     16 N          -2.9881   -0.9656    0.1040 N.pl3   1  UNL1       -0.3126
     17 C          -4.2241   -0.4681   -0.3374 C.ar    1  UNL1        0.1216
     18 C          -5.3274   -1.2878   -0.5633 C.ar    1  UNL1       -0.0217
     19 C          -6.5224   -0.7668   -0.9954 C.ar    1  UNL1       -0.0568
     20 C          -6.6820    0.5844   -1.2236 C.ar    1  UNL1       -0.0405
     21 C          -5.5802    1.3791   -0.9949 C.ar    1  UNL1        0.0403
     22 C          -5.6956    2.8422   -1.2246 C.3     1  UNL1       -0.0223
     23 N          -4.4154    0.8628   -0.5726 N.ar    1  UNL1       -0.2372
     24 C          -2.7978   -2.3643    0.3510 C.3     1  UNL1        0.0280
     25 C          -1.4421   -2.6742    0.9323 C.3     1  UNL1        0.0363
     26 C           2.3935    0.4826    0.8057 C.ar    1  UNL1       -0.0336
     27 C           3.5894    0.9676    0.2483 C.ar    1  UNL1       -0.0386
     28 H           8.9173    3.5192   -2.2714 H       1  UNL1        0.0536
     29 H           7.2762    4.1395   -1.6208 H       1  UNL1        0.0536
     30 H           8.2303    1.2439   -1.7737 H       1  UNL1        0.0663
     31 H           6.5648   -0.2538   -0.9246 H       1  UNL1        0.1551
     32 H           5.1568   -1.9285   -0.1730 H       1  UNL1        0.0637
     33 H           3.0221   -2.7650    0.8193 H       1  UNL1        0.0638
     34 H          -0.9707   -1.0812   -1.3489 H       1  UNL1        0.0459
     35 H           0.2016   -0.0680   -0.3601 H       1  UNL1        0.0459
     36 H          -2.0391    0.9172   -0.1764 H       1  UNL1        0.0477
     37 H          -1.7571    0.0704    1.4087 H       1  UNL1        0.0477
     38 H          -5.1859   -2.3594   -0.3777 H       1  UNL1        0.0652
     39 H          -7.3765   -1.4256   -1.1670 H       1  UNL1        0.0619
     40 H          -7.6271    1.0022   -1.5661 H       1  UNL1        0.0635
     41 H          -6.1683    3.3655   -0.3684 H       1  UNL1        0.0292
     42 H          -4.6990    3.3139   -1.4135 H       1  UNL1        0.0292
     43 H          -6.3154    3.0824   -2.1112 H       1  UNL1        0.0292
     44 H          -2.9672   -2.9937   -0.5478 H       1  UNL1        0.0477
     45 H          -3.5563   -2.6878    1.0938 H       1  UNL1        0.0477
     46 H          -1.5229   -2.6565    2.0588 H       1  UNL1        0.0459
     47 H          -1.2390   -3.7536    0.6961 H       1  UNL1        0.0459
     48 H           1.6199    1.1891    1.0806 H       1  UNL1        0.0638
     49 H           3.6922    2.0314    0.1110 H       1  UNL1        0.0637
@<TRIPOS>BOND
     1     1     2    2
     2     2     3    1
     3     3     4    2
     4     3     5   am
     5     5     6    1
     6     6     7   ar
     7     7     8   ar
     8     8     9   ar
     9     9    10    1
    10    10    11    2
    11    10    12    2
    12    10    13    1
    13    13    14    1
    14    14    15    1
    15    15    16    1
    16    16    17    1
    17    17    18   ar
    18    18    19   ar
    19    19    20   ar
    20    20    21   ar
    21    21    22    1
    22    21    23   ar
    23    16    24    1
    24    24    25    1
    25     9    26   ar
    26    26    27   ar
    27    27     6   ar
    28    25    13    1
    29    23    17   ar
    30     1    28    1
    31     1    29    1
    32     2    30    1
    33     5    31    1
    34     7    32    1
    35     8    33    1
    36    14    34    1
    37    14    35    1
    38    15    36    1
    39    15    37    1
    40    18    38    1
    41    19    39    1
    42    20    40    1
    43    22    41    1
    44    22    42    1
    45    22    43    1
    46    24    44    1
    47    24    45    1
    48    25    46    1
    49    25    47    1
    50    26    48    1
    51    27    49    1
