
     RDKit          3D

 49 51  0  0  0  0  0  0  0  0999 V2000
    7.9363    3.3085   -1.8308 C   0  0  0  0  0  0  0  0  0  0  0  0
    7.5798    2.0720   -1.5676 C   0  0  0  0  0  0  0  0  0  0  0  0
    6.2766    1.8134   -0.9842 C   0  0  0  0  0  0  0  0  0  0  0  0
    5.5246    2.7786   -0.7465 O   0  0  0  0  0  0  0  0  0  0  0  0
    5.8445    0.5082   -0.6824 N   0  0  0  0  0  0  0  0  0  0  0  0
    4.6019    0.1276   -0.1141 C   0  0  0  0  0  0  0  0  0  0  0  0
    4.3634   -1.2346    0.1078 C   0  0  0  0  0  0  0  0  0  0  0  0
    3.1965   -1.7081    0.6516 C   0  0  0  0  0  0  0  0  0  0  0  0
    2.1767   -0.8571    1.0161 C   0  0  0  0  0  0  0  0  0  0  0  0
    0.6995   -1.4851    1.7134 S   0  0  0  0  0  6  0  0  0  0  0  0
    0.1633   -0.4097    2.6143 O   0  0  0  0  0  0  0  0  0  0  0  0
    1.0140   -2.7072    2.5703 O   0  0  0  0  0  0  0  0  0  0  0  0
   -0.3718   -1.8998    0.4353 N   0  0  0  0  0  0  0  0  0  0  0  0
   -0.6833   -0.7323   -0.3218 C   0  0  0  0  0  0  0  0  0  0  0  0
   -1.8864   -0.0679    0.3160 C   0  0  0  0  0  0  0  0  0  0  0  0
   -2.9881   -0.9656    0.1040 N   0  0  0  0  0  0  0  0  0  0  0  0
   -4.2241   -0.4681   -0.3374 C   0  0  0  0  0  0  0  0  0  0  0  0
   -5.3274   -1.2878   -0.5633 C   0  0  0  0  0  0  0  0  0  0  0  0
   -6.5224   -0.7668   -0.9954 C   0  0  0  0  0  0  0  0  0  0  0  0
   -6.6820    0.5844   -1.2236 C   0  0  0  0  0  0  0  0  0  0  0  0
   -5.5802    1.3791   -0.9949 C   0  0  0  0  0  0  0  0  0  0  0  0
   -5.6956    2.8422   -1.2246 C   0  0  0  0  0  0  0  0  0  0  0  0
   -4.4154    0.8628   -0.5726 N   0  0  0  0  0  0  0  0  0  0  0  0
   -2.7978   -2.3643    0.3510 C   0  0  0  0  0  0  0  0  0  0  0  0
   -1.4421   -2.6742    0.9323 C   0  0  0  0  0  0  0  0  0  0  0  0
    2.3935    0.4826    0.8057 C   0  0  0  0  0  0  0  0  0  0  0  0
    3.5894    0.9676    0.2483 C   0  0  0  0  0  0  0  0  0  0  0  0
    8.9173    3.5192   -2.2714 H   0  0  0  0  0  0  0  0  0  0  0  0
    7.2762    4.1395   -1.6208 H   0  0  0  0  0  0  0  0  0  0  0  0
    8.2303    1.2439   -1.7737 H   0  0  0  0  0  0  0  0  0  0  0  0
    6.5648   -0.2538   -0.9246 H   0  0  0  0  0  0  0  0  0  0  0  0
    5.1568   -1.9285   -0.1730 H   0  0  0  0  0  0  0  0  0  0  0  0
    3.0221   -2.7650    0.8193 H   0  0  0  0  0  0  0  0  0  0  0  0
   -0.9707   -1.0812   -1.3489 H   0  0  0  0  0  0  0  0  0  0  0  0
    0.2016   -0.0680   -0.3601 H   0  0  0  0  0  0  0  0  0  0  0  0
   -2.0391    0.9172   -0.1764 H   0  0  0  0  0  0  0  0  0  0  0  0
   -1.7571    0.0704    1.4087 H   0  0  0  0  0  0  0  0  0  0  0  0
   -5.1859   -2.3594   -0.3777 H   0  0  0  0  0  0  0  0  0  0  0  0
   -7.3765   -1.4256   -1.1670 H   0  0  0  0  0  0  0  0  0  0  0  0
   -7.6271    1.0022   -1.5661 H   0  0  0  0  0  0  0  0  0  0  0  0
   -6.1683    3.3655   -0.3684 H   0  0  0  0  0  0  0  0  0  0  0  0
   -4.6990    3.3139   -1.4135 H   0  0  0  0  0  0  0  0  0  0  0  0
   -6.3154    3.0824   -2.1112 H   0  0  0  0  0  0  0  0  0  0  0  0
   -2.9672   -2.9937   -0.5478 H   0  0  0  0  0  0  0  0  0  0  0  0
   -3.5563   -2.6878    1.0938 H   0  0  0  0  0  0  0  0  0  0  0  0
   -1.5229   -2.6565    2.0588 H   0  0  0  0  0  0  0  0  0  0  0  0
   -1.2390   -3.7536    0.6961 H   0  0  0  0  0  0  0  0  0  0  0  0
    1.6199    1.1891    1.0806 H   0  0  0  0  0  0  0  0  0  0  0  0
    3.6922    2.0314    0.1110 H   0  0  0  0  0  0  0  0  0  0  0  0
  1  2  2  3
  2  3  1  0
  3  4  2  0
  3  5  1  0
  5  6  1  0
  6  7  2  0
  7  8  1  0
  8  9  2  0
  9 10  1  0
 10 11  2  0
 10 12  2  0
 10 13  1  0
 13 14  1  0
 14 15  1  0
 15 16  1  0
 16 17  1  0
 17 18  2  0
 18 19  1  0
 19 20  2  0
 20 21  1  0
 21 22  1  0
 21 23  2  0
 16 24  1  0
 24 25  1  0
  9 26  1  0
 26 27  2  0
 27  6  1  0
 25 13  1  0
 23 17  1  0
  1 28  1  0
  1 29  1  0
  2 30  1  0
  5 31  1  0
  7 32  1  0
  8 33  1  0
 14 34  1  0
 14 35  1  0
 15 36  1  0
 15 37  1  0
 18 38  1  0
 19 39  1  0
 20 40  1  0
 22 41  1  0
 22 42  1  0
 22 43  1  0
 24 44  1  0
 24 45  1  0
 25 46  1  0
 25 47  1  0
 26 48  1  0
 27 49  1  0
M  END
$$$$
