
     RDKit          3D

 45 49  0  0  0  0  0  0  0  0999 V2000
    3.7089   -0.5197    2.8325 C   0  0  0  0  0  0  0  0  0  0  0  0
    3.0652   -0.6143    1.5026 C   0  0  0  0  0  0  0  0  0  0  0  0
    1.9798    0.1088    1.1191 C   0  0  0  0  0  0  0  0  0  0  0  0
    1.4305   -0.0295   -0.1369 C   0  0  0  0  0  0  0  0  0  0  0  0
    0.2707    0.7350   -0.5602 N   0  0  0  0  0  0  0  0  0  0  0  0
    0.4360    1.9941   -1.1759 C   0  0  0  0  0  0  0  0  0  0  0  0
    1.5154    2.6209   -1.4223 O   0  0  0  0  0  0  0  0  0  0  0  0
   -0.8893    2.4916   -1.5031 C   0  0  0  0  0  0  0  0  0  0  0  0
   -1.6214    3.5421   -2.0773 C   0  0  0  0  0  0  0  0  0  0  0  0
   -2.9488    3.1930   -1.9873 C   0  0  0  0  0  0  0  0  0  0  0  0
   -3.0871    1.9991   -1.3968 N   0  0  0  0  0  0  0  0  0  0  0  0
   -4.3023    1.2479   -1.0980 C   0  0  0  0  0  0  0  0  0  0  0  0
   -1.8096    1.5784   -1.1034 C   0  0  0  0  0  0  0  0  0  0  0  0
   -1.0899    0.4467   -0.4793 C   0  0  0  0  0  0  0  0  0  0  0  0
   -1.6466    0.0478    0.7977 C   0  0  0  0  0  0  0  0  0  0  0  0
   -1.3530    0.7156    1.9429 C   0  0  0  0  0  0  0  0  0  0  0  0
   -1.8827    0.3427    3.1852 C   0  0  0  0  0  0  0  0  0  0  0  0
   -2.7248   -0.7289    3.2553 C   0  0  0  0  0  0  0  0  0  0  0  0
   -3.4003   -1.2104    4.8152 Cl  0  0  0  0  0  0  0  0  0  0  0  0
   -3.0393   -1.4238    2.1085 C   0  0  0  0  0  0  0  0  0  0  0  0
   -2.4937   -1.0278    0.8770 C   0  0  0  0  0  0  0  0  0  0  0  0
    2.0171   -0.9120   -0.9652 N   0  0  0  0  0  0  0  0  0  0  0  0
    3.0636   -1.6246   -0.6279 N   0  0  0  0  0  0  0  0  0  0  0  0
    3.7637   -2.5468   -1.3400 C   0  0  0  0  0  0  0  0  0  0  0  0
    3.4832   -2.9736   -2.7308 C   0  0  0  0  0  0  0  0  0  0  0  0
    4.7462   -2.9863   -0.5398 N   0  0  0  0  0  0  0  0  0  0  0  0
    4.6580   -2.3578    0.6287 N   0  0  0  0  0  0  0  0  0  0  0  0
    3.6120   -1.5047    0.5879 C   0  0  0  0  0  0  0  0  0  0  0  0
    3.4238   -1.4285    3.4112 H   0  0  0  0  0  0  0  0  0  0  0  0
    3.4474    0.4112    3.3426 H   0  0  0  0  0  0  0  0  0  0  0  0
    4.8112   -0.5964    2.6531 H   0  0  0  0  0  0  0  0  0  0  0  0
    1.5545    0.7999    1.8246 H   0  0  0  0  0  0  0  0  0  0  0  0
   -1.1818    4.4251   -2.4922 H   0  0  0  0  0  0  0  0  0  0  0  0
   -3.7923    3.7884   -2.3404 H   0  0  0  0  0  0  0  0  0  0  0  0
   -4.3584    0.3130   -1.6778 H   0  0  0  0  0  0  0  0  0  0  0  0
   -5.1551    1.8801   -1.4141 H   0  0  0  0  0  0  0  0  0  0  0  0
   -4.4156    1.0799   -0.0033 H   0  0  0  0  0  0  0  0  0  0  0  0
   -1.2677   -0.4378   -1.1894 H   0  0  0  0  0  0  0  0  0  0  0  0
   -0.7084    1.5524    1.9405 H   0  0  0  0  0  0  0  0  0  0  0  0
   -1.6163    0.9098    4.0707 H   0  0  0  0  0  0  0  0  0  0  0  0
   -3.7075   -2.2631    2.2075 H   0  0  0  0  0  0  0  0  0  0  0  0
   -2.8005   -1.6354    0.0379 H   0  0  0  0  0  0  0  0  0  0  0  0
    4.2491   -2.5420   -3.4054 H   0  0  0  0  0  0  0  0  0  0  0  0
    3.6082   -4.0918   -2.8340 H   0  0  0  0  0  0  0  0  0  0  0  0
    2.4480   -2.7684   -3.0368 H   0  0  0  0  0  0  0  0  0  0  0  0
  1  2  1  0
  2  3  2  0
  3  4  1  0
  4  5  1  0
  5  6  1  0
  6  7  2  0
  6  8  1  0
  8  9  1  0
  9 10  2  0
 10 11  1  0
 11 12  1  0
 11 13  1  0
 13 14  1  0
 14 15  1  0
 15 16  2  0
 16 17  1  0
 17 18  2  0
 18 19  1  0
 18 20  1  0
 20 21  2  0
  4 22  2  0
 22 23  1  0
 23 24  1  0
 24 25  1  0
 24 26  2  0
 26 27  1  0
 27 28  2  0
 28  2  1  0
 14  5  1  0
 21 15  1  0
 28 23  1  0
 13  8  2  0
  1 29  1  0
  1 30  1  0
  1 31  1  0
  3 32  1  0
  9 33  1  0
 10 34  1  0
 12 35  1  0
 12 36  1  0
 12 37  1  0
 14 38  1  0
 16 39  1  0
 17 40  1  0
 20 41  1  0
 21 42  1  0
 25 43  1  0
 25 44  1  0
 25 45  1  0
M  END
$$$$
