@<TRIPOS>MOLECULE
*****
 45 49 0 0 0
SMALL
GASTEIGER

@<TRIPOS>ATOM
      1 C           3.7089   -0.5197    2.8325 C.3     1  UNL1       -0.0360
      2 C           3.0652   -0.6143    1.5026 C.ar    1  UNL1       -0.0012
      3 C           1.9798    0.1088    1.1191 C.ar    1  UNL1       -0.0131
      4 C           1.4305   -0.0295   -0.1369 C.ar    1  UNL1        0.1499
      5 N           0.2707    0.7350   -0.5602 N.am    1  UNL1       -0.2375
      6 C           0.4360    1.9941   -1.1759 C.2     1  UNL1        0.2546
      7 O           1.5154    2.6209   -1.4223 O.2     1  UNL1       -0.2695
      8 C          -0.8893    2.4916   -1.5031 C.ar    1  UNL1        0.0601
      9 C          -1.6214    3.5421   -2.0773 C.ar    1  UNL1       -0.0317
     10 C          -2.9488    3.1930   -1.9873 C.ar    1  UNL1        0.0053
     11 N          -3.0871    1.9991   -1.3968 N.ar    1  UNL1       -0.3511
     12 C          -4.3023    1.2479   -1.0980 C.3     1  UNL1        0.0117
     13 C          -1.8096    1.5784   -1.1034 C.ar    1  UNL1        0.0562
     14 C          -1.0899    0.4467   -0.4793 C.3     1  UNL1        0.0986
     15 C          -1.6466    0.0478    0.7977 C.ar    1  UNL1       -0.0207
     16 C          -1.3530    0.7156    1.9429 C.ar    1  UNL1       -0.0550
     17 C          -1.8827    0.3427    3.1852 C.ar    1  UNL1       -0.0431
     18 C          -2.7248   -0.7289    3.2553 C.ar    1  UNL1        0.0410
     19 CL         -3.4003   -1.2104    4.8152 Cl      1  UNL1       -0.0835
     20 C          -3.0393   -1.4238    2.1085 C.ar    1  UNL1       -0.0431
     21 C          -2.4937   -1.0278    0.8770 C.ar    1  UNL1       -0.0550
     22 N           2.0171   -0.9120   -0.9652 N.ar    1  UNL1       -0.1478
     23 N           3.0636   -1.6246   -0.6279 N.ar    1  UNL1       -0.1953
     24 C           3.7637   -2.5468   -1.3400 C.ar    1  UNL1        0.1521
     25 C           3.4832   -2.9736   -2.7308 C.3     1  UNL1       -0.0027
     26 N           4.7462   -2.9863   -0.5398 N.ar    1  UNL1       -0.1325
     27 N           4.6580   -2.3578    0.6287 N.ar    1  UNL1       -0.1277
     28 C           3.6120   -1.5047    0.5879 C.ar    1  UNL1        0.1809
     29 H           3.4238   -1.4285    3.4112 H       1  UNL1        0.0279
     30 H           3.4474    0.4112    3.3426 H       1  UNL1        0.0279
     31 H           4.8112   -0.5964    2.6531 H       1  UNL1        0.0279
     32 H           1.5545    0.7999    1.8246 H       1  UNL1        0.0656
     33 H          -1.1818    4.4251   -2.4922 H       1  UNL1        0.0640
     34 H          -3.7923    3.7884   -2.3404 H       1  UNL1        0.0809
     35 H          -4.3584    0.3130   -1.6778 H       1  UNL1        0.0456
     36 H          -5.1551    1.8801   -1.4141 H       1  UNL1        0.0456
     37 H          -4.4156    1.0799   -0.0033 H       1  UNL1        0.0456
     38 H          -1.2677   -0.4378   -1.1894 H       1  UNL1        0.0620
     39 H          -0.7084    1.5524    1.9405 H       1  UNL1        0.0621
     40 H          -1.6163    0.9098    4.0707 H       1  UNL1        0.0632
     41 H          -3.7075   -2.2631    2.2075 H       1  UNL1        0.0632
     42 H          -2.8005   -1.6354    0.0379 H       1  UNL1        0.0621
     43 H           4.2491   -2.5420   -3.4054 H       1  UNL1        0.0309
     44 H           3.6082   -4.0918   -2.8340 H       1  UNL1        0.0309
     45 H           2.4480   -2.7684   -3.0368 H       1  UNL1        0.0309
@<TRIPOS>BOND
     1     1     2    1
     2     2     3   ar
     3     3     4   ar
     4     4     5    1
     5     5     6   am
     6     6     7    2
     7     6     8    1
     8     8     9   ar
     9     9    10   ar
    10    10    11   ar
    11    11    12    1
    12    11    13   ar
    13    13    14    1
    14    14    15    1
    15    15    16   ar
    16    16    17   ar
    17    17    18   ar
    18    18    19    1
    19    18    20   ar
    20    20    21   ar
    21     4    22   ar
    22    22    23   ar
    23    23    24   ar
    24    24    25    1
    25    24    26   ar
    26    26    27   ar
    27    27    28   ar
    28    28     2   ar
    29    14     5    1
    30    21    15   ar
    31    28    23   ar
    32    13     8   ar
    33     1    29    1
    34     1    30    1
    35     1    31    1
    36     3    32    1
    37     9    33    1
    38    10    34    1
    39    12    35    1
    40    12    36    1
    41    12    37    1
    42    14    38    1
    43    16    39    1
    44    17    40    1
    45    20    41    1
    46    21    42    1
    47    25    43    1
    48    25    44    1
    49    25    45    1
