@<TRIPOS>MOLECULE
*****
 50 53 0 0 0
SMALL
GASTEIGER

@<TRIPOS>ATOM
      1 F           9.2611    1.4144   -1.6962 F       1  UNL1       -0.2055
      2 C           8.1046    0.7964   -1.3617 C.ar    1  UNL1        0.1234
      3 C           6.9006    1.2209   -1.8520 C.ar    1  UNL1       -0.0258
      4 C           5.6914    0.6393   -1.5522 C.ar    1  UNL1       -0.0486
      5 C           5.6552   -0.4634   -0.6912 C.ar    1  UNL1        0.0176
      6 C           6.8883   -0.8731   -0.2087 C.ar    1  UNL1       -0.0486
      7 C           8.1108   -0.2940   -0.5045 C.ar    1  UNL1       -0.0258
      8 C           4.4339   -1.1660   -0.3019 C.2     1  UNL1        0.1632
      9 O           4.5137   -2.1383    0.4802 O.2     1  UNL1       -0.2921
     10 C           3.1214   -0.7119   -0.8453 C.3     1  UNL1        0.0116
     11 C           2.3406   -0.0327    0.2633 C.3     1  UNL1       -0.0332
     12 C           1.0490    0.4694   -0.3045 C.3     1  UNL1       -0.0004
     13 N           0.2231    1.1458    0.6704 N.3     1  UNL1       -0.2983
     14 C          -0.8737    1.7974    0.0709 C.3     1  UNL1        0.0045
     15 C          -2.0581    0.9377   -0.3128 C.3     1  UNL1        0.0007
     16 C          -2.6734    0.3223    0.8900 C.2     1  UNL1        0.0271
     17 C          -1.7019    0.0762    1.7473 C.2     1  UNL1       -0.0501
     18 C          -0.2500    0.2820    1.7328 C.3     1  UNL1        0.0190
     19 N          -4.0290    0.0727    1.1607 N.ar    1  UNL1       -0.2649
     20 C          -4.5387   -0.2564    2.3513 C.ar    1  UNL1        0.3318
     21 O          -4.0347   -0.4177    3.4884 O.2     1  UNL1       -0.2462
     22 N          -5.8729   -0.4412    2.2569 N.ar    1  UNL1       -0.3057
     23 C          -6.2454   -0.2278    0.9636 C.ar    1  UNL1        0.0674
     24 C          -7.4845   -0.3065    0.3774 C.ar    1  UNL1       -0.0362
     25 C          -7.5708   -0.0549   -0.9602 C.ar    1  UNL1       -0.0597
     26 C          -6.4164    0.2663   -1.6754 C.ar    1  UNL1       -0.0597
     27 C          -5.2086    0.3259   -1.0112 C.ar    1  UNL1       -0.0357
     28 C          -5.0711    0.0873    0.3205 C.ar    1  UNL1        0.0745
     29 H           6.9278    2.0853   -2.5299 H       1  UNL1        0.0646
     30 H           4.7731    1.0180   -1.9664 H       1  UNL1        0.0625
     31 H           6.9458   -1.7234    0.4675 H       1  UNL1        0.0625
     32 H           9.0263   -0.6653   -0.0921 H       1  UNL1        0.0646
     33 H           2.5541   -1.6822   -1.0116 H       1  UNL1        0.0345
     34 H           3.1767   -0.1544   -1.7727 H       1  UNL1        0.0345
     35 H           2.2123   -0.7743    1.0592 H       1  UNL1        0.0282
     36 H           2.9951    0.8071    0.6313 H       1  UNL1        0.0282
     37 H           1.2622    1.1762   -1.1185 H       1  UNL1        0.0427
     38 H           0.5309   -0.4058   -0.7508 H       1  UNL1        0.0427
     39 H          -1.2766    2.5382    0.8298 H       1  UNL1        0.0430
     40 H          -0.5930    2.4415   -0.7921 H       1  UNL1        0.0430
     41 H          -2.8285    1.6865   -0.6704 H       1  UNL1        0.0340
     42 H          -1.8342    0.1558   -1.0438 H       1  UNL1        0.0340
     43 H          -1.9243   -0.4055    2.7148 H       1  UNL1        0.0602
     44 H           0.2652   -0.6976    1.7731 H       1  UNL1        0.0470
     45 H           0.0345    0.8223    2.6812 H       1  UNL1        0.0470
     46 H          -6.5746   -0.7037    3.0070 H       1  UNL1        0.1705
     47 H          -8.3988   -0.5538    0.9270 H       1  UNL1        0.0639
     48 H          -8.5487   -0.1114   -1.4505 H       1  UNL1        0.0618
     49 H          -6.5765    0.4444   -2.7287 H       1  UNL1        0.0618
     50 H          -4.4136    0.5573   -1.6593 H       1  UNL1        0.0639
@<TRIPOS>BOND
     1     1     2    1
     2     2     3   ar
     3     3     4   ar
     4     4     5   ar
     5     5     6   ar
     6     6     7   ar
     7     5     8    1
     8     8     9    2
     9     8    10    1
    10    10    11    1
    11    11    12    1
    12    12    13    1
    13    13    14    1
    14    14    15    1
    15    15    16    1
    16    16    17    2
    17    17    18    1
    18    16    19    1
    19    19    20   ar
    20    20    21    2
    21    20    22   ar
    22    22    23   ar
    23    23    24   ar
    24    24    25   ar
    25    25    26   ar
    26    26    27   ar
    27    27    28   ar
    28     7     2   ar
    29    18    13    1
    30    28    19   ar
    31    28    23   ar
    32     3    29    1
    33     4    30    1
    34     6    31    1
    35     7    32    1
    36    10    33    1
    37    10    34    1
    38    11    35    1
    39    11    36    1
    40    12    37    1
    41    12    38    1
    42    14    39    1
    43    14    40    1
    44    15    41    1
    45    15    42    1
    46    17    43    1
    47    18    44    1
    48    18    45    1
    49    22    46    1
    50    24    47    1
    51    25    48    1
    52    26    49    1
    53    27    50    1
