
     RDKit          3D

 59 61  0  0  0  0  0  0  0  0999 V2000
    9.2379   -1.9167    0.0930 C   0  0  0  0  0  0  0  0  0  0  0  0
    8.5929   -0.9056   -0.6147 O   0  0  0  0  0  0  0  0  0  0  0  0
    7.2232   -1.1678   -0.6523 C   0  0  0  0  0  0  0  0  0  0  0  0
    6.5616   -0.0672   -1.4213 C   0  0  0  0  0  0  0  0  0  0  0  0
    6.7636    1.2894   -0.8472 C   0  0  0  0  0  0  0  0  0  0  0  0
    6.0874    1.3920    0.7785 S   0  0  0  0  0  6  0  0  0  0  0  0
    6.7384    0.4949    1.7591 O   0  0  0  0  0  0  0  0  0  0  0  0
    6.2376    2.8314    1.2529 O   0  0  0  0  0  0  0  0  0  0  0  0
    4.3674    1.0212    0.6367 C   0  0  0  0  0  0  0  0  0  0  0  0
    3.8596   -0.2488    0.7958 C   0  0  0  0  0  0  0  0  0  0  0  0
    2.4993   -0.4958    0.6688 C   0  0  0  0  0  0  0  0  0  0  0  0
    1.6058    0.5094    0.3809 C   0  0  0  0  0  0  0  0  0  0  0  0
    0.1790    0.2308    0.2533 C   0  0  0  0  0  0  0  0  0  0  0  0
   -0.5850    0.9936   -0.6216 C   0  0  0  0  0  0  0  0  0  0  0  0
   -1.9381    0.7899   -0.7920 C   0  0  0  0  0  0  0  0  0  0  0  0
   -2.5758   -0.2064   -0.0737 C   0  0  0  0  0  0  0  0  0  0  0  0
   -4.0520   -0.4550   -0.2356 C   0  0  0  0  0  0  0  0  0  0  0  0
   -4.7557    0.4276    0.7623 C   0  0  0  0  0  0  0  0  0  0  0  0
   -6.1876    0.2981    0.7305 N   0  0  0  0  0  0  0  0  0  0  0  0
   -6.6582   -0.9794    1.2003 C   0  0  0  0  0  0  0  0  0  0  0  0
   -7.7040   -1.4566    0.2260 C   0  0  0  0  0  0  0  0  0  0  0  0
   -7.3255   -0.7689   -1.0753 C   0  0  0  0  0  0  0  0  0  0  0  0
   -6.7409    0.5319   -0.5831 C   0  0  1  0  0  0  0  0  0  0  0  0
   -7.8982    1.5064   -0.4194 C   0  0  0  0  0  0  0  0  0  0  0  0
   -1.8428   -0.9790    0.8016 C   0  0  0  0  0  0  0  0  0  0  0  0
   -0.4740   -0.7547    0.9577 C   0  0  0  0  0  0  0  0  0  0  0  0
    2.1173    1.7839    0.2216 C   0  0  0  0  0  0  0  0  0  0  0  0
    3.4771    2.0365    0.3476 C   0  0  0  0  0  0  0  0  0  0  0  0
    8.8248   -1.9470    1.1355 H   0  0  0  0  0  0  0  0  0  0  0  0
    9.0463   -2.8711   -0.4067 H   0  0  0  0  0  0  0  0  0  0  0  0
   10.3194   -1.6351    0.1285 H   0  0  0  0  0  0  0  0  0  0  0  0
    6.8087   -1.2513    0.3441 H   0  0  0  0  0  0  0  0  0  0  0  0
    7.0853   -2.1136   -1.2405 H   0  0  0  0  0  0  0  0  0  0  0  0
    6.8855   -0.0853   -2.5072 H   0  0  0  0  0  0  0  0  0  0  0  0
    5.4712   -0.3430   -1.4855 H   0  0  0  0  0  0  0  0  0  0  0  0
    6.1902    2.0426   -1.4692 H   0  0  0  0  0  0  0  0  0  0  0  0
    7.8389    1.6035   -0.8649 H   0  0  0  0  0  0  0  0  0  0  0  0
    4.5296   -1.0642    1.0237 H   0  0  0  0  0  0  0  0  0  0  0  0
    2.0967   -1.5000    0.7942 H   0  0  0  0  0  0  0  0  0  0  0  0
   -0.0862    1.7787   -1.1884 H   0  0  0  0  0  0  0  0  0  0  0  0
   -2.4962    1.4058   -1.4833 H   0  0  0  0  0  0  0  0  0  0  0  0
   -4.2137   -1.5158    0.0396 H   0  0  0  0  0  0  0  0  0  0  0  0
   -4.2879   -0.2217   -1.2716 H   0  0  0  0  0  0  0  0  0  0  0  0
   -4.4164    0.1483    1.7813 H   0  0  0  0  0  0  0  0  0  0  0  0
   -4.5104    1.4980    0.5886 H   0  0  0  0  0  0  0  0  0  0  0  0
   -7.1950   -0.7733    2.1703 H   0  0  0  0  0  0  0  0  0  0  0  0
   -5.8802   -1.7069    1.4130 H   0  0  0  0  0  0  0  0  0  0  0  0
   -8.7178   -1.0932    0.4927 H   0  0  0  0  0  0  0  0  0  0  0  0
   -7.7493   -2.5573    0.1348 H   0  0  0  0  0  0  0  0  0  0  0  0
   -6.6250   -1.3644   -1.6867 H   0  0  0  0  0  0  0  0  0  0  0  0
   -8.2202   -0.5652   -1.7014 H   0  0  0  0  0  0  0  0  0  0  0  0
   -5.9967    0.9494   -1.3013 H   0  0  0  0  0  0  0  0  0  0  0  0
   -8.7883    1.1760   -1.0035 H   0  0  0  0  0  0  0  0  0  0  0  0
   -8.1654    1.6295    0.6494 H   0  0  0  0  0  0  0  0  0  0  0  0
   -7.6155    2.5049   -0.8437 H   0  0  0  0  0  0  0  0  0  0  0  0
   -2.3449   -1.7653    1.3684 H   0  0  0  0  0  0  0  0  0  0  0  0
    0.1003   -1.3586    1.6422 H   0  0  0  0  0  0  0  0  0  0  0  0
    1.4241    2.5924   -0.0065 H   0  0  0  0  0  0  0  0  0  0  0  0
    3.8782    3.0329    0.2236 H   0  0  0  0  0  0  0  0  0  0  0  0
  1  2  1  0
  2  3  1  0
  3  4  1  0
  4  5  1  0
  5  6  1  0
  6  7  2  0
  6  8  2  0
  6  9  1  0
  9 10  2  0
 10 11  1  0
 11 12  2  0
 12 13  1  0
 13 14  2  0
 14 15  1  0
 15 16  2  0
 16 17  1  0
 17 18  1  0
 18 19  1  0
 19 20  1  0
 20 21  1  0
 21 22  1  0
 22 23  1  0
 23 24  1  0
 16 25  1  0
 25 26  2  0
 12 27  1  0
 27 28  2  0
 28  9  1  0
 26 13  1  0
 23 19  1  0
  1 29  1  0
  1 30  1  0
  1 31  1  0
  3 32  1  0
  3 33  1  0
  4 34  1  0
  4 35  1  0
  5 36  1  0
  5 37  1  0
 10 38  1  0
 11 39  1  0
 14 40  1  0
 15 41  1  0
 17 42  1  0
 17 43  1  0
 18 44  1  0
 18 45  1  0
 20 46  1  0
 20 47  1  0
 21 48  1  0
 21 49  1  0
 22 50  1  0
 22 51  1  0
 23 52  1  6
 24 53  1  0
 24 54  1  0
 24 55  1  0
 25 56  1  0
 26 57  1  0
 27 58  1  0
 28 59  1  0
M  END
$$$$
