@<TRIPOS>MOLECULE
*****
 59 61 0 0 0
SMALL
GASTEIGER

@<TRIPOS>ATOM
      1 C           9.2379   -1.9167    0.0930 C.3     1  UNL1        0.0364
      2 O           8.5929   -0.9056   -0.6147 O.3     1  UNL1       -0.3829
      3 C           7.2232   -1.1678   -0.6523 C.3     1  UNL1        0.0488
      4 C           6.5616   -0.0672   -1.4213 C.3     1  UNL1       -0.0097
      5 C           6.7636    1.2894   -0.8472 C.3     1  UNL1        0.0729
      6 S           6.0874    1.3920    0.7785 S.O2    1  UNL1       -0.0030
      7 O           6.7384    0.4949    1.7591 O.2     1  UNL1       -0.1694
      8 O           6.2376    2.8314    1.2529 O.2     1  UNL1       -0.1694
      9 C           4.3674    1.0212    0.6367 C.ar    1  UNL1        0.0882
     10 C           3.8596   -0.2488    0.7958 C.ar    1  UNL1       -0.0363
     11 C           2.4993   -0.4958    0.6688 C.ar    1  UNL1       -0.0522
     12 C           1.6058    0.5094    0.3809 C.ar    1  UNL1       -0.0178
     13 C           0.1790    0.2308    0.2533 C.ar    1  UNL1       -0.0179
     14 C          -0.5850    0.9936   -0.6216 C.ar    1  UNL1       -0.0538
     15 C          -1.9381    0.7899   -0.7920 C.ar    1  UNL1       -0.0580
     16 C          -2.5758   -0.2064   -0.0737 C.ar    1  UNL1       -0.0461
     17 C          -4.0520   -0.4550   -0.2356 C.3     1  UNL1       -0.0149
     18 C          -4.7557    0.4276    0.7623 C.3     1  UNL1        0.0031
     19 N          -6.1876    0.2981    0.7305 N.3     1  UNL1       -0.2993
     20 C          -6.6582   -0.9794    1.2003 C.3     1  UNL1       -0.0008
     21 C          -7.7040   -1.4566    0.2260 C.3     1  UNL1       -0.0388
     22 C          -7.3255   -0.7689   -1.0753 C.3     1  UNL1       -0.0364
     23 C          -6.7409    0.5319   -0.5831 C.3     1  UNL1        0.0076
     24 C          -7.8982    1.5064   -0.4194 C.3     1  UNL1       -0.0495
     25 C          -1.8428   -0.9790    0.8016 C.ar    1  UNL1       -0.0580
     26 C          -0.4740   -0.7547    0.9577 C.ar    1  UNL1       -0.0538
     27 C           2.1173    1.7839    0.2216 C.ar    1  UNL1       -0.0522
     28 C           3.4771    2.0365    0.3476 C.ar    1  UNL1       -0.0363
     29 H           8.8248   -1.9470    1.1355 H       1  UNL1        0.0523
     30 H           9.0463   -2.8711   -0.4067 H       1  UNL1        0.0523
     31 H          10.3194   -1.6351    0.1285 H       1  UNL1        0.0523
     32 H           6.8087   -1.2513    0.3441 H       1  UNL1        0.0560
     33 H           7.0853   -2.1136   -1.2405 H       1  UNL1        0.0560
     34 H           6.8855   -0.0853   -2.5072 H       1  UNL1        0.0303
     35 H           5.4712   -0.3430   -1.4855 H       1  UNL1        0.0303
     36 H           6.1902    2.0426   -1.4692 H       1  UNL1        0.0505
     37 H           7.8389    1.6035   -0.8649 H       1  UNL1        0.0505
     38 H           4.5296   -1.0642    1.0237 H       1  UNL1        0.0637
     39 H           2.0967   -1.5000    0.7942 H       1  UNL1        0.0624
     40 H          -0.0862    1.7787   -1.1884 H       1  UNL1        0.0624
     41 H          -2.4962    1.4058   -1.4833 H       1  UNL1        0.0620
     42 H          -4.2137   -1.5158    0.0396 H       1  UNL1        0.0326
     43 H          -4.2879   -0.2217   -1.2716 H       1  UNL1        0.0326
     44 H          -4.4164    0.1483    1.7813 H       1  UNL1        0.0430
     45 H          -4.5104    1.4980    0.5886 H       1  UNL1        0.0430
     46 H          -7.1950   -0.7733    2.1703 H       1  UNL1        0.0427
     47 H          -5.8802   -1.7069    1.4130 H       1  UNL1        0.0427
     48 H          -8.7178   -1.0932    0.4927 H       1  UNL1        0.0278
     49 H          -7.7493   -2.5573    0.1348 H       1  UNL1        0.0278
     50 H          -6.6250   -1.3644   -1.6867 H       1  UNL1        0.0281
     51 H          -8.2202   -0.5652   -1.7014 H       1  UNL1        0.0281
     52 H          -5.9967    0.9494   -1.3013 H       1  UNL1        0.0460
     53 H          -8.7883    1.1760   -1.0035 H       1  UNL1        0.0245
     54 H          -8.1654    1.6295    0.6494 H       1  UNL1        0.0245
     55 H          -7.6155    2.5049   -0.8437 H       1  UNL1        0.0245
     56 H          -2.3449   -1.7653    1.3684 H       1  UNL1        0.0620
     57 H           0.1003   -1.3586    1.6422 H       1  UNL1        0.0624
     58 H           1.4241    2.5924   -0.0065 H       1  UNL1        0.0624
     59 H           3.8782    3.0329    0.2236 H       1  UNL1        0.0637
@<TRIPOS>BOND
     1     1     2    1
     2     2     3    1
     3     3     4    1
     4     4     5    1
     5     5     6    1
     6     6     7    2
     7     6     8    2
     8     6     9    1
     9     9    10   ar
    10    10    11   ar
    11    11    12   ar
    12    12    13    1
    13    13    14   ar
    14    14    15   ar
    15    15    16   ar
    16    16    17    1
    17    17    18    1
    18    18    19    1
    19    19    20    1
    20    20    21    1
    21    21    22    1
    22    22    23    1
    23    23    24    1
    24    16    25   ar
    25    25    26   ar
    26    12    27   ar
    27    27    28   ar
    28    28     9   ar
    29    26    13   ar
    30    23    19    1
    31     1    29    1
    32     1    30    1
    33     1    31    1
    34     3    32    1
    35     3    33    1
    36     4    34    1
    37     4    35    1
    38     5    36    1
    39     5    37    1
    40    10    38    1
    41    11    39    1
    42    14    40    1
    43    15    41    1
    44    17    42    1
    45    17    43    1
    46    18    44    1
    47    18    45    1
    48    20    46    1
    49    20    47    1
    50    21    48    1
    51    21    49    1
    52    22    50    1
    53    22    51    1
    54    23    52    1
    55    24    53    1
    56    24    54    1
    57    24    55    1
    58    25    56    1
    59    26    57    1
    60    27    58    1
    61    28    59    1
