@<TRIPOS>MOLECULE
*****
 43 44 0 0 0
SMALL
GASTEIGER

@<TRIPOS>ATOM
      1 C           4.5986   -0.9012    0.8260 C.3     1  UNL1        0.0820
      2 O           3.3108   -1.2876    0.4472 O.3     1  UNL1       -0.4646
      3 C           2.2162   -0.4644    0.3856 C.2     1  UNL1        0.3372
      4 O           2.3909    0.7408    0.6977 O.2     1  UNL1       -0.2452
      5 C           0.8574   -0.8985   -0.0205 C.2     1  UNL1        0.0661
      6 C           0.6612   -2.1489   -0.3478 C.2     1  UNL1        0.0487
      7 C           1.8164   -3.1394   -0.3003 C.3     1  UNL1       -0.0218
      8 N          -0.6024   -2.5679   -0.8146 N.2     1  UNL1       -0.2600
      9 C          -1.5513   -1.7389   -0.9280 C.2     1  UNL1        0.0307
     10 C          -2.8705   -2.2572   -1.4266 C.3     1  UNL1       -0.0254
     11 C          -1.4744   -0.2920   -0.6566 C.3     1  UNL1        0.1055
     12 C          -2.7199    0.0027    0.1596 C.2     1  UNL1        0.3164
     13 O          -3.5649    0.8200   -0.2615 O.2     1  UNL1       -0.2501
     14 O          -2.9441   -0.6198    1.3731 O.3     1  UNL1       -0.4675
     15 C          -4.1156   -0.3528    2.1567 C.3     1  UNL1        0.0817
     16 C          -0.2581    0.0748    0.0322 C.3     1  UNL1        0.0421
     17 C           0.1668    1.4876   -0.0071 C.ar    1  UNL1        0.0385
     18 C           0.0828    2.2129    1.1647 C.ar    1  UNL1       -0.0515
     19 C           0.4552    3.5356    1.3009 C.ar    1  UNL1       -0.0611
     20 C           0.9418    4.1562    0.1774 C.ar    1  UNL1       -0.0553
     21 C           1.0378    3.4701   -0.9956 C.ar    1  UNL1        0.0159
     22 C           0.6553    2.1279   -1.1173 C.ar    1  UNL1        0.2769
     23 N           0.7391    1.4730   -2.3380 N.pl3   1  UNL1        0.0799
     24 O           0.6302    2.1812   -3.3860 O.2     1  UNL1        0.0415
     25 O           0.9247    0.1603   -2.5003 O.co2   1  UNL1       -0.5760
     26 H           4.9330    0.0367    0.3402 H       1  UNL1        0.0661
     27 H           5.2990   -1.6936    0.4339 H       1  UNL1        0.0661
     28 H           4.7705   -0.8676    1.9155 H       1  UNL1        0.0661
     29 H           2.1156   -3.2103    0.7503 H       1  UNL1        0.0293
     30 H           2.5973   -2.8936   -1.0137 H       1  UNL1        0.0293
     31 H           1.3440   -4.1430   -0.5343 H       1  UNL1        0.0293
     32 H          -3.4230   -1.5171   -2.0033 H       1  UNL1        0.0290
     33 H          -3.4663   -2.5247   -0.5326 H       1  UNL1        0.0290
     34 H          -2.7316   -3.1704   -2.0263 H       1  UNL1        0.0290
     35 H          -1.6523    0.1651   -1.6561 H       1  UNL1        0.0484
     36 H          -3.8940   -0.1984    3.2103 H       1  UNL1        0.0661
     37 H          -4.8095   -1.2170    2.0178 H       1  UNL1        0.0661
     38 H          -4.6337    0.5157    1.6709 H       1  UNL1        0.0661
     39 H          -0.5883   -0.0659    1.1463 H       1  UNL1        0.0414
     40 H          -0.2997    1.7791    2.1081 H       1  UNL1        0.0623
     41 H           0.3782    4.0730    2.2270 H       1  UNL1        0.0618
     42 H           1.2583    5.2126    0.2142 H       1  UNL1        0.0620
     43 H           1.4187    3.9448   -1.8892 H       1  UNL1        0.0685
@<TRIPOS>UNITY_ATOM_ATTR
23 1
charge 1
25 1
charge -1
@<TRIPOS>BOND
     1     1     2    1
     2     2     3    1
     3     3     4    2
     4     3     5    1
     5     5     6    2
     6     6     7    1
     7     6     8    1
     8     8     9    2
     9     9    10    1
    10     9    11    1
    11    11    12    1
    12    12    13    2
    13    12    14    1
    14    14    15    1
    15    11    16    1
    16    16    17    1
    17    17    18   ar
    18    18    19   ar
    19    19    20   ar
    20    20    21   ar
    21    21    22   ar
    22    22    23    1
    23    23    24    2
    24    23    25    1
    25    16     5    1
    26    22    17   ar
    27     1    26    1
    28     1    27    1
    29     1    28    1
    30     7    29    1
    31     7    30    1
    32     7    31    1
    33    10    32    1
    34    10    33    1
    35    10    34    1
    36    11    35    1
    37    15    36    1
    38    15    37    1
    39    15    38    1
    40    16    39    1
    41    18    40    1
    42    19    41    1
    43    20    42    1
    44    21    43    1
