
     RDKit          3D

 43 44  0  0  0  0  0  0  0  0999 V2000
    4.5986   -0.9012    0.8260 C   0  0  0  0  0  0  0  0  0  0  0  0
    3.3108   -1.2876    0.4472 O   0  0  0  0  0  0  0  0  0  0  0  0
    2.2162   -0.4644    0.3856 C   0  0  0  0  0  0  0  0  0  0  0  0
    2.3909    0.7408    0.6977 O   0  0  0  0  0  0  0  0  0  0  0  0
    0.8574   -0.8985   -0.0205 C   0  0  0  0  0  0  0  0  0  0  0  0
    0.6612   -2.1489   -0.3478 C   0  0  0  0  0  0  0  0  0  0  0  0
    1.8164   -3.1394   -0.3003 C   0  0  0  0  0  0  0  0  0  0  0  0
   -0.6024   -2.5679   -0.8146 N   0  0  0  0  0  0  0  0  0  0  0  0
   -1.5513   -1.7389   -0.9280 C   0  0  0  0  0  0  0  0  0  0  0  0
   -2.8705   -2.2572   -1.4266 C   0  0  0  0  0  0  0  0  0  0  0  0
   -1.4744   -0.2920   -0.6566 C   0  0  0  0  0  0  0  0  0  0  0  0
   -2.7199    0.0027    0.1596 C   0  0  0  0  0  0  0  0  0  0  0  0
   -3.5649    0.8200   -0.2615 O   0  0  0  0  0  0  0  0  0  0  0  0
   -2.9441   -0.6198    1.3731 O   0  0  0  0  0  0  0  0  0  0  0  0
   -4.1156   -0.3528    2.1567 C   0  0  0  0  0  0  0  0  0  0  0  0
   -0.2581    0.0748    0.0322 C   0  0  0  0  0  0  0  0  0  0  0  0
    0.1668    1.4876   -0.0071 C   0  0  0  0  0  0  0  0  0  0  0  0
    0.0828    2.2129    1.1647 C   0  0  0  0  0  0  0  0  0  0  0  0
    0.4552    3.5356    1.3009 C   0  0  0  0  0  0  0  0  0  0  0  0
    0.9418    4.1562    0.1774 C   0  0  0  0  0  0  0  0  0  0  0  0
    1.0378    3.4701   -0.9956 C   0  0  0  0  0  0  0  0  0  0  0  0
    0.6553    2.1279   -1.1173 C   0  0  0  0  0  0  0  0  0  0  0  0
    0.7391    1.4730   -2.3380 N   0  0  0  0  0  4  0  0  0  0  0  0
    0.6302    2.1812   -3.3860 O   0  0  0  0  0  0  0  0  0  0  0  0
    0.9247    0.1603   -2.5003 O   0  0  0  0  0  1  0  0  0  0  0  0
    4.9330    0.0367    0.3402 H   0  0  0  0  0  0  0  0  0  0  0  0
    5.2990   -1.6936    0.4339 H   0  0  0  0  0  0  0  0  0  0  0  0
    4.7705   -0.8676    1.9155 H   0  0  0  0  0  0  0  0  0  0  0  0
    2.1156   -3.2103    0.7503 H   0  0  0  0  0  0  0  0  0  0  0  0
    2.5973   -2.8936   -1.0137 H   0  0  0  0  0  0  0  0  0  0  0  0
    1.3440   -4.1430   -0.5343 H   0  0  0  0  0  0  0  0  0  0  0  0
   -3.4230   -1.5171   -2.0033 H   0  0  0  0  0  0  0  0  0  0  0  0
   -3.4663   -2.5247   -0.5326 H   0  0  0  0  0  0  0  0  0  0  0  0
   -2.7316   -3.1704   -2.0263 H   0  0  0  0  0  0  0  0  0  0  0  0
   -1.6523    0.1651   -1.6561 H   0  0  0  0  0  0  0  0  0  0  0  0
   -3.8940   -0.1984    3.2103 H   0  0  0  0  0  0  0  0  0  0  0  0
   -4.8095   -1.2170    2.0178 H   0  0  0  0  0  0  0  0  0  0  0  0
   -4.6337    0.5157    1.6709 H   0  0  0  0  0  0  0  0  0  0  0  0
   -0.5883   -0.0659    1.1463 H   0  0  0  0  0  0  0  0  0  0  0  0
   -0.2997    1.7791    2.1081 H   0  0  0  0  0  0  0  0  0  0  0  0
    0.3782    4.0730    2.2270 H   0  0  0  0  0  0  0  0  0  0  0  0
    1.2583    5.2126    0.2142 H   0  0  0  0  0  0  0  0  0  0  0  0
    1.4187    3.9448   -1.8892 H   0  0  0  0  0  0  0  0  0  0  0  0
  1  2  1  0
  2  3  1  0
  3  4  2  0
  3  5  1  0
  5  6  2  0
  6  7  1  0
  6  8  1  0
  8  9  2  0
  9 10  1  0
  9 11  1  0
 11 12  1  0
 12 13  2  0
 12 14  1  0
 14 15  1  0
 11 16  1  0
 16 17  1  0
 17 18  2  0
 18 19  1  0
 19 20  2  0
 20 21  1  0
 21 22  2  0
 22 23  1  0
 23 24  2  0
 23 25  1  0
 16  5  1  0
 22 17  1  0
  1 26  1  0
  1 27  1  0
  1 28  1  0
  7 29  1  0
  7 30  1  0
  7 31  1  0
 10 32  1  0
 10 33  1  0
 10 34  1  0
 11 35  1  0
 15 36  1  0
 15 37  1  0
 15 38  1  0
 16 39  1  0
 18 40  1  0
 19 41  1  0
 20 42  1  0
 21 43  1  0
M  CHG  2  23   1  25  -1
M  END
$$$$
