@<TRIPOS>MOLECULE
*****
 52 54 0 0 0
SMALL
GASTEIGER

@<TRIPOS>ATOM
      1 C           5.0331    1.4581   -1.2176 C.3     1  UNL1       -0.0393
      2 C           5.9013    0.6160   -0.4067 C.ar    1  UNL1       -0.0441
      3 C           7.2447    0.8904   -0.2989 C.ar    1  UNL1       -0.0585
      4 C           8.0803    0.0933    0.4730 C.ar    1  UNL1       -0.0615
      5 C           7.5582   -0.9891    1.1417 C.ar    1  UNL1       -0.0614
      6 C           6.2106   -1.2701    1.0376 C.ar    1  UNL1       -0.0551
      7 C           5.3844   -0.4629    0.2605 C.ar    1  UNL1       -0.0075
      8 C           3.9629   -0.7724    0.1585 C.3     1  UNL1        0.1149
      9 O           3.1323    0.0772    0.9260 O.3     1  UNL1       -0.4874
     10 C           1.7750   -0.1358    0.8967 C.ar    1  UNL1        0.1211
     11 C           1.2283   -1.1415    0.1478 C.ar    1  UNL1       -0.0181
     12 C          -0.1492   -1.3461    0.1280 C.ar    1  UNL1       -0.0334
     13 C          -0.9572   -0.5248    0.8709 C.ar    1  UNL1        0.0888
     14 S          -2.7217   -0.7703    0.8603 S.O2    1  UNL1        0.0031
     15 O          -2.9864   -2.2308    0.6591 O.2     1  UNL1       -0.1690
     16 O          -3.2432   -0.2902    2.1733 O.2     1  UNL1       -0.1690
     17 C          -3.4323    0.1920   -0.4330 C.3     1  UNL1        0.1234
     18 C          -3.0495    1.6569   -0.2574 C.3     1  UNL1       -0.0035
     19 C          -4.0595    2.5450   -0.9341 C.3     1  UNL1        0.0497
     20 O          -5.3127    2.4459   -0.3730 O.3     1  UNL1       -0.3763
     21 C          -5.6095    1.2198    0.1661 C.3     1  UNL1        0.0869
     22 C          -4.9067    0.0626   -0.5127 C.3     1  UNL1        0.1891
     23 O          -5.3053    0.0964   -1.8609 O.3     1  UNL1       -0.3756
     24 C          -5.4425   -1.1777    0.0504 C.2     1  UNL1        0.2714
     25 O          -5.3660   -1.4667    1.2887 O.2     1  UNL1       -0.2704
     26 N          -6.0986   -2.1591   -0.7809 N.am    1  UNL1       -0.1950
     27 O          -6.5704   -3.2739   -0.2226 O.3     1  UNL1       -0.2951
     28 C          -0.4184    0.4762    1.6168 C.ar    1  UNL1       -0.0334
     29 C           0.9488    0.6749    1.6329 C.ar    1  UNL1       -0.0181
     30 H           4.2169    1.9497   -0.6505 H       1  UNL1        0.0278
     31 H           5.6230    2.2757   -1.6791 H       1  UNL1        0.0278
     32 H           4.6421    0.8554   -2.0703 H       1  UNL1        0.0278
     33 H           7.6871    1.7286   -0.8078 H       1  UNL1        0.0620
     34 H           9.1163    0.3164    0.5476 H       1  UNL1        0.0618
     35 H           8.1853   -1.6197    1.7448 H       1  UNL1        0.0618
     36 H           5.8047   -2.1217    1.5650 H       1  UNL1        0.0621
     37 H           3.7054   -1.8081    0.4514 H       1  UNL1        0.0748
     38 H           3.6647   -0.5798   -0.9151 H       1  UNL1        0.0748
     39 H           1.8214   -1.8221   -0.4593 H       1  UNL1        0.0655
     40 H          -0.5911   -2.1424   -0.4642 H       1  UNL1        0.0638
     41 H          -2.9998   -0.1329   -1.4277 H       1  UNL1        0.0575
     42 H          -2.9887    1.8804    0.8255 H       1  UNL1        0.0307
     43 H          -2.0661    1.8441   -0.7689 H       1  UNL1        0.0307
     44 H          -3.7158    3.5971   -0.8042 H       1  UNL1        0.0560
     45 H          -4.1396    2.2892   -2.0012 H       1  UNL1        0.0560
     46 H          -6.7079    1.0013    0.0922 H       1  UNL1        0.0594
     47 H          -5.3469    1.1757    1.2490 H       1  UNL1        0.0594
     48 H          -4.6213   -0.3381   -2.4236 H       1  UNL1        0.2110
     49 H          -6.2098   -2.0104   -1.8129 H       1  UNL1        0.1823
     50 H          -6.1617   -3.4516    0.6690 H       1  UNL1        0.2414
     51 H          -1.0615    1.1266    2.2054 H       1  UNL1        0.0638
     52 H           1.3125    1.4934    2.2506 H       1  UNL1        0.0655
@<TRIPOS>BOND
     1     1     2    1
     2     2     3   ar
     3     3     4   ar
     4     4     5   ar
     5     5     6   ar
     6     6     7   ar
     7     7     8    1
     8     8     9    1
     9     9    10    1
    10    10    11   ar
    11    11    12   ar
    12    12    13   ar
    13    13    14    1
    14    14    15    2
    15    14    16    2
    16    14    17    1
    17    17    18    1
    18    18    19    1
    19    19    20    1
    20    20    21    1
    21    21    22    1
    22    22    23    1
    23    22    24    1
    24    24    25    2
    25    24    26   am
    26    26    27    1
    27    13    28   ar
    28    28    29   ar
    29     7     2   ar
    30    29    10   ar
    31    22    17    1
    32     1    30    1
    33     1    31    1
    34     1    32    1
    35     3    33    1
    36     4    34    1
    37     5    35    1
    38     6    36    1
    39     8    37    1
    40     8    38    1
    41    11    39    1
    42    12    40    1
    43    17    41    1
    44    18    42    1
    45    18    43    1
    46    19    44    1
    47    19    45    1
    48    21    46    1
    49    21    47    1
    50    23    48    1
    51    26    49    1
    52    27    50    1
    53    28    51    1
    54    29    52    1
