
     RDKit          3D

 52 54  0  0  0  0  0  0  0  0999 V2000
    5.0331    1.4581   -1.2176 C   0  0  0  0  0  0  0  0  0  0  0  0
    5.9013    0.6160   -0.4067 C   0  0  0  0  0  0  0  0  0  0  0  0
    7.2447    0.8904   -0.2989 C   0  0  0  0  0  0  0  0  0  0  0  0
    8.0803    0.0933    0.4730 C   0  0  0  0  0  0  0  0  0  0  0  0
    7.5582   -0.9891    1.1417 C   0  0  0  0  0  0  0  0  0  0  0  0
    6.2106   -1.2701    1.0376 C   0  0  0  0  0  0  0  0  0  0  0  0
    5.3844   -0.4629    0.2605 C   0  0  0  0  0  0  0  0  0  0  0  0
    3.9629   -0.7724    0.1585 C   0  0  0  0  0  0  0  0  0  0  0  0
    3.1323    0.0772    0.9260 O   0  0  0  0  0  0  0  0  0  0  0  0
    1.7750   -0.1358    0.8967 C   0  0  0  0  0  0  0  0  0  0  0  0
    1.2283   -1.1415    0.1478 C   0  0  0  0  0  0  0  0  0  0  0  0
   -0.1492   -1.3461    0.1280 C   0  0  0  0  0  0  0  0  0  0  0  0
   -0.9572   -0.5248    0.8709 C   0  0  0  0  0  0  0  0  0  0  0  0
   -2.7217   -0.7703    0.8603 S   0  0  0  0  0  6  0  0  0  0  0  0
   -2.9864   -2.2308    0.6591 O   0  0  0  0  0  0  0  0  0  0  0  0
   -3.2432   -0.2902    2.1733 O   0  0  0  0  0  0  0  0  0  0  0  0
   -3.4323    0.1920   -0.4330 C   0  0  2  0  0  0  0  0  0  0  0  0
   -3.0495    1.6569   -0.2574 C   0  0  0  0  0  0  0  0  0  0  0  0
   -4.0595    2.5450   -0.9341 C   0  0  0  0  0  0  0  0  0  0  0  0
   -5.3127    2.4459   -0.3730 O   0  0  0  0  0  0  0  0  0  0  0  0
   -5.6095    1.2198    0.1661 C   0  0  0  0  0  0  0  0  0  0  0  0
   -4.9067    0.0626   -0.5127 C   0  0  1  0  0  0  0  0  0  0  0  0
   -5.3053    0.0964   -1.8609 O   0  0  0  0  0  0  0  0  0  0  0  0
   -5.4425   -1.1777    0.0504 C   0  0  0  0  0  0  0  0  0  0  0  0
   -5.3660   -1.4667    1.2887 O   0  0  0  0  0  0  0  0  0  0  0  0
   -6.0986   -2.1591   -0.7809 N   0  0  0  0  0  0  0  0  0  0  0  0
   -6.5704   -3.2739   -0.2226 O   0  0  0  0  0  0  0  0  0  0  0  0
   -0.4184    0.4762    1.6168 C   0  0  0  0  0  0  0  0  0  0  0  0
    0.9488    0.6749    1.6329 C   0  0  0  0  0  0  0  0  0  0  0  0
    4.2169    1.9497   -0.6505 H   0  0  0  0  0  0  0  0  0  0  0  0
    5.6230    2.2757   -1.6791 H   0  0  0  0  0  0  0  0  0  0  0  0
    4.6421    0.8554   -2.0703 H   0  0  0  0  0  0  0  0  0  0  0  0
    7.6871    1.7286   -0.8078 H   0  0  0  0  0  0  0  0  0  0  0  0
    9.1163    0.3164    0.5476 H   0  0  0  0  0  0  0  0  0  0  0  0
    8.1853   -1.6197    1.7448 H   0  0  0  0  0  0  0  0  0  0  0  0
    5.8047   -2.1217    1.5650 H   0  0  0  0  0  0  0  0  0  0  0  0
    3.7054   -1.8081    0.4514 H   0  0  0  0  0  0  0  0  0  0  0  0
    3.6647   -0.5798   -0.9151 H   0  0  0  0  0  0  0  0  0  0  0  0
    1.8214   -1.8221   -0.4593 H   0  0  0  0  0  0  0  0  0  0  0  0
   -0.5911   -2.1424   -0.4642 H   0  0  0  0  0  0  0  0  0  0  0  0
   -2.9998   -0.1329   -1.4277 H   0  0  0  0  0  0  0  0  0  0  0  0
   -2.9887    1.8804    0.8255 H   0  0  0  0  0  0  0  0  0  0  0  0
   -2.0661    1.8441   -0.7689 H   0  0  0  0  0  0  0  0  0  0  0  0
   -3.7158    3.5971   -0.8042 H   0  0  0  0  0  0  0  0  0  0  0  0
   -4.1396    2.2892   -2.0012 H   0  0  0  0  0  0  0  0  0  0  0  0
   -6.7079    1.0013    0.0922 H   0  0  0  0  0  0  0  0  0  0  0  0
   -5.3469    1.1757    1.2490 H   0  0  0  0  0  0  0  0  0  0  0  0
   -4.6213   -0.3381   -2.4236 H   0  0  0  0  0  0  0  0  0  0  0  0
   -6.2098   -2.0104   -1.8129 H   0  0  0  0  0  0  0  0  0  0  0  0
   -6.1617   -3.4516    0.6690 H   0  0  0  0  0  0  0  0  0  0  0  0
   -1.0615    1.1266    2.2054 H   0  0  0  0  0  0  0  0  0  0  0  0
    1.3125    1.4934    2.2506 H   0  0  0  0  0  0  0  0  0  0  0  0
  1  2  1  0
  2  3  2  0
  3  4  1  0
  4  5  2  0
  5  6  1  0
  6  7  2  0
  7  8  1  0
  8  9  1  0
  9 10  1  0
 10 11  2  0
 11 12  1  0
 12 13  2  0
 13 14  1  0
 14 15  2  0
 14 16  2  0
 14 17  1  0
 17 18  1  0
 18 19  1  0
 19 20  1  0
 20 21  1  0
 21 22  1  0
 22 23  1  6
 22 24  1  0
 24 25  2  0
 24 26  1  0
 26 27  1  0
 13 28  1  0
 28 29  2  0
  7  2  1  0
 29 10  1  0
 22 17  1  0
  1 30  1  0
  1 31  1  0
  1 32  1  0
  3 33  1  0
  4 34  1  0
  5 35  1  0
  6 36  1  0
  8 37  1  0
  8 38  1  0
 11 39  1  0
 12 40  1  0
 17 41  1  6
 18 42  1  0
 18 43  1  0
 19 44  1  0
 19 45  1  0
 21 46  1  0
 21 47  1  0
 23 48  1  0
 26 49  1  0
 27 50  1  0
 28 51  1  0
 29 52  1  0
M  END
$$$$
