@<TRIPOS>MOLECULE
*****
 58 60 0 0 0
SMALL
GASTEIGER

@<TRIPOS>ATOM
      1 C           9.3676    3.1693    0.2164 C.3     1  UNL1        0.0789
      2 O           8.3118    2.7714    1.0349 O.3     1  UNL1       -0.4937
      3 C           7.4526    1.7146    0.7919 C.ar    1  UNL1        0.1384
      4 C           7.6514    0.9803   -0.3682 C.ar    1  UNL1       -0.0178
      5 C           6.8403   -0.0761   -0.6719 C.ar    1  UNL1       -0.0461
      6 C           5.7961   -0.4393    0.1765 C.ar    1  UNL1        0.0383
      7 C           4.9730   -1.5715   -0.2174 C.2     1  UNL1        0.2444
      8 O           5.1829   -2.1731   -1.3084 O.2     1  UNL1       -0.2702
      9 N           3.9273   -2.0373    0.5837 N.am    1  UNL1       -0.3072
     10 C           3.0417   -3.1373    0.3063 C.3     1  UNL1        0.0372
     11 C           2.0133   -2.6760   -0.6667 C.ar    1  UNL1       -0.0296
     12 C           2.1468   -2.8360   -2.0091 C.ar    1  UNL1       -0.0570
     13 C           1.1598   -2.3753   -2.8479 C.ar    1  UNL1       -0.0607
     14 C           0.0157   -1.7420   -2.3335 C.ar    1  UNL1       -0.0496
     15 C          -0.1335   -1.5744   -0.9919 C.ar    1  UNL1        0.0373
     16 C          -1.2805   -0.9353   -0.3757 C.2     1  UNL1        0.2483
     17 O          -1.3087   -0.8313    0.8947 O.2     1  UNL1       -0.2699
     18 N          -2.3918   -0.4080   -1.0821 N.am    1  UNL1       -0.2815
     19 C          -3.5273    0.2180   -0.5650 C.ar    1  UNL1        0.0337
     20 C          -4.4826    0.6455   -1.4901 C.ar    1  UNL1       -0.0402
     21 C          -5.6440    1.2755   -1.1074 C.ar    1  UNL1       -0.0556
     22 C          -5.9027    1.5067    0.2203 C.ar    1  UNL1       -0.0333
     23 C          -7.1438    2.1834    0.6718 C.3     1  UNL1        0.0235
     24 N          -8.2269    1.2526    0.9234 N.3     1  UNL1       -0.3042
     25 C          -8.5098    0.5501   -0.2992 C.3     1  UNL1       -0.0127
     26 C          -7.9413    0.3854    2.0238 C.3     1  UNL1       -0.0127
     27 C          -4.9929    1.1042    1.1681 C.ar    1  UNL1       -0.0556
     28 C          -3.8349    0.4729    0.7434 C.ar    1  UNL1       -0.0402
     29 C           0.8736   -2.0473   -0.1836 C.ar    1  UNL1       -0.0449
     30 C           5.6265    0.3064    1.3148 C.ar    1  UNL1       -0.0277
     31 C           6.4429    1.3799    1.6329 C.ar    1  UNL1        0.0832
     32 CL          6.1794    2.2933    3.0958 Cl      1  UNL1       -0.0797
     33 H          10.2608    2.5392    0.3403 H       1  UNL1        0.0660
     34 H           9.0908    3.1535   -0.8648 H       1  UNL1        0.0660
     35 H           9.5944    4.2444    0.4594 H       1  UNL1        0.0660
     36 H           8.4501    1.2326   -1.0479 H       1  UNL1        0.0655
     37 H           6.9951   -0.6594   -1.5892 H       1  UNL1        0.0626
     38 H           3.7589   -1.5276    1.5018 H       1  UNL1        0.1493
     39 H           3.5899   -4.0273   -0.0875 H       1  UNL1        0.0512
     40 H           2.5194   -3.4350    1.2363 H       1  UNL1        0.0512
     41 H           3.0270   -3.3341   -2.4216 H       1  UNL1        0.0621
     42 H           1.2833   -2.5104   -3.9034 H       1  UNL1        0.0618
     43 H          -0.7321   -1.3950   -3.0064 H       1  UNL1        0.0625
     44 H          -2.2891   -0.5358   -2.1440 H       1  UNL1        0.1551
     45 H          -4.3506    0.4993   -2.5514 H       1  UNL1        0.0636
     46 H          -6.3930    1.6117   -1.8238 H       1  UNL1        0.0621
     47 H          -6.9509    2.7171    1.6289 H       1  UNL1        0.0475
     48 H          -7.4153    2.9216   -0.1076 H       1  UNL1        0.0475
     49 H          -9.4299   -0.0784   -0.1246 H       1  UNL1        0.0391
     50 H          -8.7491    1.2415   -1.1399 H       1  UNL1        0.0391
     51 H          -7.6628   -0.0892   -0.6325 H       1  UNL1        0.0391
     52 H          -7.1567   -0.3489    1.8158 H       1  UNL1        0.0391
     53 H          -7.6026    1.0058    2.9052 H       1  UNL1        0.0391
     54 H          -8.8523   -0.1385    2.3963 H       1  UNL1        0.0391
     55 H          -5.1626    1.2691    2.2187 H       1  UNL1        0.0621
     56 H          -3.1467    0.1730    1.5218 H       1  UNL1        0.0636
     57 H           0.8027   -1.9387    0.8889 H       1  UNL1        0.0628
     58 H           4.8395    0.0606    1.9884 H       1  UNL1        0.0641
@<TRIPOS>BOND
     1     1     2    1
     2     2     3    1
     3     3     4   ar
     4     4     5   ar
     5     5     6   ar
     6     6     7    1
     7     7     8    2
     8     7     9   am
     9     9    10    1
    10    10    11    1
    11    11    12   ar
    12    12    13   ar
    13    13    14   ar
    14    14    15   ar
    15    15    16    1
    16    16    17    2
    17    16    18   am
    18    18    19    1
    19    19    20   ar
    20    20    21   ar
    21    21    22   ar
    22    22    23    1
    23    23    24    1
    24    24    25    1
    25    24    26    1
    26    22    27   ar
    27    27    28   ar
    28    15    29   ar
    29     6    30   ar
    30    30    31   ar
    31    31    32    1
    32    31     3   ar
    33    29    11   ar
    34    28    19   ar
    35     1    33    1
    36     1    34    1
    37     1    35    1
    38     4    36    1
    39     5    37    1
    40     9    38    1
    41    10    39    1
    42    10    40    1
    43    12    41    1
    44    13    42    1
    45    14    43    1
    46    18    44    1
    47    20    45    1
    48    21    46    1
    49    23    47    1
    50    23    48    1
    51    25    49    1
    52    25    50    1
    53    25    51    1
    54    26    52    1
    55    26    53    1
    56    26    54    1
    57    27    55    1
    58    28    56    1
    59    29    57    1
    60    30    58    1
