
     RDKit          3D

 58 60  0  0  0  0  0  0  0  0999 V2000
    9.3676    3.1693    0.2164 C   0  0  0  0  0  0  0  0  0  0  0  0
    8.3118    2.7714    1.0349 O   0  0  0  0  0  0  0  0  0  0  0  0
    7.4526    1.7146    0.7919 C   0  0  0  0  0  0  0  0  0  0  0  0
    7.6514    0.9803   -0.3682 C   0  0  0  0  0  0  0  0  0  0  0  0
    6.8403   -0.0761   -0.6719 C   0  0  0  0  0  0  0  0  0  0  0  0
    5.7961   -0.4393    0.1765 C   0  0  0  0  0  0  0  0  0  0  0  0
    4.9730   -1.5715   -0.2174 C   0  0  0  0  0  0  0  0  0  0  0  0
    5.1829   -2.1731   -1.3084 O   0  0  0  0  0  0  0  0  0  0  0  0
    3.9273   -2.0373    0.5837 N   0  0  0  0  0  0  0  0  0  0  0  0
    3.0417   -3.1373    0.3063 C   0  0  0  0  0  0  0  0  0  0  0  0
    2.0133   -2.6760   -0.6667 C   0  0  0  0  0  0  0  0  0  0  0  0
    2.1468   -2.8360   -2.0091 C   0  0  0  0  0  0  0  0  0  0  0  0
    1.1598   -2.3753   -2.8479 C   0  0  0  0  0  0  0  0  0  0  0  0
    0.0157   -1.7420   -2.3335 C   0  0  0  0  0  0  0  0  0  0  0  0
   -0.1335   -1.5744   -0.9919 C   0  0  0  0  0  0  0  0  0  0  0  0
   -1.2805   -0.9353   -0.3757 C   0  0  0  0  0  0  0  0  0  0  0  0
   -1.3087   -0.8313    0.8947 O   0  0  0  0  0  0  0  0  0  0  0  0
   -2.3918   -0.4080   -1.0821 N   0  0  0  0  0  0  0  0  0  0  0  0
   -3.5273    0.2180   -0.5650 C   0  0  0  0  0  0  0  0  0  0  0  0
   -4.4826    0.6455   -1.4901 C   0  0  0  0  0  0  0  0  0  0  0  0
   -5.6440    1.2755   -1.1074 C   0  0  0  0  0  0  0  0  0  0  0  0
   -5.9027    1.5067    0.2203 C   0  0  0  0  0  0  0  0  0  0  0  0
   -7.1438    2.1834    0.6718 C   0  0  0  0  0  0  0  0  0  0  0  0
   -8.2269    1.2526    0.9234 N   0  0  0  0  0  0  0  0  0  0  0  0
   -8.5098    0.5501   -0.2992 C   0  0  0  0  0  0  0  0  0  0  0  0
   -7.9413    0.3854    2.0238 C   0  0  0  0  0  0  0  0  0  0  0  0
   -4.9929    1.1042    1.1681 C   0  0  0  0  0  0  0  0  0  0  0  0
   -3.8349    0.4729    0.7434 C   0  0  0  0  0  0  0  0  0  0  0  0
    0.8736   -2.0473   -0.1836 C   0  0  0  0  0  0  0  0  0  0  0  0
    5.6265    0.3064    1.3148 C   0  0  0  0  0  0  0  0  0  0  0  0
    6.4429    1.3799    1.6329 C   0  0  0  0  0  0  0  0  0  0  0  0
    6.1794    2.2933    3.0958 Cl  0  0  0  0  0  0  0  0  0  0  0  0
   10.2608    2.5392    0.3403 H   0  0  0  0  0  0  0  0  0  0  0  0
    9.0908    3.1535   -0.8648 H   0  0  0  0  0  0  0  0  0  0  0  0
    9.5944    4.2444    0.4594 H   0  0  0  0  0  0  0  0  0  0  0  0
    8.4501    1.2326   -1.0479 H   0  0  0  0  0  0  0  0  0  0  0  0
    6.9951   -0.6594   -1.5892 H   0  0  0  0  0  0  0  0  0  0  0  0
    3.7589   -1.5276    1.5018 H   0  0  0  0  0  0  0  0  0  0  0  0
    3.5899   -4.0273   -0.0875 H   0  0  0  0  0  0  0  0  0  0  0  0
    2.5194   -3.4350    1.2363 H   0  0  0  0  0  0  0  0  0  0  0  0
    3.0270   -3.3341   -2.4216 H   0  0  0  0  0  0  0  0  0  0  0  0
    1.2833   -2.5104   -3.9034 H   0  0  0  0  0  0  0  0  0  0  0  0
   -0.7321   -1.3950   -3.0064 H   0  0  0  0  0  0  0  0  0  0  0  0
   -2.2891   -0.5358   -2.1440 H   0  0  0  0  0  0  0  0  0  0  0  0
   -4.3506    0.4993   -2.5514 H   0  0  0  0  0  0  0  0  0  0  0  0
   -6.3930    1.6117   -1.8238 H   0  0  0  0  0  0  0  0  0  0  0  0
   -6.9509    2.7171    1.6289 H   0  0  0  0  0  0  0  0  0  0  0  0
   -7.4153    2.9216   -0.1076 H   0  0  0  0  0  0  0  0  0  0  0  0
   -9.4299   -0.0784   -0.1246 H   0  0  0  0  0  0  0  0  0  0  0  0
   -8.7491    1.2415   -1.1399 H   0  0  0  0  0  0  0  0  0  0  0  0
   -7.6628   -0.0892   -0.6325 H   0  0  0  0  0  0  0  0  0  0  0  0
   -7.1567   -0.3489    1.8158 H   0  0  0  0  0  0  0  0  0  0  0  0
   -7.6026    1.0058    2.9052 H   0  0  0  0  0  0  0  0  0  0  0  0
   -8.8523   -0.1385    2.3963 H   0  0  0  0  0  0  0  0  0  0  0  0
   -5.1626    1.2691    2.2187 H   0  0  0  0  0  0  0  0  0  0  0  0
   -3.1467    0.1730    1.5218 H   0  0  0  0  0  0  0  0  0  0  0  0
    0.8027   -1.9387    0.8889 H   0  0  0  0  0  0  0  0  0  0  0  0
    4.8395    0.0606    1.9884 H   0  0  0  0  0  0  0  0  0  0  0  0
  1  2  1  0
  2  3  1  0
  3  4  2  0
  4  5  1  0
  5  6  2  0
  6  7  1  0
  7  8  2  0
  7  9  1  0
  9 10  1  0
 10 11  1  0
 11 12  2  0
 12 13  1  0
 13 14  2  0
 14 15  1  0
 15 16  1  0
 16 17  2  0
 16 18  1  0
 18 19  1  0
 19 20  2  0
 20 21  1  0
 21 22  2  0
 22 23  1  0
 23 24  1  0
 24 25  1  0
 24 26  1  0
 22 27  1  0
 27 28  2  0
 15 29  2  0
  6 30  1  0
 30 31  2  0
 31 32  1  0
 31  3  1  0
 29 11  1  0
 28 19  1  0
  1 33  1  0
  1 34  1  0
  1 35  1  0
  4 36  1  0
  5 37  1  0
  9 38  1  0
 10 39  1  0
 10 40  1  0
 12 41  1  0
 13 42  1  0
 14 43  1  0
 18 44  1  0
 20 45  1  0
 21 46  1  0
 23 47  1  0
 23 48  1  0
 25 49  1  0
 25 50  1  0
 25 51  1  0
 26 52  1  0
 26 53  1  0
 26 54  1  0
 27 55  1  0
 28 56  1  0
 29 57  1  0
 30 58  1  0
M  END
$$$$
