@<TRIPOS>MOLECULE
*****
 30 32 0 0 0
SMALL
GASTEIGER

@<TRIPOS>ATOM
      1 C          -4.7352    0.8956   -0.2816 C.3     1  UNL1       -0.0396
      2 C          -3.3869    0.2828   -0.2201 C.ar    1  UNL1       -0.0463
      3 C          -3.1713   -1.0804   -0.1360 C.ar    1  UNL1       -0.0165
      4 C          -1.9081   -1.6233   -0.0802 C.ar    1  UNL1        0.1286
      5 O          -1.7722   -2.9993    0.0032 O.3     1  UNL1       -0.5060
      6 C          -0.8289   -0.7677   -0.1100 C.ar    1  UNL1        0.0745
      7 C          -0.9863    0.6140   -0.1941 C.ar    1  UNL1        0.0368
      8 C          -2.2814    1.1043   -0.2474 C.ar    1  UNL1       -0.0471
      9 C           0.1739    1.5056   -0.2245 C.2     1  UNL1        0.1949
     10 O          -0.0023    2.7476   -0.3008 O.2     1  UNL1       -0.2866
     11 C           1.5079    0.9028   -0.1639 C.ar    1  UNL1        0.0400
     12 C           2.6243    1.7144   -0.1904 C.ar    1  UNL1       -0.0084
     13 C           3.9186    1.1984   -0.1356 C.ar    1  UNL1        0.1210
     14 O           5.0227    2.0646   -0.1655 O.3     1  UNL1       -0.5066
     15 C           4.1050   -0.1635   -0.0521 C.ar    1  UNL1        0.0221
     16 C           2.9858   -0.9660   -0.0261 C.ar    1  UNL1        0.1318
     17 O           3.1672   -2.3506    0.0586 O.3     1  UNL1       -0.5059
     18 C           1.7076   -0.4508   -0.0806 C.ar    1  UNL1        0.0748
     19 C           0.5262   -1.3048   -0.0528 C.2     1  UNL1        0.2015
     20 O           0.6771   -2.5659    0.0241 O.2     1  UNL1       -0.2864
     21 H          -4.9974    1.3704    0.7001 H       1  UNL1        0.0278
     22 H          -4.7426    1.7249   -1.0212 H       1  UNL1        0.0278
     23 H          -5.5181    0.1646   -0.5970 H       1  UNL1        0.0278
     24 H          -4.0257   -1.7412   -0.1133 H       1  UNL1        0.0657
     25 H          -2.0095   -3.5502    0.8096 H       1  UNL1        0.2922
     26 H          -2.3792    2.1894   -0.3130 H       1  UNL1        0.0627
     27 H           2.4628    2.7816   -0.2561 H       1  UNL1        0.0661
     28 H           5.9345    1.6750   -0.2742 H       1  UNL1        0.2921
     29 H           5.1082   -0.6061   -0.0071 H       1  UNL1        0.0691
     30 H           2.8232   -2.7662    0.9375 H       1  UNL1        0.2922
@<TRIPOS>BOND
     1     1     2    1
     2     2     3   ar
     3     3     4   ar
     4     4     5    1
     5     4     6   ar
     6     6     7   ar
     7     7     8   ar
     8     7     9    1
     9     9    10    2
    10     9    11    1
    11    11    12   ar
    12    12    13   ar
    13    13    14    1
    14    13    15   ar
    15    15    16   ar
    16    16    17    1
    17    16    18   ar
    18    18    19    1
    19    19    20    2
    20     8     2   ar
    21    18    11   ar
    22    19     6    1
    23     1    21    1
    24     1    22    1
    25     1    23    1
    26     3    24    1
    27     5    25    1
    28     8    26    1
    29    12    27    1
    30    14    28    1
    31    15    29    1
    32    17    30    1
