@<TRIPOS>MOLECULE
*****
 60 64 0 0 0
SMALL
GASTEIGER

@<TRIPOS>ATOM
      1 O           2.1519   -0.2824    2.8981 O.2     1  UNL1       -0.2753
      2 C           2.2233   -0.0017    1.6124 C.2     1  UNL1        0.2193
      3 C           3.5071    0.4666    1.1320 C.3     1  UNL1        0.0431
      4 C           3.6681    1.5351    0.1187 C.3     1  UNL1       -0.0338
      5 C           4.1544    0.1009   -0.1487 C.3     1  UNL1       -0.0040
      6 C           5.6571   -0.0080   -0.1963 C.ar    1  UNL1       -0.0435
      7 C           6.2060   -0.8434   -1.1363 C.ar    1  UNL1       -0.0578
      8 C           7.5838   -0.9995   -1.2478 C.ar    1  UNL1       -0.0499
      9 C           8.4201   -0.3055   -0.4019 C.ar    1  UNL1        0.0548
     10 C           9.9057   -0.4759   -0.5246 C.3     1  UNL1        0.4174
     11 F          10.3770   -0.7437    0.7500 F       1  UNL1       -0.1659
     12 F          10.4418    0.7129   -0.9841 F       1  UNL1       -0.1659
     13 F          10.1656   -1.5171   -1.3915 F       1  UNL1       -0.1659
     14 C           7.8630    0.5236    0.5303 C.ar    1  UNL1       -0.0499
     15 C           6.4885    0.6765    0.6382 C.ar    1  UNL1       -0.0578
     16 N           1.0056   -0.2218    0.9656 N.am    1  UNL1       -0.2987
     17 C          -0.1741   -0.7191    1.7336 C.3     1  UNL1        0.0291
     18 C          -1.3959   -0.6290    0.8828 C.3     1  UNL1        0.0363
     19 N          -1.5493    0.5549    0.1079 N.3     1  UNL1       -0.1736
     20 S          -2.5840    0.2760   -1.2651 S.O2    1  UNL1        0.0610
     21 O          -2.0568   -0.7976   -2.1418 O.2     1  UNL1       -0.1528
     22 O          -2.6905    1.5759   -2.0129 O.2     1  UNL1       -0.1528
     23 C          -4.1981   -0.2029   -0.7271 C.ar    1  UNL1        0.1067
     24 C          -5.1846    0.7047   -0.4881 C.ar    1  UNL1       -0.0246
     25 C          -6.4605    0.3891   -0.0674 C.ar    1  UNL1        0.0214
     26 C          -7.4892    1.3623    0.1798 C.ar    1  UNL1        0.1615
     27 N          -8.7351    1.1077    0.5867 N.ar    1  UNL1       -0.1296
     28 N          -9.4061    2.2681    0.7087 N.ar    1  UNL1       -0.1377
     29 C          -8.5758    3.2648    0.3756 C.ar    1  UNL1        0.1175
     30 N          -7.4046    2.6912    0.0540 N.ar    1  UNL1       -0.3277
     31 C          -6.7142   -0.9705    0.1131 C.ar    1  UNL1       -0.0393
     32 C          -5.7538   -1.9320   -0.1138 C.ar    1  UNL1        0.0573
     33 C          -6.0078   -3.3864    0.0740 C.3     1  UNL1        0.4175
     34 F          -7.3034   -3.6439    0.4210 F       1  UNL1       -0.1659
     35 F          -5.1437   -3.9296    1.0285 F       1  UNL1       -0.1659
     36 F          -5.6910   -4.0248   -1.1244 F       1  UNL1       -0.1659
     37 C          -4.4998   -1.5421   -0.5332 C.ar    1  UNL1       -0.0237
     38 C          -0.3305    1.1298   -0.4064 C.3     1  UNL1        0.0363
     39 C           0.6987   -0.0187   -0.4248 C.3     1  UNL1        0.0291
     40 H           4.2956    0.5593    1.9655 H       1  UNL1        0.0400
     41 H           2.8689    1.9344   -0.5007 H       1  UNL1        0.0279
     42 H           4.4792    2.3155    0.2617 H       1  UNL1        0.0279
     43 H           3.6675   -0.4727   -0.9235 H       1  UNL1        0.0356
     44 H           5.5729   -1.4179   -1.8334 H       1  UNL1        0.0620
     45 H           7.9817   -1.6626   -1.9957 H       1  UNL1        0.0623
     46 H           8.5083    1.0677    1.1929 H       1  UNL1        0.0623
     47 H           6.0754    1.3323    1.3753 H       1  UNL1        0.0620
     48 H           0.0171   -1.8104    1.9360 H       1  UNL1        0.0478
     49 H          -0.2580   -0.1603    2.6699 H       1  UNL1        0.0478
     50 H          -1.5028   -1.5549    0.2492 H       1  UNL1        0.0459
     51 H          -2.2694   -0.7223    1.6052 H       1  UNL1        0.0459
     52 H          -4.9611    1.7505   -0.6357 H       1  UNL1        0.0644
     53 H          -8.8242    4.3024    0.3752 H       1  UNL1        0.1046
     54 H          -6.5410    3.2112   -0.2538 H       1  UNL1        0.1683
     55 H          -7.7102   -1.2756    0.4459 H       1  UNL1        0.0630
     56 H          -3.7282   -2.2649   -0.7192 H       1  UNL1        0.0642
     57 H           0.0125    1.9242    0.3087 H       1  UNL1        0.0459
     58 H          -0.4748    1.5493   -1.4070 H       1  UNL1        0.0459
     59 H           1.5099    0.1864   -1.0993 H       1  UNL1        0.0478
     60 H           0.1113   -0.9363   -0.7583 H       1  UNL1        0.0478
@<TRIPOS>BOND
     1     1     2    2
     2     2     3    1
     3     3     4    1
     4     4     5    1
     5     5     6    1
     6     6     7   ar
     7     7     8   ar
     8     8     9   ar
     9     9    10    1
    10    10    11    1
    11    10    12    1
    12    10    13    1
    13     9    14   ar
    14    14    15   ar
    15     2    16   am
    16    16    17    1
    17    17    18    1
    18    18    19    1
    19    19    20    1
    20    20    21    2
    21    20    22    2
    22    20    23    1
    23    23    24   ar
    24    24    25   ar
    25    25    26    1
    26    26    27   ar
    27    27    28   ar
    28    28    29   ar
    29    29    30   ar
    30    25    31   ar
    31    31    32   ar
    32    32    33    1
    33    33    34    1
    34    33    35    1
    35    33    36    1
    36    32    37   ar
    37    19    38    1
    38    38    39    1
    39     5     3    1
    40    15     6   ar
    41    39    16    1
    42    37    23   ar
    43    30    26   ar
    44     3    40    1
    45     4    41    1
    46     4    42    1
    47     5    43    1
    48     7    44    1
    49     8    45    1
    50    14    46    1
    51    15    47    1
    52    17    48    1
    53    17    49    1
    54    18    50    1
    55    18    51    1
    56    24    52    1
    57    29    53    1
    58    30    54    1
    59    31    55    1
    60    37    56    1
    61    38    57    1
    62    38    58    1
    63    39    59    1
    64    39    60    1
