@<TRIPOS>MOLECULE
*****
 45 47 0 0 0
SMALL
GASTEIGER

@<TRIPOS>ATOM
      1 O           3.7224    2.7439   -3.2887 O.2     1  UNL1       -0.1498
      2 S           3.9843    1.5654   -2.4261 S.O2    1  UNL1        0.0766
      3 O           4.9266    0.6389   -3.1761 O.2     1  UNL1       -0.1498
      4 N           4.7652    2.0577   -0.9844 N.pl3   1  UNL1       -0.1937
      5 C           5.2518    1.0413   -0.0748 C.ar    1  UNL1        0.1774
      6 N           5.8034    0.9068    0.9476 N.ar    1  UNL1       -0.2321
      7 C           6.1506   -0.1747    1.5992 C.ar    1  UNL1        0.0369
      8 C           5.8014   -1.3414    0.9619 C.ar    1  UNL1       -0.0030
      9 S           4.9977   -0.7815   -0.5308 S.2     1  UNL1       -0.0594
     10 C           2.5390    0.6459   -2.0682 C.ar    1  UNL1        0.1450
     11 C           2.3672   -0.6513   -2.4868 C.ar    1  UNL1       -0.0121
     12 C           1.2181   -1.3307   -2.1817 C.ar    1  UNL1        0.0638
     13 CL          1.0164   -2.9950   -2.7279 Cl      1  UNL1       -0.0816
     14 C           0.1879   -0.7636   -1.4516 C.ar    1  UNL1        0.0485
     15 N          -0.9922   -1.4927   -1.1793 N.pl3   1  UNL1       -0.3426
     16 C          -2.0912   -0.9699   -0.4019 C.3     1  UNL1        0.0095
     17 C          -1.7201   -0.9285    1.0392 C.3     1  UNL1       -0.0325
     18 C          -2.8327   -0.3724    1.9138 C.3     1  UNL1       -0.0161
     19 C          -3.2242    1.0215    1.5562 C.3     1  UNL1       -0.0460
     20 C          -4.5132    1.1429    0.8151 C.3     1  UNL1       -0.0291
     21 C          -5.5543    0.1440    1.1938 C.3     1  UNL1        0.0477
     22 O          -5.1948   -0.6266    2.2766 O.3     1  UNL1       -0.3795
     23 C          -4.0095   -1.3285    1.9801 C.3     1  UNL1        0.0505
     24 C           0.3633    0.5343   -1.0353 C.ar    1  UNL1       -0.0022
     25 C           1.5281    1.2285   -1.3420 C.ar    1  UNL1        0.1517
     26 F           1.6527    2.5065   -0.9074 F       1  UNL1       -0.2034
     27 H           4.9070    3.0667   -0.7307 H       1  UNL1        0.1758
     28 H           6.6831   -0.1870    2.5852 H       1  UNL1        0.0835
     29 H           5.9653   -2.4312    1.2740 H       1  UNL1        0.0710
     30 H           3.1649   -1.1101   -3.0598 H       1  UNL1        0.0653
     31 H          -1.0523   -2.4685   -1.5745 H       1  UNL1        0.1461
     32 H          -2.2889    0.0738   -0.7562 H       1  UNL1        0.0461
     33 H          -2.9852   -1.5760   -0.6175 H       1  UNL1        0.0461
     34 H          -1.5848   -1.9911    1.4279 H       1  UNL1        0.0284
     35 H          -0.7948   -0.4264    1.2732 H       1  UNL1        0.0284
     36 H          -2.4068   -0.3505    2.9518 H       1  UNL1        0.0323
     37 H          -3.2862    1.6624    2.4778 H       1  UNL1        0.0269
     38 H          -2.4309    1.4924    0.9231 H       1  UNL1        0.0269
     39 H          -4.9453    2.1624    1.0401 H       1  UNL1        0.0287
     40 H          -4.3766    1.1650   -0.3056 H       1  UNL1        0.0287
     41 H          -6.5537    0.6013    1.3859 H       1  UNL1        0.0560
     42 H          -5.7130   -0.5427    0.3111 H       1  UNL1        0.0560
     43 H          -4.1255   -1.9118    1.0431 H       1  UNL1        0.0562
     44 H          -3.8914   -2.0761    2.7986 H       1  UNL1        0.0562
     45 H          -0.4287    1.0355   -0.4679 H       1  UNL1        0.0666
@<TRIPOS>BOND
     1     1     2    2
     2     2     3    2
     3     2     4    1
     4     4     5    1
     5     5     6   ar
     6     6     7   ar
     7     7     8   ar
     8     8     9   ar
     9     2    10    1
    10    10    11   ar
    11    11    12   ar
    12    12    13    1
    13    12    14   ar
    14    14    15    1
    15    15    16    1
    16    16    17    1
    17    17    18    1
    18    18    19    1
    19    19    20    1
    20    20    21    1
    21    21    22    1
    22    22    23    1
    23    14    24   ar
    24    24    25   ar
    25    25    26    1
    26     9     5   ar
    27    25    10   ar
    28    23    18    1
    29     4    27    1
    30     7    28    1
    31     8    29    1
    32    11    30    1
    33    15    31    1
    34    16    32    1
    35    16    33    1
    36    17    34    1
    37    17    35    1
    38    18    36    1
    39    19    37    1
    40    19    38    1
    41    20    39    1
    42    20    40    1
    43    21    41    1
    44    21    42    1
    45    23    43    1
    46    23    44    1
    47    24    45    1
