@<TRIPOS>MOLECULE
*****
 31 33 0 0 0
SMALL
GASTEIGER

@<TRIPOS>ATOM
      1 O          -6.0076    0.5753    0.3384 O.3     1  UNL1       -0.5068
      2 C          -4.6619    0.2866    0.1618 C.ar    1  UNL1        0.1169
      3 C          -3.7175    1.1478    0.6776 C.ar    1  UNL1       -0.0195
      4 C          -2.3724    0.8882    0.5185 C.ar    1  UNL1       -0.0475
      5 C          -1.8893   -0.2173   -0.1474 C.ar    1  UNL1        0.0213
      6 C          -2.8741   -1.0308   -0.6344 C.ar    1  UNL1       -0.0475
      7 C          -4.2292   -0.8339   -0.5129 C.ar    1  UNL1       -0.0195
      8 C          -0.4553   -0.3686   -0.2417 C.ar    1  UNL1        0.1806
      9 C           0.2585   -1.3716   -0.8464 C.ar    1  UNL1        0.2082
     10 O          -0.4294   -2.3911   -1.4577 O.3     1  UNL1       -0.5007
     11 C           1.6304   -1.4576   -0.9012 C.ar    1  UNL1        0.2379
     12 O           2.2079   -2.4086   -1.4743 O.2     1  UNL1       -0.2830
     13 C           2.3733   -0.4623   -0.3046 C.ar    1  UNL1        0.1092
     14 C           1.6077    0.5190    0.2872 C.ar    1  UNL1        0.1465
     15 O           0.2973    0.5514    0.3097 O.2     1  UNL1       -0.4507
     16 C           2.2655    1.5696    0.9173 C.ar    1  UNL1        0.0231
     17 C           3.6443    1.6182    0.9433 C.ar    1  UNL1        0.1239
     18 O           4.2423    2.6813    1.5810 O.3     1  UNL1       -0.5065
     19 C           4.3626    0.6151    0.3386 C.ar    1  UNL1        0.0223
     20 C           3.7518   -0.4459   -0.2979 C.ar    1  UNL1        0.1348
     21 O           4.4153   -1.4895   -0.9268 O.3     1  UNL1       -0.5058
     22 H          -6.4738    0.1890    1.1571 H       1  UNL1        0.2921
     23 H          -4.0706    2.0213    1.2036 H       1  UNL1        0.0654
     24 H          -1.7163    1.6472    0.9734 H       1  UNL1        0.0626
     25 H          -2.5850   -1.9178   -1.1685 H       1  UNL1        0.0626
     26 H          -4.9368   -1.5283   -0.9289 H       1  UNL1        0.0654
     27 H          -0.1698   -2.5783   -2.4328 H       1  UNL1        0.2924
     28 H           1.6949    2.3660    1.3973 H       1  UNL1        0.0691
     29 H           3.8275    3.6014    1.6444 H       1  UNL1        0.2921
     30 H           5.4516    0.6282    0.3439 H       1  UNL1        0.0691
     31 H           4.5583   -2.4042   -0.5174 H       1  UNL1        0.2922
@<TRIPOS>BOND
     1     1     2    1
     2     2     3   ar
     3     3     4   ar
     4     4     5   ar
     5     5     6   ar
     6     6     7   ar
     7     5     8    1
     8     8     9   ar
     9     9    10    1
    10     9    11   ar
    11    11    12    2
    12    11    13   ar
    13    13    14   ar
    14    14    15   ar
    15    14    16   ar
    16    16    17   ar
    17    17    18    1
    18    17    19   ar
    19    19    20   ar
    20    20    21    1
    21     7     2   ar
    22    15     8   ar
    23    20    13   ar
    24     1    22    1
    25     3    23    1
    26     4    24    1
    27     6    25    1
    28     7    26    1
    29    10    27    1
    30    16    28    1
    31    18    29    1
    32    19    30    1
    33    21    31    1
