
     RDKit          3D

 31 33  0  0  0  0  0  0  0  0999 V2000
   -6.0076    0.5753    0.3384 O   0  0  0  0  0  0  0  0  0  0  0  0
   -4.6619    0.2866    0.1618 C   0  0  0  0  0  0  0  0  0  0  0  0
   -3.7175    1.1478    0.6776 C   0  0  0  0  0  0  0  0  0  0  0  0
   -2.3724    0.8882    0.5185 C   0  0  0  0  0  0  0  0  0  0  0  0
   -1.8893   -0.2173   -0.1474 C   0  0  0  0  0  0  0  0  0  0  0  0
   -2.8741   -1.0308   -0.6344 C   0  0  0  0  0  0  0  0  0  0  0  0
   -4.2292   -0.8339   -0.5129 C   0  0  0  0  0  0  0  0  0  0  0  0
   -0.4553   -0.3686   -0.2417 C   0  0  0  0  0  0  0  0  0  0  0  0
    0.2585   -1.3716   -0.8464 C   0  0  0  0  0  0  0  0  0  0  0  0
   -0.4294   -2.3911   -1.4577 O   0  0  0  0  0  0  0  0  0  0  0  0
    1.6304   -1.4576   -0.9012 C   0  0  0  0  0  0  0  0  0  0  0  0
    2.2079   -2.4086   -1.4743 O   0  0  0  0  0  0  0  0  0  0  0  0
    2.3733   -0.4623   -0.3046 C   0  0  0  0  0  0  0  0  0  0  0  0
    1.6077    0.5190    0.2872 C   0  0  0  0  0  0  0  0  0  0  0  0
    0.2973    0.5514    0.3097 O   0  0  0  0  0  0  0  0  0  0  0  0
    2.2655    1.5696    0.9173 C   0  0  0  0  0  0  0  0  0  0  0  0
    3.6443    1.6182    0.9433 C   0  0  0  0  0  0  0  0  0  0  0  0
    4.2423    2.6813    1.5810 O   0  0  0  0  0  0  0  0  0  0  0  0
    4.3626    0.6151    0.3386 C   0  0  0  0  0  0  0  0  0  0  0  0
    3.7518   -0.4459   -0.2979 C   0  0  0  0  0  0  0  0  0  0  0  0
    4.4153   -1.4895   -0.9268 O   0  0  0  0  0  0  0  0  0  0  0  0
   -6.4738    0.1890    1.1571 H   0  0  0  0  0  0  0  0  0  0  0  0
   -4.0706    2.0213    1.2036 H   0  0  0  0  0  0  0  0  0  0  0  0
   -1.7163    1.6472    0.9734 H   0  0  0  0  0  0  0  0  0  0  0  0
   -2.5850   -1.9178   -1.1685 H   0  0  0  0  0  0  0  0  0  0  0  0
   -4.9368   -1.5283   -0.9289 H   0  0  0  0  0  0  0  0  0  0  0  0
   -0.1698   -2.5783   -2.4328 H   0  0  0  0  0  0  0  0  0  0  0  0
    1.6949    2.3660    1.3973 H   0  0  0  0  0  0  0  0  0  0  0  0
    3.8275    3.6014    1.6444 H   0  0  0  0  0  0  0  0  0  0  0  0
    5.4516    0.6282    0.3439 H   0  0  0  0  0  0  0  0  0  0  0  0
    4.5583   -2.4042   -0.5174 H   0  0  0  0  0  0  0  0  0  0  0  0
  1  2  1  0
  2  3  2  0
  3  4  1  0
  4  5  2  0
  5  6  1  0
  6  7  2  0
  5  8  1  0
  8  9  2  0
  9 10  1  0
  9 11  1  0
 11 12  2  0
 11 13  1  0
 13 14  2  0
 14 15  1  0
 14 16  1  0
 16 17  2  0
 17 18  1  0
 17 19  1  0
 19 20  2  0
 20 21  1  0
  7  2  1  0
 15  8  1  0
 20 13  1  0
  1 22  1  0
  3 23  1  0
  4 24  1  0
  6 25  1  0
  7 26  1  0
 10 27  1  0
 16 28  1  0
 18 29  1  0
 19 30  1  0
 21 31  1  0
M  END
$$$$
