@<TRIPOS>MOLECULE
*****
 54 56 0 0 0
SMALL
GASTEIGER

@<TRIPOS>ATOM
      1 C           7.8088   -1.0742    0.1223 C.3     1  UNL1        0.0788
      2 O           6.7321   -1.6202   -0.5838 O.3     1  UNL1       -0.4951
      3 C           5.4219   -1.2842   -0.3260 C.ar    1  UNL1        0.1201
      4 C           5.0491   -0.3693    0.6623 C.ar    1  UNL1       -0.0197
      5 C           3.6955   -0.0824    0.8614 C.ar    1  UNL1       -0.0551
      6 C           2.7271   -0.6984    0.0868 C.ar    1  UNL1       -0.0454
      7 C           1.2755   -0.4226    0.2646 C.3     1  UNL1       -0.0098
      8 C           0.8961    0.7022   -0.6066 C.3     1  UNL1        0.0176
      9 C           1.1999    0.2829   -2.0521 C.3     1  UNL1       -0.0467
     10 C           1.7851    1.9045   -0.3357 C.3     1  UNL1       -0.0467
     11 N          -0.4475    1.1324   -0.5805 N.3     1  UNL1       -0.3080
     12 C          -0.9937    1.5948    0.6386 C.3     1  UNL1        0.0267
     13 C          -2.4197    2.0146    0.5125 C.3     1  UNL1        0.0962
     14 O          -2.8440    2.4505    1.7818 O.3     1  UNL1       -0.3858
     15 C          -3.3308    1.0256   -0.0824 C.ar    1  UNL1        0.0290
     16 C          -3.9524    0.1462    0.7797 C.ar    1  UNL1        0.1482
     17 O          -3.7711    0.1434    2.1349 O.3     1  UNL1       -0.4805
     18 C          -3.9192   -1.0608    2.8657 C.3     1  UNL1        0.1656
     19 C          -5.2378   -1.6612    2.4938 C.2     1  UNL1        0.2549
     20 O          -6.1180   -2.0939    3.2756 O.2     1  UNL1       -0.2717
     21 N          -5.4888   -1.7344    1.0953 N.am    1  UNL1       -0.2797
     22 C          -4.8234   -0.8032    0.2350 C.ar    1  UNL1        0.0795
     23 C          -5.0772   -0.8870   -1.1186 C.ar    1  UNL1        0.0046
     24 C          -4.4597   -0.0113   -1.9879 C.ar    1  UNL1        0.1192
     25 O          -4.6816   -0.0531   -3.3665 O.3     1  UNL1       -0.5067
     26 C          -3.6036    0.9188   -1.4338 C.ar    1  UNL1       -0.0109
     27 C           3.1110   -1.6124   -0.8996 C.ar    1  UNL1       -0.0551
     28 C           4.4593   -1.8987   -1.0985 C.ar    1  UNL1       -0.0197
     29 H           7.6607    0.0164    0.2701 H       1  UNL1        0.0660
     30 H           8.7426   -1.2394   -0.4792 H       1  UNL1        0.0660
     31 H           7.9216   -1.6193    1.0712 H       1  UNL1        0.0660
     32 H           5.8206    0.1044    1.2605 H       1  UNL1        0.0654
     33 H           3.3950    0.6358    1.6366 H       1  UNL1        0.0621
     34 H           0.6742   -1.3343   -0.0151 H       1  UNL1        0.0331
     35 H           1.1219   -0.2879    1.3357 H       1  UNL1        0.0331
     36 H           2.2859    0.2685   -2.2626 H       1  UNL1        0.0247
     37 H           0.7892    1.0888   -2.7012 H       1  UNL1        0.0247
     38 H           0.6717   -0.6522   -2.2700 H       1  UNL1        0.0247
     39 H           1.4586    2.7619   -0.9931 H       1  UNL1        0.0247
     40 H           2.8417    1.7244   -0.6002 H       1  UNL1        0.0247
     41 H           1.7252    2.2212    0.7245 H       1  UNL1        0.0247
     42 H          -0.8180    1.5338   -1.4477 H       1  UNL1        0.1225
     43 H          -0.4484    2.5305    0.9567 H       1  UNL1        0.0453
     44 H          -0.8048    0.8517    1.4378 H       1  UNL1        0.0453
     45 H          -2.4119    2.9565   -0.1054 H       1  UNL1        0.0657
     46 H          -3.8336    2.5812    1.8229 H       1  UNL1        0.2103
     47 H          -3.1480   -1.7647    2.4881 H       1  UNL1        0.0795
     48 H          -3.8460   -0.8943    3.9582 H       1  UNL1        0.0795
     49 H          -6.1425   -2.4439    0.6677 H       1  UNL1        0.1550
     50 H          -5.7504   -1.6202   -1.5430 H       1  UNL1        0.0674
     51 H          -4.9314    0.7822   -3.8748 H       1  UNL1        0.2921
     52 H          -3.1240    1.5990   -2.1089 H       1  UNL1        0.0659
     53 H           2.4154   -2.1312   -1.5412 H       1  UNL1        0.0621
     54 H           4.7421   -2.6176   -1.8760 H       1  UNL1        0.0654
@<TRIPOS>BOND
     1     1     2    1
     2     2     3    1
     3     3     4   ar
     4     4     5   ar
     5     5     6   ar
     6     6     7    1
     7     7     8    1
     8     8     9    1
     9     8    10    1
    10     8    11    1
    11    11    12    1
    12    12    13    1
    13    13    14    1
    14    13    15    1
    15    15    16   ar
    16    16    17    1
    17    17    18    1
    18    18    19    1
    19    19    20    2
    20    19    21   am
    21    21    22    1
    22    22    23   ar
    23    23    24   ar
    24    24    25    1
    25    24    26   ar
    26     6    27   ar
    27    27    28   ar
    28    28     3   ar
    29    26    15   ar
    30    22    16   ar
    31     1    29    1
    32     1    30    1
    33     1    31    1
    34     4    32    1
    35     5    33    1
    36     7    34    1
    37     7    35    1
    38     9    36    1
    39     9    37    1
    40     9    38    1
    41    10    39    1
    42    10    40    1
    43    10    41    1
    44    11    42    1
    45    12    43    1
    46    12    44    1
    47    13    45    1
    48    14    46    1
    49    18    47    1
    50    18    48    1
    51    21    49    1
    52    23    50    1
    53    25    51    1
    54    26    52    1
    55    27    53    1
    56    28    54    1
