@<TRIPOS>MOLECULE
*****
 50 53 0 0 0
SMALL
GASTEIGER

@<TRIPOS>ATOM
      1 C          -7.6063    1.4937    0.5075 C.3     1  UNL1        0.0122
      2 C          -6.8966    0.7642   -0.5684 C.2     1  UNL1        0.2101
      3 O          -7.4482    0.5392   -1.6865 O.2     1  UNL1       -0.2761
      4 N          -5.5708    0.3062   -0.3453 N.am    1  UNL1       -0.3126
      5 C          -4.8266   -0.4045   -1.3397 C.3     1  UNL1        0.0254
      6 C          -3.5834    0.3762   -1.7154 C.3     1  UNL1       -0.0216
      7 C          -2.6575    0.5511   -0.5388 C.3     1  UNL1        0.0009
      8 N          -2.3806   -0.6306    0.1729 N.3     1  UNL1       -0.2980
      9 C          -1.1955   -1.3470   -0.1265 C.3     1  UNL1        0.0240
     10 C           0.0009   -0.5133    0.0892 C.ar    1  UNL1       -0.0331
     11 C           0.5851    0.1996   -0.9310 C.ar    1  UNL1       -0.0539
     12 C           1.7137    0.9798   -0.6574 C.ar    1  UNL1       -0.0190
     13 C           2.2771    1.0767    0.5772 C.ar    1  UNL1        0.1309
     14 O           3.3784    1.8354    0.8540 O.3     1  UNL1       -0.4326
     15 C           4.6892    1.3494    0.7666 C.ar    1  UNL1        0.2627
     16 N           5.8268    1.6396    0.9044 N.ar    1  UNL1       -0.2057
     17 C           6.9097    0.9382    0.7422 C.ar    1  UNL1        0.0820
     18 C           8.2506    1.3423    0.9232 C.ar    1  UNL1       -0.0351
     19 C           9.2318    0.4280    0.6927 C.ar    1  UNL1       -0.0597
     20 C           9.0606   -0.8752    0.2940 C.ar    1  UNL1       -0.0606
     21 C           7.7431   -1.2966    0.1088 C.ar    1  UNL1       -0.0458
     22 C           6.7131   -0.3702    0.3408 C.ar    1  UNL1        0.0425
     23 S           4.9192   -0.4566    0.2349 S.2     1  UNL1       -0.0290
     24 C           1.6866    0.3575    1.6014 C.ar    1  UNL1       -0.0190
     25 C           0.5735   -0.4194    1.3605 C.ar    1  UNL1       -0.0539
     26 C          -3.5258   -1.4696    0.4269 C.3     1  UNL1        0.0009
     27 C          -4.3612   -1.7276   -0.7765 C.3     1  UNL1       -0.0216
     28 H          -7.2575    2.5590    0.4411 H       1  UNL1        0.0322
     29 H          -7.2204    1.1098    1.4802 H       1  UNL1        0.0322
     30 H          -8.7030    1.4193    0.4242 H       1  UNL1        0.0322
     31 H          -5.1466    0.5090    0.5850 H       1  UNL1        0.1490
     32 H          -5.4062   -0.5331   -2.2774 H       1  UNL1        0.0499
     33 H          -3.9222    1.3859   -2.0340 H       1  UNL1        0.0295
     34 H          -3.0395   -0.0732   -2.5502 H       1  UNL1        0.0295
     35 H          -3.1211    1.3086    0.1619 H       1  UNL1        0.0427
     36 H          -1.7310    1.0217   -0.8976 H       1  UNL1        0.0427
     37 H          -1.1789   -1.7991   -1.1413 H       1  UNL1        0.0476
     38 H          -1.1663   -2.2341    0.5727 H       1  UNL1        0.0476
     39 H           0.1975    0.1673   -1.9460 H       1  UNL1        0.0622
     40 H           2.1869    1.5529   -1.4659 H       1  UNL1        0.0654
     41 H           8.5258    2.3341    1.2331 H       1  UNL1        0.0639
     42 H          10.2815    0.7349    0.8316 H       1  UNL1        0.0618
     43 H           9.8420   -1.5911    0.1140 H       1  UNL1        0.0618
     44 H           7.4805   -2.2939   -0.2022 H       1  UNL1        0.0629
     45 H           2.1043    0.4050    2.6074 H       1  UNL1        0.0654
     46 H           0.0833   -0.9972    2.1383 H       1  UNL1        0.0622
     47 H          -3.1087   -2.4659    0.7584 H       1  UNL1        0.0427
     48 H          -4.1644   -1.1357    1.2612 H       1  UNL1        0.0427
     49 H          -5.2526   -2.3079   -0.4552 H       1  UNL1        0.0295
     50 H          -3.7905   -2.3053   -1.5511 H       1  UNL1        0.0295
@<TRIPOS>BOND
     1     1     2    1
     2     2     3    2
     3     2     4   am
     4     4     5    1
     5     5     6    1
     6     6     7    1
     7     7     8    1
     8     8     9    1
     9     9    10    1
    10    10    11   ar
    11    11    12   ar
    12    12    13   ar
    13    13    14    1
    14    14    15    1
    15    15    16   ar
    16    16    17   ar
    17    17    18   ar
    18    18    19   ar
    19    19    20   ar
    20    20    21   ar
    21    21    22   ar
    22    22    23   ar
    23    13    24   ar
    24    24    25   ar
    25     8    26    1
    26    26    27    1
    27    27     5    1
    28    25    10   ar
    29    23    15   ar
    30    22    17   ar
    31     1    28    1
    32     1    29    1
    33     1    30    1
    34     4    31    1
    35     5    32    1
    36     6    33    1
    37     6    34    1
    38     7    35    1
    39     7    36    1
    40     9    37    1
    41     9    38    1
    42    11    39    1
    43    12    40    1
    44    18    41    1
    45    19    42    1
    46    20    43    1
    47    21    44    1
    48    24    45    1
    49    25    46    1
    50    26    47    1
    51    26    48    1
    52    27    49    1
    53    27    50    1
