@<TRIPOS>MOLECULE
*****
 59 63 0 0 0
SMALL
GASTEIGER

@<TRIPOS>ATOM
      1 C          -1.5479   -1.7151    3.1575 C.3     1  UNL1        0.0789
      2 O          -0.7498   -1.1633    2.1137 O.3     1  UNL1       -0.4932
      3 C          -1.3985   -0.5470    1.0747 C.ar    1  UNL1        0.1429
      4 C          -2.7556   -0.4331    0.9844 C.ar    1  UNL1        0.0029
      5 C          -3.4178    0.1790   -0.0461 C.ar    1  UNL1        0.0334
      6 N          -4.8280    0.2601   -0.0719 N.pl3   1  UNL1       -0.3274
      7 C          -5.6154    0.8501   -1.1077 C.3     1  UNL1        0.0250
      8 C          -6.8014   -0.0926   -1.3513 C.3     1  UNL1        0.0144
      9 N          -7.6636   -0.0215   -0.2165 N.3     1  UNL1       -0.3024
     10 C          -8.6501    1.0007   -0.4212 C.3     1  UNL1       -0.0126
     11 C          -7.0086    0.1656    1.0395 C.3     1  UNL1        0.0144
     12 C          -5.5729   -0.3053    1.0579 C.3     1  UNL1        0.0250
     13 C          -2.6122    0.7040   -1.0429 C.ar    1  UNL1       -0.0387
     14 C          -1.2366    0.6230   -1.0124 C.ar    1  UNL1       -0.0351
     15 C          -0.6207    0.0044    0.0335 C.ar    1  UNL1        0.0759
     16 N           0.7650   -0.1136    0.1288 N.pl3   1  UNL1       -0.2807
     17 C           1.7279    0.3496   -0.7699 C.ar    1  UNL1        0.2201
     18 N           1.4524    1.0030   -1.9019 N.ar    1  UNL1       -0.2226
     19 C           2.3284    1.4615   -2.7847 C.ar    1  UNL1        0.0332
     20 C           3.6685    1.2496   -2.5211 C.ar    1  UNL1       -0.0173
     21 C           4.0132    0.5830   -1.3716 C.ar    1  UNL1        0.0780
     22 C           5.4283    0.3627   -1.0995 C.ar    1  UNL1        0.0256
     23 C           6.5044    0.7466   -1.8669 C.ar    1  UNL1        0.0120
     24 N           7.6512    0.3501   -1.2617 N.ar    1  UNL1       -0.3586
     25 C           7.3356   -0.2880   -0.1084 C.ar    1  UNL1        0.0684
     26 C           8.1472   -0.8671    0.8471 C.ar    1  UNL1        0.0620
     27 C           9.6239   -0.8610    0.7140 C.3     1  UNL1       -0.0203
     28 N           7.5707   -1.4426    1.9113 N.ar    1  UNL1       -0.2581
     29 C           6.2369   -1.4702    2.0707 C.ar    1  UNL1        0.0286
     30 C           5.4203   -0.8936    1.1200 C.ar    1  UNL1       -0.0338
     31 C           5.9524   -0.2842   -0.0004 C.ar    1  UNL1        0.0120
     32 N           3.0654    0.1506   -0.5288 N.ar    1  UNL1       -0.2142
     33 H          -2.2804   -1.0047    3.5466 H       1  UNL1        0.0660
     34 H          -2.0510   -2.6392    2.8635 H       1  UNL1        0.0660
     35 H          -0.8582   -1.9707    4.0121 H       1  UNL1        0.0660
     36 H          -3.3604   -0.8631    1.7953 H       1  UNL1        0.0673
     37 H          -5.1182    1.0364   -2.0558 H       1  UNL1        0.0476
     38 H          -6.0796    1.8091   -0.7678 H       1  UNL1        0.0476
     39 H          -6.3615   -1.1045   -1.4886 H       1  UNL1        0.0442
     40 H          -7.3742    0.2281   -2.2444 H       1  UNL1        0.0442
     41 H          -8.2634    1.9798   -0.0856 H       1  UNL1        0.0391
     42 H          -9.5501    0.7702    0.1847 H       1  UNL1        0.0391
     43 H          -8.9002    1.0264   -1.5004 H       1  UNL1        0.0391
     44 H          -7.5520   -0.4111    1.8145 H       1  UNL1        0.0442
     45 H          -7.0423    1.2257    1.3655 H       1  UNL1        0.0442
     46 H          -5.5279   -1.4055    1.0498 H       1  UNL1        0.0476
     47 H          -5.1204    0.1436    1.9839 H       1  UNL1        0.0476
     48 H          -3.1044    1.1945   -1.8713 H       1  UNL1        0.0637
     49 H          -0.7225    1.0612   -1.8314 H       1  UNL1        0.0638
     50 H           1.1659   -0.6169    0.9864 H       1  UNL1        0.1551
     51 H           1.9829    1.9723   -3.6591 H       1  UNL1        0.0831
     52 H           4.3799    1.6263   -3.2458 H       1  UNL1        0.0654
     53 H           6.4768    1.2857   -2.8170 H       1  UNL1        0.0814
     54 H           8.6260    0.4961   -1.6003 H       1  UNL1        0.1654
     55 H          10.0474    0.0552    1.1803 H       1  UNL1        0.0293
     56 H           9.8953   -0.8512   -0.3564 H       1  UNL1        0.0293
     57 H          10.0748   -1.7227    1.2525 H       1  UNL1        0.0293
     58 H           5.8600   -1.9558    2.9596 H       1  UNL1        0.0830
     59 H           4.3449   -0.9109    1.2399 H       1  UNL1        0.0639
@<TRIPOS>BOND
     1     1     2    1
     2     2     3    1
     3     3     4   ar
     4     4     5   ar
     5     5     6    1
     6     6     7    1
     7     7     8    1
     8     8     9    1
     9     9    10    1
    10     9    11    1
    11    11    12    1
    12     5    13   ar
    13    13    14   ar
    14    14    15   ar
    15    15    16    1
    16    16    17    1
    17    17    18   ar
    18    18    19   ar
    19    19    20   ar
    20    20    21   ar
    21    21    22    1
    22    22    23   ar
    23    23    24   ar
    24    24    25   ar
    25    25    26   ar
    26    26    27    1
    27    26    28   ar
    28    28    29   ar
    29    29    30   ar
    30    30    31   ar
    31    21    32   ar
    32    15     3   ar
    33    32    17   ar
    34    12     6    1
    35    31    22   ar
    36    31    25   ar
    37     1    33    1
    38     1    34    1
    39     1    35    1
    40     4    36    1
    41     7    37    1
    42     7    38    1
    43     8    39    1
    44     8    40    1
    45    10    41    1
    46    10    42    1
    47    10    43    1
    48    11    44    1
    49    11    45    1
    50    12    46    1
    51    12    47    1
    52    13    48    1
    53    14    49    1
    54    16    50    1
    55    19    51    1
    56    20    52    1
    57    23    53    1
    58    24    54    1
    59    27    55    1
    60    27    56    1
    61    27    57    1
    62    29    58    1
    63    30    59    1
