
     RDKit          3D

 59 63  0  0  0  0  0  0  0  0999 V2000
   -1.5479   -1.7151    3.1575 C   0  0  0  0  0  0  0  0  0  0  0  0
   -0.7498   -1.1633    2.1137 O   0  0  0  0  0  0  0  0  0  0  0  0
   -1.3985   -0.5470    1.0747 C   0  0  0  0  0  0  0  0  0  0  0  0
   -2.7556   -0.4331    0.9844 C   0  0  0  0  0  0  0  0  0  0  0  0
   -3.4178    0.1790   -0.0461 C   0  0  0  0  0  0  0  0  0  0  0  0
   -4.8280    0.2601   -0.0719 N   0  0  0  0  0  0  0  0  0  0  0  0
   -5.6154    0.8501   -1.1077 C   0  0  0  0  0  0  0  0  0  0  0  0
   -6.8014   -0.0926   -1.3513 C   0  0  0  0  0  0  0  0  0  0  0  0
   -7.6636   -0.0215   -0.2165 N   0  0  0  0  0  0  0  0  0  0  0  0
   -8.6501    1.0007   -0.4212 C   0  0  0  0  0  0  0  0  0  0  0  0
   -7.0086    0.1656    1.0395 C   0  0  0  0  0  0  0  0  0  0  0  0
   -5.5729   -0.3053    1.0579 C   0  0  0  0  0  0  0  0  0  0  0  0
   -2.6122    0.7040   -1.0429 C   0  0  0  0  0  0  0  0  0  0  0  0
   -1.2366    0.6230   -1.0124 C   0  0  0  0  0  0  0  0  0  0  0  0
   -0.6207    0.0044    0.0335 C   0  0  0  0  0  0  0  0  0  0  0  0
    0.7650   -0.1136    0.1288 N   0  0  0  0  0  0  0  0  0  0  0  0
    1.7279    0.3496   -0.7699 C   0  0  0  0  0  0  0  0  0  0  0  0
    1.4524    1.0030   -1.9019 N   0  0  0  0  0  0  0  0  0  0  0  0
    2.3284    1.4615   -2.7847 C   0  0  0  0  0  0  0  0  0  0  0  0
    3.6685    1.2496   -2.5211 C   0  0  0  0  0  0  0  0  0  0  0  0
    4.0132    0.5830   -1.3716 C   0  0  0  0  0  0  0  0  0  0  0  0
    5.4283    0.3627   -1.0995 C   0  0  0  0  0  0  0  0  0  0  0  0
    6.5044    0.7466   -1.8669 C   0  0  0  0  0  0  0  0  0  0  0  0
    7.6512    0.3501   -1.2617 N   0  0  0  0  0  0  0  0  0  0  0  0
    7.3356   -0.2880   -0.1084 C   0  0  0  0  0  0  0  0  0  0  0  0
    8.1472   -0.8671    0.8471 C   0  0  0  0  0  0  0  0  0  0  0  0
    9.6239   -0.8610    0.7140 C   0  0  0  0  0  0  0  0  0  0  0  0
    7.5707   -1.4426    1.9113 N   0  0  0  0  0  0  0  0  0  0  0  0
    6.2369   -1.4702    2.0707 C   0  0  0  0  0  0  0  0  0  0  0  0
    5.4203   -0.8936    1.1200 C   0  0  0  0  0  0  0  0  0  0  0  0
    5.9524   -0.2842   -0.0004 C   0  0  0  0  0  0  0  0  0  0  0  0
    3.0654    0.1506   -0.5288 N   0  0  0  0  0  0  0  0  0  0  0  0
   -2.2804   -1.0047    3.5466 H   0  0  0  0  0  0  0  0  0  0  0  0
   -2.0510   -2.6392    2.8635 H   0  0  0  0  0  0  0  0  0  0  0  0
   -0.8582   -1.9707    4.0121 H   0  0  0  0  0  0  0  0  0  0  0  0
   -3.3604   -0.8631    1.7953 H   0  0  0  0  0  0  0  0  0  0  0  0
   -5.1182    1.0364   -2.0558 H   0  0  0  0  0  0  0  0  0  0  0  0
   -6.0796    1.8091   -0.7678 H   0  0  0  0  0  0  0  0  0  0  0  0
   -6.3615   -1.1045   -1.4886 H   0  0  0  0  0  0  0  0  0  0  0  0
   -7.3742    0.2281   -2.2444 H   0  0  0  0  0  0  0  0  0  0  0  0
   -8.2634    1.9798   -0.0856 H   0  0  0  0  0  0  0  0  0  0  0  0
   -9.5501    0.7702    0.1847 H   0  0  0  0  0  0  0  0  0  0  0  0
   -8.9002    1.0264   -1.5004 H   0  0  0  0  0  0  0  0  0  0  0  0
   -7.5520   -0.4111    1.8145 H   0  0  0  0  0  0  0  0  0  0  0  0
   -7.0423    1.2257    1.3655 H   0  0  0  0  0  0  0  0  0  0  0  0
   -5.5279   -1.4055    1.0498 H   0  0  0  0  0  0  0  0  0  0  0  0
   -5.1204    0.1436    1.9839 H   0  0  0  0  0  0  0  0  0  0  0  0
   -3.1044    1.1945   -1.8713 H   0  0  0  0  0  0  0  0  0  0  0  0
   -0.7225    1.0612   -1.8314 H   0  0  0  0  0  0  0  0  0  0  0  0
    1.1659   -0.6169    0.9864 H   0  0  0  0  0  0  0  0  0  0  0  0
    1.9829    1.9723   -3.6591 H   0  0  0  0  0  0  0  0  0  0  0  0
    4.3799    1.6263   -3.2458 H   0  0  0  0  0  0  0  0  0  0  0  0
    6.4768    1.2857   -2.8170 H   0  0  0  0  0  0  0  0  0  0  0  0
    8.6260    0.4961   -1.6003 H   0  0  0  0  0  0  0  0  0  0  0  0
   10.0474    0.0552    1.1803 H   0  0  0  0  0  0  0  0  0  0  0  0
    9.8953   -0.8512   -0.3564 H   0  0  0  0  0  0  0  0  0  0  0  0
   10.0748   -1.7227    1.2525 H   0  0  0  0  0  0  0  0  0  0  0  0
    5.8600   -1.9558    2.9596 H   0  0  0  0  0  0  0  0  0  0  0  0
    4.3449   -0.9109    1.2399 H   0  0  0  0  0  0  0  0  0  0  0  0
  1  2  1  0
  2  3  1  0
  3  4  2  0
  4  5  1  0
  5  6  1  0
  6  7  1  0
  7  8  1  0
  8  9  1  0
  9 10  1  0
  9 11  1  0
 11 12  1  0
  5 13  2  0
 13 14  1  0
 14 15  2  0
 15 16  1  0
 16 17  1  0
 17 18  2  0
 18 19  1  0
 19 20  2  0
 20 21  1  0
 21 22  1  0
 22 23  2  0
 23 24  1  0
 24 25  1  0
 25 26  2  0
 26 27  1  0
 26 28  1  0
 28 29  2  0
 29 30  1  0
 30 31  2  0
 21 32  2  0
 15  3  1  0
 32 17  1  0
 12  6  1  0
 31 22  1  0
 31 25  1  0
  1 33  1  0
  1 34  1  0
  1 35  1  0
  4 36  1  0
  7 37  1  0
  7 38  1  0
  8 39  1  0
  8 40  1  0
 10 41  1  0
 10 42  1  0
 10 43  1  0
 11 44  1  0
 11 45  1  0
 12 46  1  0
 12 47  1  0
 13 48  1  0
 14 49  1  0
 16 50  1  0
 19 51  1  0
 20 52  1  0
 23 53  1  0
 24 54  1  0
 27 55  1  0
 27 56  1  0
 27 57  1  0
 29 58  1  0
 30 59  1  0
M  END
$$$$
