@<TRIPOS>MOLECULE
*****
 60 63 0 0 0
SMALL
GASTEIGER

@<TRIPOS>ATOM
      1 C          -6.7936   -4.6514    1.4106 C.3     1  UNL1        0.0003
      2 N          -6.2751   -3.8819    0.2984 N.pl3   1  UNL1       -0.3165
      3 C          -5.1788   -2.9761    0.5138 C.ar    1  UNL1        0.2180
      4 N          -4.6225   -2.8256    1.7218 N.ar    1  UNL1       -0.2220
      5 C          -3.6063   -1.9992    1.9689 C.ar    1  UNL1        0.0485
      6 C          -3.0487   -1.2174    0.9374 C.ar    1  UNL1        0.1169
      7 C          -1.9515   -0.3309    1.2247 C.2     1  UNL1        0.2549
      8 O          -1.5200   -0.2924    2.4413 O.2     1  UNL1       -0.2696
      9 N          -1.2843    0.5074    0.3359 N.am    1  UNL1       -0.2811
     10 C          -0.1966    1.3531    0.7396 C.ar    1  UNL1        0.0373
     11 C           1.1218    0.9648    0.7206 C.ar    1  UNL1       -0.0281
     12 C           2.1375    1.8175    1.1205 C.ar    1  UNL1        0.0388
     13 C           3.5089    1.3660    1.0839 C.2     1  UNL1        0.2483
     14 O           3.7503    0.1863    0.6808 O.2     1  UNL1       -0.2699
     15 N           4.6185    2.1386    1.4646 N.am    1  UNL1       -0.2815
     16 C           5.9405    1.5802    1.3849 C.ar    1  UNL1        0.0342
     17 C           6.5379    0.9054    2.4034 C.ar    1  UNL1       -0.0404
     18 C           7.7912    0.3798    2.3185 C.ar    1  UNL1       -0.0595
     19 C           8.4860    0.5453    1.1312 C.ar    1  UNL1       -0.0500
     20 C           7.9278    1.2207    0.0675 C.ar    1  UNL1        0.0566
     21 C           8.7172    1.3661   -1.1756 C.3     1  UNL1        0.4175
     22 F           9.9381    1.9241   -0.8293 F       1  UNL1       -0.1659
     23 F           8.9628    0.1301   -1.7159 F       1  UNL1       -0.1659
     24 F           8.1052    2.1590   -2.1006 F       1  UNL1       -0.1659
     25 C           6.6725    1.7257    0.2059 C.ar    1  UNL1       -0.0288
     26 C           1.8524    3.0848    1.5504 C.ar    1  UNL1       -0.0493
     27 C           0.5211    3.4964    1.5765 C.ar    1  UNL1       -0.0564
     28 C          -0.4704    2.6257    1.1723 C.ar    1  UNL1       -0.0292
     29 C          -1.8922    3.0957    1.2109 C.3     1  UNL1       -0.0380
     30 C          -3.6276   -1.3839   -0.2851 C.ar    1  UNL1        0.2371
     31 O          -3.1617   -0.6639   -1.3849 O.3     1  UNL1       -0.4371
     32 C          -3.7021   -0.7879   -2.6345 C.ar    1  UNL1        0.1304
     33 C          -3.2220   -1.7199   -3.5343 C.ar    1  UNL1       -0.0193
     34 C          -3.8089   -1.7952   -4.7770 C.ar    1  UNL1       -0.0583
     35 C          -4.8430   -0.9717   -5.1223 C.ar    1  UNL1       -0.0615
     36 C          -5.3035   -0.0564   -4.2181 C.ar    1  UNL1       -0.0583
     37 C          -4.7528    0.0613   -2.9614 C.ar    1  UNL1       -0.0193
     38 N          -4.6729   -2.2493   -0.4853 N.ar    1  UNL1       -0.1785
     39 H          -7.8995   -4.4250    1.4555 H       1  UNL1        0.0426
     40 H          -6.3747   -4.2418    2.3451 H       1  UNL1        0.0426
     41 H          -6.6134   -5.7385    1.2796 H       1  UNL1        0.0426
     42 H          -6.6590   -3.9502   -0.6631 H       1  UNL1        0.1486
     43 H          -3.1842   -1.9021    2.9466 H       1  UNL1        0.0840
     44 H          -1.5591    0.5467   -0.6660 H       1  UNL1        0.1551
     45 H           1.3140   -0.0523    0.3722 H       1  UNL1        0.0644
     46 H           4.5001    3.1046    1.8020 H       1  UNL1        0.1551
     47 H           6.0012    0.7691    3.3417 H       1  UNL1        0.0636
     48 H           8.2779   -0.1575    3.1172 H       1  UNL1        0.0618
     49 H           9.4669    0.1411    1.0471 H       1  UNL1        0.0623
     50 H           6.2084    2.2631   -0.6181 H       1  UNL1        0.0642
     51 H           2.6213    3.8046    1.8798 H       1  UNL1        0.0625
     52 H           0.2980    4.4941    1.9150 H       1  UNL1        0.0621
     53 H          -2.5558    2.4535    0.6286 H       1  UNL1        0.0278
     54 H          -2.2258    3.2627    2.2604 H       1  UNL1        0.0278
     55 H          -1.9203    4.1132    0.7327 H       1  UNL1        0.0278
     56 H          -2.4073   -2.3895   -3.3022 H       1  UNL1        0.0654
     57 H          -3.4231   -2.5359   -5.4839 H       1  UNL1        0.0619
     58 H          -5.2774   -1.0626   -6.1102 H       1  UNL1        0.0618
     59 H          -6.1215    0.5939   -4.4933 H       1  UNL1        0.0619
     60 H          -5.1221    0.7900   -2.2464 H       1  UNL1        0.0654
@<TRIPOS>BOND
     1     1     2    1
     2     2     3    1
     3     3     4   ar
     4     4     5   ar
     5     5     6   ar
     6     6     7    1
     7     7     8    2
     8     7     9   am
     9     9    10    1
    10    10    11   ar
    11    11    12   ar
    12    12    13    1
    13    13    14    2
    14    13    15   am
    15    15    16    1
    16    16    17   ar
    17    17    18   ar
    18    18    19   ar
    19    19    20   ar
    20    20    21    1
    21    21    22    1
    22    21    23    1
    23    21    24    1
    24    20    25   ar
    25    12    26   ar
    26    26    27   ar
    27    27    28   ar
    28    28    29    1
    29     6    30   ar
    30    30    31    1
    31    31    32    1
    32    32    33   ar
    33    33    34   ar
    34    34    35   ar
    35    35    36   ar
    36    36    37   ar
    37    30    38   ar
    38    38     3   ar
    39    28    10   ar
    40    37    32   ar
    41    25    16   ar
    42     1    39    1
    43     1    40    1
    44     1    41    1
    45     2    42    1
    46     5    43    1
    47     9    44    1
    48    11    45    1
    49    15    46    1
    50    17    47    1
    51    18    48    1
    52    19    49    1
    53    25    50    1
    54    26    51    1
    55    27    52    1
    56    29    53    1
    57    29    54    1
    58    29    55    1
    59    33    56    1
    60    34    57    1
    61    35    58    1
    62    36    59    1
    63    37    60    1
