@<TRIPOS>MOLECULE
*****
 37 39 0 0 0
SMALL
GASTEIGER

@<TRIPOS>ATOM
      1 C          -4.6663   -1.7469   -0.9730 C.3     1  UNL1       -0.0200
      2 C          -3.3781   -1.1982   -0.4894 C.ar    1  UNL1        0.0681
      3 N          -2.1953   -1.8138   -0.3307 N.ar    1  UNL1       -0.1705
      4 N          -1.2850   -0.9694    0.1276 N.ar    1  UNL1       -0.2304
      5 C           0.0846   -1.2484    0.4220 C.ar    1  UNL1        0.0844
      6 C           0.4277   -2.3027    1.2400 C.ar    1  UNL1        0.0530
      7 N           1.7132   -2.5261    1.4873 N.ar    1  UNL1       -0.2608
      8 C           2.6836   -1.7615    0.9684 C.ar    1  UNL1        0.0339
      9 C           2.4115   -0.6804    0.1345 C.ar    1  UNL1        0.0123
     10 C           3.5187    0.1155   -0.3983 C.3     1  UNL1        0.1843
     11 C           3.7695    1.2423    0.6064 C.3     1  UNL1       -0.0232
     12 O           4.6830   -0.6774   -0.3663 O.3     1  UNL1       -0.3757
     13 C           3.3454    0.6424   -1.7785 C.3     1  UNL1        0.4222
     14 F           3.1741   -0.4215   -2.6344 F       1  UNL1       -0.1673
     15 F           2.3685    1.6000   -1.8919 F       1  UNL1       -0.1673
     16 F           4.5599    1.2708   -2.1096 F       1  UNL1       -0.1673
     17 C           1.0841   -0.4392   -0.1288 C.ar    1  UNL1       -0.0271
     18 C          -1.8985    0.2278    0.2691 C.ar    1  UNL1        0.0749
     19 C          -1.4029    1.4386    0.7101 C.ar    1  UNL1       -0.0356
     20 C          -2.2626    2.5152    0.7552 C.ar    1  UNL1       -0.0597
     21 C          -3.5850    2.4173    0.3773 C.ar    1  UNL1       -0.0610
     22 C          -4.0939    1.2124   -0.0658 C.ar    1  UNL1       -0.0508
     23 C          -3.2224    0.1385   -0.1070 C.ar    1  UNL1        0.0231
     24 H          -4.6370   -2.8547   -0.9001 H       1  UNL1        0.0293
     25 H          -5.5116   -1.3771   -0.3445 H       1  UNL1        0.0293
     26 H          -4.8143   -1.4183   -2.0105 H       1  UNL1        0.0293
     27 H          -0.3775   -2.9135    1.6526 H       1  UNL1        0.0851
     28 H           3.7259   -1.9842    1.2002 H       1  UNL1        0.0833
     29 H           3.9702    0.7228    1.5795 H       1  UNL1        0.0263
     30 H           4.6676    1.8068    0.3369 H       1  UNL1        0.0263
     31 H           2.8643    1.8723    0.7396 H       1  UNL1        0.0263
     32 H           5.0795   -0.6145    0.5369 H       1  UNL1        0.2110
     33 H           0.8258    0.3826   -0.7650 H       1  UNL1        0.0643
     34 H          -0.3686    1.4882    0.9988 H       1  UNL1        0.0639
     35 H          -1.8914    3.4733    1.0985 H       1  UNL1        0.0618
     36 H          -4.2409    3.2949    0.4260 H       1  UNL1        0.0618
     37 H          -5.1257    1.0861   -0.3733 H       1  UNL1        0.0625
@<TRIPOS>BOND
     1     1     2    1
     2     2     3   ar
     3     3     4   ar
     4     4     5    1
     5     5     6   ar
     6     6     7   ar
     7     7     8   ar
     8     8     9   ar
     9     9    10    1
    10    10    11    1
    11    10    12    1
    12    10    13    1
    13    13    14    1
    14    13    15    1
    15    13    16    1
    16     9    17   ar
    17     4    18   ar
    18    18    19   ar
    19    19    20   ar
    20    20    21   ar
    21    21    22   ar
    22    22    23   ar
    23    23     2   ar
    24    17     5   ar
    25    23    18   ar
    26     1    24    1
    27     1    25    1
    28     1    26    1
    29     6    27    1
    30     8    28    1
    31    11    29    1
    32    11    30    1
    33    11    31    1
    34    12    32    1
    35    17    33    1
    36    19    34    1
    37    20    35    1
    38    21    36    1
    39    22    37    1
