
     RDKit          3D

 37 39  0  0  0  0  0  0  0  0999 V2000
   -4.6663   -1.7469   -0.9730 C   0  0  0  0  0  0  0  0  0  0  0  0
   -3.3781   -1.1982   -0.4894 C   0  0  0  0  0  0  0  0  0  0  0  0
   -2.1953   -1.8138   -0.3307 N   0  0  0  0  0  0  0  0  0  0  0  0
   -1.2850   -0.9694    0.1276 N   0  0  0  0  0  0  0  0  0  0  0  0
    0.0846   -1.2484    0.4220 C   0  0  0  0  0  0  0  0  0  0  0  0
    0.4277   -2.3027    1.2400 C   0  0  0  0  0  0  0  0  0  0  0  0
    1.7132   -2.5261    1.4873 N   0  0  0  0  0  0  0  0  0  0  0  0
    2.6836   -1.7615    0.9684 C   0  0  0  0  0  0  0  0  0  0  0  0
    2.4115   -0.6804    0.1345 C   0  0  0  0  0  0  0  0  0  0  0  0
    3.5187    0.1155   -0.3983 C   0  0  1  0  0  0  0  0  0  0  0  0
    3.7695    1.2423    0.6064 C   0  0  0  0  0  0  0  0  0  0  0  0
    4.6830   -0.6774   -0.3663 O   0  0  0  0  0  0  0  0  0  0  0  0
    3.3454    0.6424   -1.7785 C   0  0  0  0  0  0  0  0  0  0  0  0
    3.1741   -0.4215   -2.6344 F   0  0  0  0  0  0  0  0  0  0  0  0
    2.3685    1.6000   -1.8919 F   0  0  0  0  0  0  0  0  0  0  0  0
    4.5599    1.2708   -2.1096 F   0  0  0  0  0  0  0  0  0  0  0  0
    1.0841   -0.4392   -0.1288 C   0  0  0  0  0  0  0  0  0  0  0  0
   -1.8985    0.2278    0.2691 C   0  0  0  0  0  0  0  0  0  0  0  0
   -1.4029    1.4386    0.7101 C   0  0  0  0  0  0  0  0  0  0  0  0
   -2.2626    2.5152    0.7552 C   0  0  0  0  0  0  0  0  0  0  0  0
   -3.5850    2.4173    0.3773 C   0  0  0  0  0  0  0  0  0  0  0  0
   -4.0939    1.2124   -0.0658 C   0  0  0  0  0  0  0  0  0  0  0  0
   -3.2224    0.1385   -0.1070 C   0  0  0  0  0  0  0  0  0  0  0  0
   -4.6370   -2.8547   -0.9001 H   0  0  0  0  0  0  0  0  0  0  0  0
   -5.5116   -1.3771   -0.3445 H   0  0  0  0  0  0  0  0  0  0  0  0
   -4.8143   -1.4183   -2.0105 H   0  0  0  0  0  0  0  0  0  0  0  0
   -0.3775   -2.9135    1.6526 H   0  0  0  0  0  0  0  0  0  0  0  0
    3.7259   -1.9842    1.2002 H   0  0  0  0  0  0  0  0  0  0  0  0
    3.9702    0.7228    1.5795 H   0  0  0  0  0  0  0  0  0  0  0  0
    4.6676    1.8068    0.3369 H   0  0  0  0  0  0  0  0  0  0  0  0
    2.8643    1.8723    0.7396 H   0  0  0  0  0  0  0  0  0  0  0  0
    5.0795   -0.6145    0.5369 H   0  0  0  0  0  0  0  0  0  0  0  0
    0.8258    0.3826   -0.7650 H   0  0  0  0  0  0  0  0  0  0  0  0
   -0.3686    1.4882    0.9988 H   0  0  0  0  0  0  0  0  0  0  0  0
   -1.8914    3.4733    1.0985 H   0  0  0  0  0  0  0  0  0  0  0  0
   -4.2409    3.2949    0.4260 H   0  0  0  0  0  0  0  0  0  0  0  0
   -5.1257    1.0861   -0.3733 H   0  0  0  0  0  0  0  0  0  0  0  0
  1  2  1  0
  2  3  2  0
  3  4  1  0
  4  5  1  0
  5  6  2  0
  6  7  1  0
  7  8  2  0
  8  9  1  0
  9 10  1  0
 10 11  1  0
 10 12  1  6
 10 13  1  0
 13 14  1  0
 13 15  1  0
 13 16  1  0
  9 17  2  0
  4 18  1  0
 18 19  2  0
 19 20  1  0
 20 21  2  0
 21 22  1  0
 22 23  2  0
 23  2  1  0
 17  5  1  0
 23 18  1  0
  1 24  1  0
  1 25  1  0
  1 26  1  0
  6 27  1  0
  8 28  1  0
 11 29  1  0
 11 30  1  0
 11 31  1  0
 12 32  1  0
 17 33  1  0
 19 34  1  0
 20 35  1  0
 21 36  1  0
 22 37  1  0
M  END
$$$$
