@<TRIPOS>MOLECULE
*****
 73 78 0 0 0
SMALL
GASTEIGER

@<TRIPOS>ATOM
      1 C          -1.4106   -7.4779   -0.5678 C.3     1  UNL1        0.0804
      2 O          -0.9697   -6.1494   -0.7877 O.3     1  UNL1       -0.4795
      3 C          -0.8302   -5.2949    0.2723 C.ar    1  UNL1        0.2191
      4 C          -0.3942   -3.9951    0.0199 C.ar    1  UNL1        0.0404
      5 C          -0.2362   -3.0947    1.0434 C.ar    1  UNL1        0.1364
      6 N           0.2054   -1.7830    0.7698 N.am    1  UNL1       -0.2231
      7 C           1.5764   -1.4023    0.7529 C.2     1  UNL1        0.3219
      8 O           2.5415   -2.0580    1.2137 O.2     1  UNL1       -0.2512
      9 N           1.7051   -0.1356    0.1215 N.am    1  UNL1       -0.1920
     10 C           2.9378    0.5827   -0.0832 C.ar    1  UNL1        0.0455
     11 C           3.7141    0.4258   -1.2100 C.ar    1  UNL1       -0.0392
     12 C           4.8964    1.1351   -1.3811 C.ar    1  UNL1       -0.0523
     13 C           5.3321    2.0241   -0.4213 C.ar    1  UNL1       -0.0178
     14 C           6.5797    2.7764   -0.5970 C.ar    1  UNL1       -0.0179
     15 C           7.6680    2.2662   -1.2846 C.ar    1  UNL1       -0.0540
     16 C           8.8178    3.0331   -1.4131 C.ar    1  UNL1       -0.0612
     17 C           8.8786    4.2994   -0.8586 C.ar    1  UNL1       -0.0617
     18 C           7.7800    4.7799   -0.1804 C.ar    1  UNL1       -0.0612
     19 C           6.6241    4.0375   -0.0382 C.ar    1  UNL1       -0.0540
     20 C           4.5495    2.1778    0.7076 C.ar    1  UNL1       -0.0523
     21 C           3.3764    1.4720    0.8741 C.ar    1  UNL1       -0.0392
     22 C           0.4001    0.2667   -0.2542 C.2     1  UNL1        0.2524
     23 O           0.1905    1.2107   -1.0674 O.2     1  UNL1       -0.2724
     24 C          -0.5532   -0.6022    0.4667 C.3     1  UNL1        0.1368
     25 C          -0.9064    0.0852    1.7795 C.3     1  UNL1       -0.0087
     26 C          -1.6815    1.3195    1.4411 C.3     1  UNL1        0.0017
     27 N          -2.9026    0.9566    0.7464 N.3     1  UNL1       -0.2957
     28 C          -4.0654    1.3994    1.5189 C.3     1  UNL1        0.0415
     29 C          -5.2838    1.0495    0.7580 C.ar    1  UNL1        0.0581
     30 N          -5.9894   -0.0290    1.1282 N.ar    1  UNL1       -0.2583
     31 C          -7.0878   -0.4025    0.4765 C.ar    1  UNL1        0.0279
     32 C          -7.4967    0.3576   -0.6119 C.ar    1  UNL1       -0.0433
     33 C          -6.7912    1.4685   -1.0124 C.ar    1  UNL1       -0.0557
     34 C          -5.6575    1.8356   -0.3221 C.ar    1  UNL1       -0.0279
     35 C          -4.8501    3.0150   -0.6783 C.3     1  UNL1       -0.0380
     36 C          -2.9959   -0.4691    0.4944 C.3     1  UNL1        0.0147
     37 C          -1.8050   -0.9044   -0.3222 C.3     1  UNL1        0.0992
     38 C          -1.8119   -0.3299   -1.6692 C.2     1  UNL1        0.3116
     39 O          -2.6965    0.4809   -2.0134 O.2     1  UNL1       -0.2506
     40 O          -0.8311   -0.6849   -2.5747 O.3     1  UNL1       -0.4803
     41 N          -0.5034   -3.4684    2.2980 N.ar    1  UNL1       -0.2200
     42 C          -0.9288   -4.7365    2.5453 C.ar    1  UNL1        0.1219
     43 N          -1.0871   -5.6280    1.5464 N.ar    1  UNL1       -0.2013
     44 H          -0.5804   -8.1557   -0.8008 H       1  UNL1        0.0660
     45 H          -2.2491   -7.7178   -1.2402 H       1  UNL1        0.0660
     46 H          -1.7716   -7.5847    0.4804 H       1  UNL1        0.0660
     47 H          -0.1832   -3.7194   -1.0218 H       1  UNL1        0.0705
     48 H           3.3630   -0.2718   -1.9533 H       1  UNL1        0.0636
     49 H           5.4780    0.9894   -2.2710 H       1  UNL1        0.0624
     50 H           7.6187    1.2792   -1.7158 H       1  UNL1        0.0624
     51 H           9.6806    2.6850   -1.9327 H       1  UNL1        0.0618
     52 H           9.7441    4.9426   -0.9248 H       1  UNL1        0.0618
     53 H           7.8220    5.7691    0.2548 H       1  UNL1        0.0618
     54 H           5.7954    4.4681    0.5046 H       1  UNL1        0.0624
     55 H           4.8647    2.8671    1.4772 H       1  UNL1        0.0624
     56 H           2.7864    1.6195    1.7769 H       1  UNL1        0.0636
     57 H          -1.3998   -0.5836    2.4835 H       1  UNL1        0.0303
     58 H           0.0668    0.4202    2.2345 H       1  UNL1        0.0303
     59 H          -1.0744    1.9422    0.7541 H       1  UNL1        0.0427
     60 H          -1.8848    1.9580    2.3282 H       1  UNL1        0.0427
     61 H          -3.9279    2.4913    1.6552 H       1  UNL1        0.0491
     62 H          -4.0858    0.8513    2.4771 H       1  UNL1        0.0491
     63 H          -7.6141   -1.2798    0.8213 H       1  UNL1        0.0829
     64 H          -8.3908    0.0301   -1.1208 H       1  UNL1        0.0633
     65 H          -7.1508    2.0215   -1.8612 H       1  UNL1        0.0621
     66 H          -4.6690    3.6969    0.1910 H       1  UNL1        0.0278
     67 H          -5.4646    3.6474   -1.3854 H       1  UNL1        0.0278
     68 H          -3.9228    2.7938   -1.2275 H       1  UNL1        0.0278
     69 H          -3.9012   -0.6129   -0.1344 H       1  UNL1        0.0435
     70 H          -3.1084   -1.0709    1.4015 H       1  UNL1        0.0435
     71 H          -1.9147   -2.0253   -0.4728 H       1  UNL1        0.0452
     72 H          -0.7796   -0.1883   -3.4629 H       1  UNL1        0.2951
     73 H          -1.1536   -5.0719    3.5454 H       1  UNL1        0.1049
@<TRIPOS>BOND
     1     1     2    1
     2     2     3    1
     3     3     4   ar
     4     4     5   ar
     5     5     6    1
     6     6     7   am
     7     7     8    2
     8     7     9   am
     9     9    10    1
    10    10    11   ar
    11    11    12   ar
    12    12    13   ar
    13    13    14    1
    14    14    15   ar
    15    15    16   ar
    16    16    17   ar
    17    17    18   ar
    18    18    19   ar
    19    13    20   ar
    20    20    21   ar
    21     9    22   am
    22    22    23    2
    23    22    24    1
    24    24    25    1
    25    25    26    1
    26    26    27    1
    27    27    28    1
    28    28    29    1
    29    29    30   ar
    30    30    31   ar
    31    31    32   ar
    32    32    33   ar
    33    33    34   ar
    34    34    35    1
    35    27    36    1
    36    36    37    1
    37    37    38    1
    38    38    39    2
    39    38    40    1
    40     5    41   ar
    41    41    42   ar
    42    42    43   ar
    43    43     3   ar
    44    24     6    1
    45    34    29   ar
    46    21    10   ar
    47    37    24    1
    48    19    14   ar
    49     1    44    1
    50     1    45    1
    51     1    46    1
    52     4    47    1
    53    11    48    1
    54    12    49    1
    55    15    50    1
    56    16    51    1
    57    17    52    1
    58    18    53    1
    59    19    54    1
    60    20    55    1
    61    21    56    1
    62    25    57    1
    63    25    58    1
    64    26    59    1
    65    26    60    1
    66    28    61    1
    67    28    62    1
    68    31    63    1
    69    32    64    1
    70    33    65    1
    71    35    66    1
    72    35    67    1
    73    35    68    1
    74    36    69    1
    75    36    70    1
    76    37    71    1
    77    40    72    1
    78    42    73    1
