
     RDKit          3D

 38 39  0  0  0  0  0  0  0  0999 V2000
   -2.6053    0.2731   -2.6588 C   0  0  0  0  0  0  0  0  0  0  0  0
   -2.3689    0.0167   -1.2375 N   0  0  0  0  0  0  0  0  0  0  0  0
   -3.5883   -0.2387   -0.4961 C   0  0  0  0  0  0  0  0  0  0  0  0
   -3.2740   -0.5428    1.2056 S   0  0  0  0  0  0  0  0  0  0  0  0
   -4.7464   -0.8314    1.9993 O   0  0  0  0  0  0  0  0  0  0  0  0
   -2.6239    0.6059    1.9018 O   0  0  0  0  0  0  0  0  0  0  0  0
   -2.4929   -1.8201    1.3252 O   0  0  0  0  0  0  0  0  0  0  0  0
   -1.0253    0.0457   -0.7627 C   0  0  0  0  0  0  0  0  0  0  0  0
   -0.5756    1.2949   -0.3224 C   0  0  0  0  0  0  0  0  0  0  0  0
   -1.2268    2.6411   -0.2437 C   0  0  0  0  0  0  0  0  0  0  0  0
    0.7105    1.1010    0.0817 N   0  0  0  0  0  0  0  0  0  0  0  0
    1.6098    2.1123    0.6247 C   0  0  0  0  0  0  0  0  0  0  0  0
    1.0779   -0.1609   -0.0768 N   0  0  0  0  0  0  0  0  0  0  0  0
    0.0279   -0.8282   -0.5941 C   0  0  0  0  0  0  0  0  0  0  0  0
   -0.1641   -2.0148   -0.9304 O   0  0  0  0  0  0  0  0  0  0  0  0
    2.2987   -0.7865    0.2066 C   0  0  0  0  0  0  0  0  0  0  0  0
    2.2965   -2.0778    0.7204 C   0  0  0  0  0  0  0  0  0  0  0  0
    3.4922   -2.7180    1.0088 C   0  0  0  0  0  0  0  0  0  0  0  0
    4.7183   -2.1202    0.8054 C   0  0  0  0  0  0  0  0  0  0  0  0
    4.7372   -0.8387    0.2959 C   0  0  0  0  0  0  0  0  0  0  0  0
    3.5343   -0.2223    0.0168 C   0  0  0  0  0  0  0  0  0  0  0  0
   -1.7339   -0.0542   -3.2715 H   0  0  0  0  0  0  0  0  0  0  0  0
   -3.4784   -0.2661   -3.0478 H   0  0  0  0  0  0  0  0  0  0  0  0
   -2.7057    1.3636   -2.7930 H   0  0  0  0  0  0  0  0  0  0  0  0
   -4.2830    0.6309   -0.5790 H   0  0  0  0  0  0  0  0  0  0  0  0
   -4.0703   -1.1388   -0.9160 H   0  0  0  0  0  0  0  0  0  0  0  0
   -4.4802   -1.0316    2.9375 H   0  0  0  0  0  0  0  0  0  0  0  0
   -1.0799    2.9853    0.8153 H   0  0  0  0  0  0  0  0  0  0  0  0
   -2.2951    2.5185   -0.5005 H   0  0  0  0  0  0  0  0  0  0  0  0
   -0.7710    3.3524   -0.9418 H   0  0  0  0  0  0  0  0  0  0  0  0
    0.9934    2.9161    1.1249 H   0  0  0  0  0  0  0  0  0  0  0  0
    2.2794    1.7334    1.3992 H   0  0  0  0  0  0  0  0  0  0  0  0
    2.1159    2.6683   -0.2047 H   0  0  0  0  0  0  0  0  0  0  0  0
    1.3502   -2.5762    0.8921 H   0  0  0  0  0  0  0  0  0  0  0  0
    3.4616   -3.7165    1.4052 H   0  0  0  0  0  0  0  0  0  0  0  0
    5.6083   -2.6871    1.0560 H   0  0  0  0  0  0  0  0  0  0  0  0
    5.6871   -0.3693    0.1358 H   0  0  0  0  0  0  0  0  0  0  0  0
    3.5899    0.7812   -0.3810 H   0  0  0  0  0  0  0  0  0  0  0  0
  1  2  1  0
  2  3  1  0
  3  4  1  0
  4  5  1  0
  4  6  2  0
  4  7  2  0
  2  8  1  0
  8  9  2  0
  9 10  1  0
  9 11  1  0
 11 12  1  0
 11 13  1  0
 13 14  1  0
 14 15  2  0
 13 16  1  0
 16 17  2  0
 17 18  1  0
 18 19  2  0
 19 20  1  0
 20 21  2  0
 14  8  1  0
 21 16  1  0
  1 22  1  0
  1 23  1  0
  1 24  1  0
  3 25  1  0
  3 26  1  0
  5 27  1  0
 10 28  1  0
 10 29  1  0
 10 30  1  0
 12 31  1  0
 12 32  1  0
 12 33  1  0
 17 34  1  0
 18 35  1  0
 19 36  1  0
 20 37  1  0
 21 38  1  0
M  END
$$$$
