@<TRIPOS>MOLECULE
*****
 38 39 0 0 0
SMALL
GASTEIGER

@<TRIPOS>ATOM
      1 C          -2.6053    0.2731   -2.6588 C.3     1  UNL1        0.0025
      2 N          -2.3689    0.0167   -1.2375 N.pl3   1  UNL1       -0.3065
      3 C          -3.5883   -0.2387   -0.4961 C.3     1  UNL1        0.1581
      4 S          -3.2740   -0.5428    1.2056 S.O2    1  UNL1        0.0963
      5 O          -4.7464   -0.8314    1.9993 O.3     1  UNL1       -0.2527
      6 O          -2.6239    0.6059    1.9018 O.2     1  UNL1       -0.1458
      7 O          -2.4929   -1.8201    1.3252 O.2     1  UNL1       -0.1458
      8 C          -1.0253    0.0457   -0.7627 C.ar    1  UNL1        0.1186
      9 C          -0.5756    1.2949   -0.3224 C.ar    1  UNL1        0.0593
     10 C          -1.2268    2.6411   -0.2437 C.3     1  UNL1       -0.0208
     11 N           0.7105    1.1010    0.0817 N.ar    1  UNL1       -0.2823
     12 C           1.6098    2.1123    0.6247 C.3     1  UNL1        0.0292
     13 N           1.0779   -0.1609   -0.0768 N.ar    1  UNL1       -0.2156
     14 C           0.0279   -0.8282   -0.5941 C.ar    1  UNL1        0.2932
     15 O          -0.1641   -2.0148   -0.9304 O.2     1  UNL1       -0.2638
     16 C           2.2987   -0.7865    0.2066 C.ar    1  UNL1        0.0674
     17 C           2.2965   -2.0778    0.7204 C.ar    1  UNL1       -0.0362
     18 C           3.4922   -2.7180    1.0088 C.ar    1  UNL1       -0.0598
     19 C           4.7183   -2.1202    0.8054 C.ar    1  UNL1       -0.0616
     20 C           4.7372   -0.8387    0.2959 C.ar    1  UNL1       -0.0598
     21 C           3.5343   -0.2223    0.0168 C.ar    1  UNL1       -0.0362
     22 H          -1.7339   -0.0542   -3.2715 H       1  UNL1        0.0428
     23 H          -3.4784   -0.2661   -3.0478 H       1  UNL1        0.0428
     24 H          -2.7057    1.3636   -2.7930 H       1  UNL1        0.0428
     25 H          -4.2830    0.6309   -0.5790 H       1  UNL1        0.0733
     26 H          -4.0703   -1.1388   -0.9160 H       1  UNL1        0.0733
     27 H          -4.4802   -1.0316    2.9375 H       1  UNL1        0.2445
     28 H          -1.0799    2.9853    0.8153 H       1  UNL1        0.0293
     29 H          -2.2951    2.5185   -0.5005 H       1  UNL1        0.0293
     30 H          -0.7710    3.3524   -0.9418 H       1  UNL1        0.0293
     31 H           0.9934    2.9161    1.1249 H       1  UNL1        0.0472
     32 H           2.2794    1.7334    1.3992 H       1  UNL1        0.0472
     33 H           2.1159    2.6683   -0.2047 H       1  UNL1        0.0472
     34 H           1.3502   -2.5762    0.8921 H       1  UNL1        0.0639
     35 H           3.4616   -3.7165    1.4052 H       1  UNL1        0.0618
     36 H           5.6083   -2.6871    1.0560 H       1  UNL1        0.0618
     37 H           5.6871   -0.3693    0.1358 H       1  UNL1        0.0618
     38 H           3.5899    0.7812   -0.3810 H       1  UNL1        0.0639
@<TRIPOS>BOND
     1     1     2    1
     2     2     3    1
     3     3     4    1
     4     4     5    1
     5     4     6    2
     6     4     7    2
     7     2     8    1
     8     8     9   ar
     9     9    10    1
    10     9    11   ar
    11    11    12    1
    12    11    13   ar
    13    13    14   ar
    14    14    15    2
    15    13    16    1
    16    16    17   ar
    17    17    18   ar
    18    18    19   ar
    19    19    20   ar
    20    20    21   ar
    21    14     8   ar
    22    21    16   ar
    23     1    22    1
    24     1    23    1
    25     1    24    1
    26     3    25    1
    27     3    26    1
    28     5    27    1
    29    10    28    1
    30    10    29    1
    31    10    30    1
    32    12    31    1
    33    12    32    1
    34    12    33    1
    35    17    34    1
    36    18    35    1
    37    19    36    1
    38    20    37    1
    39    21    38    1
