@<TRIPOS>MOLECULE
*****
 52 54 0 0 0
SMALL
GASTEIGER

@<TRIPOS>ATOM
      1 CG1        -5.4963   -0.8832    0.4437 C.3     1  VAL1       -0.0609
      2 CB         -4.7287   -1.1122   -0.8092 C.3     1  VAL1       -0.0261
      3 CG2        -4.7528    0.2091   -1.5924 C.3     1  VAL1       -0.0609
      4 CA         -3.2552   -1.4386   -0.5857 C.3     1  VAL1        0.0487
      5 C          -3.0857   -2.6627    0.2329 C.3     1  VAL1        0.0628
      6 O          -1.7906   -3.1286    0.3010 O.3     1  VAL1       -0.3932
      7 N          -2.5371   -0.2780   -0.1333 N.pl3   1  VAL1       -0.3081
      8 C          -1.1548   -0.1630    0.0292 C.ar    0  UNK0        0.2192
      9 N          -0.2895   -1.1479   -0.1975 N.ar    0  UNK0       -0.1971
     10 C           1.0450   -1.0522   -0.0627 C.ar    0  UNK0        0.1558
     11 N           1.8988   -2.1815   -0.2966 N.pl3   0  UNK0       -0.2975
     12 C           3.3120   -2.1064   -0.3176 C.ar    0  UNK0        0.0338
     13 C           4.0992   -2.9228    0.4976 C.ar    0  UNK0       -0.0404
     14 C           5.4759   -2.8283    0.4290 C.ar    0  UNK0       -0.0586
     15 C           6.0650   -1.9288   -0.4442 C.ar    0  UNK0       -0.0433
     16 C           5.2900   -1.1231   -1.2494 C.ar    0  UNK0        0.0427
     17 CL          6.0209    0.0258   -2.3701 Cl      0  UNK0       -0.0835
     18 C           3.9139   -1.2209   -1.1775 C.ar    0  UNK0       -0.0222
     19 C           1.5390    0.1653    0.3412 C.ar    0  UNK0        0.1479
     20 N           2.7833    0.6199    0.5799 N.ar    0  UNK0       -0.2306
     21 C           2.6899    1.9069    0.9596 C.ar    0  UNK0        0.0986
     22 N           1.4223    2.3085    0.9772 N.ar    0  UNK0       -0.3123
     23 C           0.8108    3.5777    1.3077 C.3     0  UNK0        0.0317
     24 C           1.9383    4.6127    1.2666 C.3     0  UNK0       -0.0444
     25 C          -0.2563    3.9318    0.2768 C.3     0  UNK0       -0.0444
     26 C           0.6890    1.2321    0.5937 C.ar    0  UNK0        0.1675
     27 N          -0.6284    1.0200    0.4259 N.ar    0  UNK0       -0.1947
     28 HG11       -5.0761   -1.2949    1.3637 H       1  VAL1        0.0233
     29 HG12       -5.7031    0.2025    0.6516 H       1  VAL1        0.0233
     30 HG13       -6.5320   -1.3225    0.3393 H       1  VAL1        0.0233
     31 HB         -5.1814   -1.8861   -1.4497 H       1  VAL1        0.0314
     32 HG21       -5.7262    0.1977   -2.1495 H       1  VAL1        0.0233
     33 HG22       -4.8316    1.0717   -0.8953 H       1  VAL1        0.0233
     34 HG23       -3.9441    0.2817   -2.3228 H       1  VAL1        0.0233
     35 HA         -2.8564   -1.6539   -1.6212 H       1  VAL1        0.0523
     36 H1         -3.7107   -3.5162   -0.1069 H       1  VAL1        0.0576
     37 H2         -3.3619   -2.3782    1.2942 H       1  VAL1        0.0576
     38 H          -1.5699   -3.6107   -0.5384 H       1  VAL1        0.2095
     39 H          -3.1032    0.6104    0.1149 H       1  VAL1        0.1493
     40 H           1.4587   -3.1191   -0.4616 H       0  UNK0        0.1536
     41 H           3.6009   -3.6153    1.1697 H       0  UNK0        0.0636
     42 H           6.1142   -3.4405    1.0447 H       0  UNK0        0.0619
     43 H           7.1544   -1.8595   -0.4922 H       0  UNK0        0.0632
     44 H           3.3428   -0.5659   -1.8441 H       0  UNK0        0.0651
     45 H           3.5281    2.5392    1.2180 H       0  UNK0        0.1029
     46 H           0.3905    3.4968    2.3308 H       0  UNK0        0.0523
     47 H           2.5385    4.4417    2.1650 H       0  UNK0        0.0249
     48 H           1.4457    5.5911    1.2651 H       0  UNK0        0.0249
     49 H           2.5054    4.4633    0.3313 H       0  UNK0        0.0249
     50 H           0.0426    3.4774   -0.7042 H       0  UNK0        0.0249
     51 H          -1.1961    3.4356    0.6007 H       0  UNK0        0.0249
     52 H          -0.3467    5.0223    0.1569 H       0  UNK0        0.0249
@<TRIPOS>BOND
     1     1     2    1
     2     2     3    1
     3     2     4    1
     4     4     5    1
     5     5     6    1
     6     4     7    1
     7     7     8    1
     8     8     9   ar
     9     9    10   ar
    10    10    11    1
    11    11    12    1
    12    12    13   ar
    13    13    14   ar
    14    14    15   ar
    15    15    16   ar
    16    16    17    1
    17    16    18   ar
    18    10    19   ar
    19    19    20   ar
    20    20    21   ar
    21    21    22   ar
    22    22    23    1
    23    23    24    1
    24    23    25    1
    25    22    26   ar
    26    26    27   ar
    27    27     8   ar
    28    18    12   ar
    29    26    19   ar
    30     1    28    1
    31     1    29    1
    32     1    30    1
    33     2    31    1
    34     3    32    1
    35     3    33    1
    36     3    34    1
    37     4    35    1
    38     5    36    1
    39     5    37    1
    40     6    38    1
    41     7    39    1
    42    11    40    1
    43    13    41    1
    44    14    42    1
    45    15    43    1
    46    18    44    1
    47    21    45    1
    48    23    46    1
    49    24    47    1
    50    24    48    1
    51    24    49    1
    52    25    50    1
    53    25    51    1
    54    25    52    1
