
     RDKit          3D

 52 54  0  0  0  0  0  0  0  0999 V2000
   -5.4963   -0.8832    0.4437 C   0  0  0  0  0  0  0  0  0  0  0  0
   -4.7287   -1.1122   -0.8092 C   0  0  0  0  0  0  0  0  0  0  0  0
   -4.7528    0.2091   -1.5924 C   0  0  0  0  0  0  0  0  0  0  0  0
   -3.2552   -1.4386   -0.5857 C   0  0  2  0  0  0  0  0  0  0  0  0
   -3.0857   -2.6627    0.2329 C   0  0  0  0  0  0  0  0  0  0  0  0
   -1.7906   -3.1286    0.3010 O   0  0  0  0  0  0  0  0  0  0  0  0
   -2.5371   -0.2780   -0.1333 N   0  0  0  0  0  0  0  0  0  0  0  0
   -1.1548   -0.1630    0.0292 C   0  0  0  0  0  0  0  0  0  0  0  0
   -0.2895   -1.1479   -0.1975 N   0  0  0  0  0  0  0  0  0  0  0  0
    1.0450   -1.0522   -0.0627 C   0  0  0  0  0  0  0  0  0  0  0  0
    1.8988   -2.1815   -0.2966 N   0  0  0  0  0  0  0  0  0  0  0  0
    3.3120   -2.1064   -0.3176 C   0  0  0  0  0  0  0  0  0  0  0  0
    4.0992   -2.9228    0.4976 C   0  0  0  0  0  0  0  0  0  0  0  0
    5.4759   -2.8283    0.4290 C   0  0  0  0  0  0  0  0  0  0  0  0
    6.0650   -1.9288   -0.4442 C   0  0  0  0  0  0  0  0  0  0  0  0
    5.2900   -1.1231   -1.2494 C   0  0  0  0  0  0  0  0  0  0  0  0
    6.0209    0.0258   -2.3701 Cl  0  0  0  0  0  0  0  0  0  0  0  0
    3.9139   -1.2209   -1.1775 C   0  0  0  0  0  0  0  0  0  0  0  0
    1.5390    0.1653    0.3412 C   0  0  0  0  0  0  0  0  0  0  0  0
    2.7833    0.6199    0.5799 N   0  0  0  0  0  0  0  0  0  0  0  0
    2.6899    1.9069    0.9596 C   0  0  0  0  0  0  0  0  0  0  0  0
    1.4223    2.3085    0.9772 N   0  0  0  0  0  0  0  0  0  0  0  0
    0.8108    3.5777    1.3077 C   0  0  0  0  0  0  0  0  0  0  0  0
    1.9383    4.6127    1.2666 C   0  0  0  0  0  0  0  0  0  0  0  0
   -0.2563    3.9318    0.2768 C   0  0  0  0  0  0  0  0  0  0  0  0
    0.6890    1.2321    0.5937 C   0  0  0  0  0  0  0  0  0  0  0  0
   -0.6284    1.0200    0.4259 N   0  0  0  0  0  0  0  0  0  0  0  0
   -5.0761   -1.2949    1.3637 H   0  0  0  0  0  0  0  0  0  0  0  0
   -5.7031    0.2025    0.6516 H   0  0  0  0  0  0  0  0  0  0  0  0
   -6.5320   -1.3225    0.3393 H   0  0  0  0  0  0  0  0  0  0  0  0
   -5.1814   -1.8861   -1.4497 H   0  0  0  0  0  0  0  0  0  0  0  0
   -5.7262    0.1977   -2.1495 H   0  0  0  0  0  0  0  0  0  0  0  0
   -4.8316    1.0717   -0.8953 H   0  0  0  0  0  0  0  0  0  0  0  0
   -3.9441    0.2817   -2.3228 H   0  0  0  0  0  0  0  0  0  0  0  0
   -2.8564   -1.6539   -1.6212 H   0  0  0  0  0  0  0  0  0  0  0  0
   -3.7107   -3.5162   -0.1069 H   0  0  0  0  0  0  0  0  0  0  0  0
   -3.3619   -2.3782    1.2942 H   0  0  0  0  0  0  0  0  0  0  0  0
   -1.5699   -3.6107   -0.5384 H   0  0  0  0  0  0  0  0  0  0  0  0
   -3.1032    0.6104    0.1149 H   0  0  0  0  0  0  0  0  0  0  0  0
    1.4587   -3.1191   -0.4616 H   0  0  0  0  0  0  0  0  0  0  0  0
    3.6009   -3.6153    1.1697 H   0  0  0  0  0  0  0  0  0  0  0  0
    6.1142   -3.4405    1.0447 H   0  0  0  0  0  0  0  0  0  0  0  0
    7.1544   -1.8595   -0.4922 H   0  0  0  0  0  0  0  0  0  0  0  0
    3.3428   -0.5659   -1.8441 H   0  0  0  0  0  0  0  0  0  0  0  0
    3.5281    2.5392    1.2180 H   0  0  0  0  0  0  0  0  0  0  0  0
    0.3905    3.4968    2.3308 H   0  0  0  0  0  0  0  0  0  0  0  0
    2.5385    4.4417    2.1650 H   0  0  0  0  0  0  0  0  0  0  0  0
    1.4457    5.5911    1.2651 H   0  0  0  0  0  0  0  0  0  0  0  0
    2.5054    4.4633    0.3313 H   0  0  0  0  0  0  0  0  0  0  0  0
    0.0426    3.4774   -0.7042 H   0  0  0  0  0  0  0  0  0  0  0  0
   -1.1961    3.4356    0.6007 H   0  0  0  0  0  0  0  0  0  0  0  0
   -0.3467    5.0223    0.1569 H   0  0  0  0  0  0  0  0  0  0  0  0
  1  2  1  0
  2  3  1  0
  2  4  1  0
  4  5  1  0
  5  6  1  0
  4  7  1  0
  7  8  1  0
  8  9  2  0
  9 10  1  0
 10 11  1  0
 11 12  1  0
 12 13  2  0
 13 14  1  0
 14 15  2  0
 15 16  1  0
 16 17  1  0
 16 18  2  0
 10 19  2  0
 19 20  1  0
 20 21  2  0
 21 22  1  0
 22 23  1  0
 23 24  1  0
 23 25  1  0
 22 26  1  0
 26 27  2  0
 27  8  1  0
 18 12  1  0
 26 19  1  0
  1 28  1  0
  1 29  1  0
  1 30  1  0
  2 31  1  0
  3 32  1  0
  3 33  1  0
  3 34  1  0
  4 35  1  6
  5 36  1  0
  5 37  1  0
  6 38  1  0
  7 39  1  0
 11 40  1  0
 13 41  1  0
 14 42  1  0
 15 43  1  0
 18 44  1  0
 21 45  1  0
 23 46  1  0
 24 47  1  0
 24 48  1  0
 24 49  1  0
 25 50  1  0
 25 51  1  0
 25 52  1  0
M  END
$$$$
