
     RDKit          3D

 38 40  0  0  0  0  0  0  0  0999 V2000
    6.6050   -1.3335    0.5505 O   0  0  0  0  0  0  0  0  0  0  0  0
    5.5771   -1.1229   -0.1041 C   0  0  0  0  0  0  0  0  0  0  0  0
    5.5704   -1.5034   -1.4398 O   0  0  0  0  0  0  0  0  0  0  0  0
    4.3881   -0.4926    0.4870 C   0  0  0  0  0  0  0  0  0  0  0  0
    4.3763   -0.1085    1.8104 C   0  0  0  0  0  0  0  0  0  0  0  0
    3.2395    0.4913    2.3654 C   0  0  0  0  0  0  0  0  0  0  0  0
    2.1059    0.7151    1.6140 C   0  0  0  0  0  0  0  0  0  0  0  0
    2.1203    0.3301    0.2909 C   0  0  0  0  0  0  0  0  0  0  0  0
    0.7400    0.5727   -0.7286 S   0  0  0  0  0  6  0  0  0  0  0  0
    0.0665    1.8460   -0.3107 O   0  0  0  0  0  0  0  0  0  0  0  0
    1.1894    0.7520   -2.1587 O   0  0  0  0  0  0  0  0  0  0  0  0
   -0.3458   -0.7668   -0.7092 N   0  0  0  0  0  0  0  0  0  0  0  0
   -0.8843   -1.0129    0.5897 C   0  0  0  0  0  0  0  0  0  0  0  0
   -2.3484   -1.3941    0.5526 C   0  0  0  0  0  0  0  0  0  0  0  0
   -3.0591   -0.1990   -0.0288 C   0  0  0  0  0  0  0  0  0  0  0  0
   -4.1318    0.3915    0.5659 C   0  0  0  0  0  0  0  0  0  0  0  0
   -4.6196   -0.1055    1.7639 O   0  0  0  0  0  0  0  0  0  0  0  0
   -4.7029    1.4944   -0.0727 C   0  0  0  0  0  0  0  0  0  0  0  0
   -4.1571    1.9312   -1.2686 C   0  0  0  0  0  0  0  0  0  0  0  0
   -3.0658    1.3184   -1.8592 C   0  0  0  0  0  0  0  0  0  0  0  0
   -2.5099    0.2454   -1.2381 C   0  0  0  0  0  0  0  0  0  0  0  0
   -1.3449   -0.5222   -1.7322 C   0  0  0  0  0  0  0  0  0  0  0  0
    3.2468   -0.2598   -0.2437 C   0  0  0  0  0  0  0  0  0  0  0  0
    6.3958   -1.3956   -2.0317 H   0  0  0  0  0  0  0  0  0  0  0  0
    5.2598   -0.2754    2.4224 H   0  0  0  0  0  0  0  0  0  0  0  0
    3.2457    0.7875    3.4068 H   0  0  0  0  0  0  0  0  0  0  0  0
    1.2537    1.1807    2.0855 H   0  0  0  0  0  0  0  0  0  0  0  0
   -0.8147   -0.1183    1.2595 H   0  0  0  0  0  0  0  0  0  0  0  0
   -0.3502   -1.8884    1.0384 H   0  0  0  0  0  0  0  0  0  0  0  0
   -2.6775   -1.4944    1.6192 H   0  0  0  0  0  0  0  0  0  0  0  0
   -2.5500   -2.2895   -0.0392 H   0  0  0  0  0  0  0  0  0  0  0  0
   -5.6294   -0.1682    1.8711 H   0  0  0  0  0  0  0  0  0  0  0  0
   -5.5458    1.9690    0.3817 H   0  0  0  0  0  0  0  0  0  0  0  0
   -4.6096    2.7923   -1.7593 H   0  0  0  0  0  0  0  0  0  0  0  0
   -2.6373    1.6566   -2.7923 H   0  0  0  0  0  0  0  0  0  0  0  0
   -1.7316   -1.4848   -2.1390 H   0  0  0  0  0  0  0  0  0  0  0  0
   -0.9325    0.0300   -2.5928 H   0  0  0  0  0  0  0  0  0  0  0  0
    3.2682   -0.5688   -1.2924 H   0  0  0  0  0  0  0  0  0  0  0  0
  1  2  2  0
  2  3  1  0
  2  4  1  0
  4  5  2  0
  5  6  1  0
  6  7  2  0
  7  8  1  0
  8  9  1  0
  9 10  2  0
  9 11  2  0
  9 12  1  0
 12 13  1  0
 13 14  1  0
 14 15  1  0
 15 16  2  0
 16 17  1  0
 16 18  1  0
 18 19  2  0
 19 20  1  0
 20 21  2  0
 21 22  1  0
  8 23  2  0
 23  4  1  0
 22 12  1  0
 21 15  1  0
  3 24  1  0
  5 25  1  0
  6 26  1  0
  7 27  1  0
 13 28  1  0
 13 29  1  0
 14 30  1  0
 14 31  1  0
 17 32  1  0
 18 33  1  0
 19 34  1  0
 20 35  1  0
 22 36  1  0
 22 37  1  0
 23 38  1  0
M  END
$$$$
