@<TRIPOS>MOLECULE
*****
 38 40 0 0 0
SMALL
GASTEIGER

@<TRIPOS>ATOM
      1 O           6.6050   -1.3335    0.5505 O.2     1  UNL1       -0.2451
      2 C           5.5771   -1.1229   -0.1041 C.2     1  UNL1        0.3369
      3 O           5.5704   -1.5034   -1.4398 O.3     1  UNL1       -0.4771
      4 C           4.3881   -0.4926    0.4870 C.ar    1  UNL1        0.0607
      5 C           4.3763   -0.1085    1.8104 C.ar    1  UNL1       -0.0477
      6 C           3.2395    0.4913    2.3654 C.ar    1  UNL1       -0.0591
      7 C           2.1059    0.7151    1.6140 C.ar    1  UNL1       -0.0353
      8 C           2.1203    0.3301    0.2909 C.ar    1  UNL1        0.1063
      9 S           0.7400    0.5727   -0.7286 S.O2    1  UNL1        0.0612
     10 O           0.0665    1.8460   -0.3107 O.2     1  UNL1       -0.1528
     11 O           1.1894    0.7520   -2.1587 O.2     1  UNL1       -0.1528
     12 N          -0.3458   -0.7668   -0.7092 N.3     1  UNL1       -0.1720
     13 C          -0.8843   -1.0129    0.5897 C.3     1  UNL1        0.0250
     14 C          -2.3484   -1.3941    0.5526 C.3     1  UNL1       -0.0095
     15 C          -3.0591   -0.1990   -0.0288 C.ar    1  UNL1       -0.0002
     16 C          -4.1318    0.3915    0.5659 C.ar    1  UNL1        0.1204
     17 O          -4.6196   -0.1055    1.7639 O.3     1  UNL1       -0.5065
     18 C          -4.7029    1.4944   -0.0727 C.ar    1  UNL1       -0.0199
     19 C          -4.1571    1.9312   -1.2686 C.ar    1  UNL1       -0.0580
     20 C          -3.0658    1.3184   -1.8592 C.ar    1  UNL1       -0.0568
     21 C          -2.5099    0.2454   -1.2381 C.ar    1  UNL1       -0.0250
     22 C          -1.3449   -0.5222   -1.7322 C.3     1  UNL1        0.0459
     23 C           3.2468   -0.2598   -0.2437 C.ar    1  UNL1       -0.0214
     24 H           6.3958   -1.3956   -2.0317 H       1  UNL1        0.2954
     25 H           5.2598   -0.2754    2.4224 H       1  UNL1        0.0626
     26 H           3.2457    0.7875    3.4068 H       1  UNL1        0.0618
     27 H           1.2537    1.1807    2.0855 H       1  UNL1        0.0637
     28 H          -0.8147   -0.1183    1.2595 H       1  UNL1        0.0447
     29 H          -0.3502   -1.8884    1.0384 H       1  UNL1        0.0447
     30 H          -2.6775   -1.4944    1.6192 H       1  UNL1        0.0327
     31 H          -2.5500   -2.2895   -0.0392 H       1  UNL1        0.0327
     32 H          -5.6294   -0.1682    1.8711 H       1  UNL1        0.2921
     33 H          -5.5458    1.9690    0.3817 H       1  UNL1        0.0654
     34 H          -4.6096    2.7923   -1.7593 H       1  UNL1        0.0619
     35 H          -2.6373    1.6566   -2.7923 H       1  UNL1        0.0621
     36 H          -1.7316   -1.4848   -2.1390 H       1  UNL1        0.0493
     37 H          -0.9325    0.0300   -2.5928 H       1  UNL1        0.0493
     38 H           3.2682   -0.5688   -1.2924 H       1  UNL1        0.0645
@<TRIPOS>BOND
     1     1     2    2
     2     2     3    1
     3     2     4    1
     4     4     5   ar
     5     5     6   ar
     6     6     7   ar
     7     7     8   ar
     8     8     9    1
     9     9    10    2
    10     9    11    2
    11     9    12    1
    12    12    13    1
    13    13    14    1
    14    14    15    1
    15    15    16   ar
    16    16    17    1
    17    16    18   ar
    18    18    19   ar
    19    19    20   ar
    20    20    21   ar
    21    21    22    1
    22     8    23   ar
    23    23     4   ar
    24    22    12    1
    25    21    15   ar
    26     3    24    1
    27     5    25    1
    28     6    26    1
    29     7    27    1
    30    13    28    1
    31    13    29    1
    32    14    30    1
    33    14    31    1
    34    17    32    1
    35    18    33    1
    36    19    34    1
    37    20    35    1
    38    22    36    1
    39    22    37    1
    40    23    38    1
