@<TRIPOS>MOLECULE
*****
 94 99 0 0 0
SMALL
GASTEIGER

@<TRIPOS>ATOM
      1 C           3.9066   -1.9787   -3.0414 C.3     1  UNL1       -0.0598
      2 C           3.3523   -2.7332   -1.8339 C.3     1  UNL1       -0.0343
      3 C           3.3537   -4.2070   -2.2353 C.3     1  UNL1       -0.0598
      4 C           4.2529   -2.6073   -0.6514 C.3     1  UNL1       -0.0468
      5 C           3.4187   -2.6824    0.6290 C.3     1  UNL1       -0.0362
      6 C           2.6761   -1.3425    0.6694 C.3     1  UNL1        0.0743
      7 C           3.8620   -0.3817    0.7066 C.2     1  UNL1        0.3142
      8 O           3.9834    0.4448   -0.2172 O.2     1  UNL1       -0.2502
      9 O           4.7944   -0.3914    1.7104 O.3     1  UNL1       -0.4595
     10 C           5.9081    0.4056    1.8744 C.3     1  UNL1        0.1175
     11 C           5.6891    1.8521    1.9781 C.ar    1  UNL1       -0.0103
     12 C           5.3882    2.4897    3.1595 C.ar    1  UNL1       -0.0554
     13 C           5.2143    3.8524    3.1774 C.ar    1  UNL1       -0.0614
     14 C           5.3323    4.6160    2.0359 C.ar    1  UNL1       -0.0617
     15 C           5.6323    3.9973    0.8476 C.ar    1  UNL1       -0.0614
     16 C           5.8068    2.6176    0.8392 C.ar    1  UNL1       -0.0554
     17 C           1.9190   -1.0802    1.8935 C.3     1  UNL1       -0.0359
     18 C           0.4629   -1.0182    1.9838 C.3     1  UNL1       -0.0424
     19 C          -0.2950   -1.0943    0.6279 C.3     1  UNL1       -0.0051
     20 C          -0.4633   -2.5996    0.4944 C.3     1  UNL1       -0.0553
     21 C           0.6787   -0.5048   -0.2911 C.2     1  UNL1       -0.0629
     22 C           0.4681    0.6887   -0.7774 C.2     1  UNL1       -0.0836
     23 C          -0.7092    1.5351   -0.4706 C.3     1  UNL1       -0.0306
     24 C          -1.8570    0.5977   -0.3137 C.3     1  UNL1       -0.0257
     25 C          -3.1959    1.2984   -0.2938 C.3     1  UNL1       -0.0250
     26 C          -3.4932    2.1509    0.8617 C.3     1  UNL1       -0.0590
     27 C          -3.1431    2.2497   -1.5138 C.3     1  UNL1       -0.0447
     28 C          -4.5046    2.7583   -1.8975 C.3     1  UNL1       -0.0258
     29 C          -5.5983    1.7780   -1.9443 C.3     1  UNL1        0.0606
     30 O          -6.8207    2.4709   -1.8669 O.3     1  UNL1       -0.3912
     31 C          -5.5924    0.7337   -0.8843 C.3     1  UNL1       -0.0056
     32 C          -6.3370   -0.4733   -1.4919 C.3     1  UNL1       -0.0572
     33 C          -6.3515    1.1117    0.3455 C.3     1  UNL1       -0.0572
     34 C          -4.1987    0.2606   -0.6648 C.3     1  UNL1       -0.0278
     35 C          -4.1123   -0.9746    0.1946 C.3     1  UNL1       -0.0486
     36 C          -2.7249   -1.5401    0.2034 C.3     1  UNL1       -0.0463
     37 C          -1.6618   -0.5188    0.6511 C.3     1  UNL1       -0.0194
     38 C          -2.0153   -0.1914    2.0786 C.3     1  UNL1       -0.0585
     39 C           1.9463   -1.1665   -0.6465 C.3     1  UNL1       -0.0031
     40 C           1.9250   -2.3037   -1.5636 C.3     1  UNL1       -0.0403
     41 H           4.6270   -2.6159   -3.6108 H       1  UNL1        0.0235
     42 H           4.4039   -1.0709   -2.6783 H       1  UNL1        0.0235
     43 H           3.0389   -1.6784   -3.6555 H       1  UNL1        0.0235
     44 H           3.3452   -4.8308   -1.2949 H       1  UNL1        0.0235
     45 H           2.5150   -4.4598   -2.8872 H       1  UNL1        0.0235
     46 H           4.3010   -4.4650   -2.7520 H       1  UNL1        0.0235
     47 H           4.8570   -1.6784   -0.6263 H       1  UNL1        0.0271
     48 H           4.9799   -3.4544   -0.5683 H       1  UNL1        0.0271
     49 H           4.0491   -2.8186    1.5147 H       1  UNL1        0.0276
     50 H           2.7461   -3.5232    0.5241 H       1  UNL1        0.0276
     51 H           6.6075    0.2090    1.0301 H       1  UNL1        0.0749
     52 H           6.4030    0.0860    2.8345 H       1  UNL1        0.0749
     53 H           5.2913    1.9048    4.0680 H       1  UNL1        0.0621
     54 H           4.9734    4.3628    4.1242 H       1  UNL1        0.0618
     55 H           5.1991    5.6904    2.0289 H       1  UNL1        0.0618
     56 H           5.7316    4.5633   -0.0584 H       1  UNL1        0.0618
     57 H           6.0540    2.1817   -0.1430 H       1  UNL1        0.0621
     58 H           2.3436   -0.1382    2.3866 H       1  UNL1        0.0276
     59 H           2.2834   -1.8648    2.6500 H       1  UNL1        0.0276
     60 H           0.1112   -1.8531    2.6650 H       1  UNL1        0.0274
     61 H           0.1708   -0.0982    2.5298 H       1  UNL1        0.0274
     62 H          -0.9819   -2.9619   -0.3560 H       1  UNL1        0.0238
     63 H          -1.0498   -2.8809    1.4283 H       1  UNL1        0.0238
     64 H           0.4937   -3.1324    0.7775 H       1  UNL1        0.0238
     65 H           1.1932    1.1691   -1.4831 H       1  UNL1        0.0572
     66 H          -0.5472    2.1975    0.3988 H       1  UNL1        0.0310
     67 H          -0.9249    2.1618   -1.3752 H       1  UNL1        0.0310
     68 H          -1.8800    0.0814   -1.3353 H       1  UNL1        0.0315
     69 H          -4.0348    3.0828    0.5048 H       1  UNL1        0.0235
     70 H          -4.1520    1.7674    1.6461 H       1  UNL1        0.0235
     71 H          -2.5314    2.5979    1.2407 H       1  UNL1        0.0235
     72 H          -2.6237    3.1786   -1.1278 H       1  UNL1        0.0271
     73 H          -2.6567    1.7915   -2.3708 H       1  UNL1        0.0271
     74 H          -4.3745    3.1826   -2.9377 H       1  UNL1        0.0290
     75 H          -4.8168    3.6579   -1.2890 H       1  UNL1        0.0290
     76 H          -5.6122    1.3005   -2.9654 H       1  UNL1        0.0599
     77 H          -7.5836    1.8749   -1.6957 H       1  UNL1        0.2098
     78 H          -6.6720   -1.0984   -0.6361 H       1  UNL1        0.0236
     79 H          -5.6646   -1.0788   -2.1090 H       1  UNL1        0.0236
     80 H          -7.2510   -0.1417   -2.0128 H       1  UNL1        0.0236
     81 H          -6.1405    0.4986    1.2198 H       1  UNL1        0.0236
     82 H          -7.4615    0.9901    0.1564 H       1  UNL1        0.0236
     83 H          -6.2633    2.2097    0.6001 H       1  UNL1        0.0236
     84 H          -3.8593   -0.1068   -1.6894 H       1  UNL1        0.0312
     85 H          -4.6266   -0.9235    1.1488 H       1  UNL1        0.0268
     86 H          -4.7179   -1.7490   -0.3913 H       1  UNL1        0.0268
     87 H          -2.5035   -1.8020   -0.8731 H       1  UNL1        0.0271
     88 H          -2.7776   -2.4445    0.7731 H       1  UNL1        0.0271
     89 H          -1.6386   -0.9720    2.7734 H       1  UNL1        0.0235
     90 H          -1.6358    0.7599    2.4539 H       1  UNL1        0.0235
     91 H          -3.1322   -0.2611    2.2627 H       1  UNL1        0.0235
     92 H           2.6034   -0.4293   -1.2297 H       1  UNL1        0.0357
     93 H           1.5529   -1.9083   -2.5628 H       1  UNL1        0.0276
     94 H           1.3420   -3.1794   -1.3880 H       1  UNL1        0.0276
@<TRIPOS>BOND
     1     1     2    1
     2     2     3    1
     3     2     4    1
     4     4     5    1
     5     5     6    1
     6     6     7    1
     7     7     8    2
     8     7     9    1
     9     9    10    1
    10    10    11    1
    11    11    12   ar
    12    12    13   ar
    13    13    14   ar
    14    14    15   ar
    15    15    16   ar
    16     6    17    1
    17    17    18    1
    18    18    19    1
    19    19    20    1
    20    19    21    1
    21    21    22    2
    22    22    23    1
    23    23    24    1
    24    24    25    1
    25    25    26    1
    26    25    27    1
    27    27    28    1
    28    28    29    1
    29    29    30    1
    30    29    31    1
    31    31    32    1
    32    31    33    1
    33    31    34    1
    34    34    35    1
    35    35    36    1
    36    36    37    1
    37    37    38    1
    38    21    39    1
    39    39    40    1
    40    40     2    1
    41    39     6    1
    42    16    11   ar
    43    37    19    1
    44    37    24    1
    45    34    25    1
    46     1    41    1
    47     1    42    1
    48     1    43    1
    49     3    44    1
    50     3    45    1
    51     3    46    1
    52     4    47    1
    53     4    48    1
    54     5    49    1
    55     5    50    1
    56    10    51    1
    57    10    52    1
    58    12    53    1
    59    13    54    1
    60    14    55    1
    61    15    56    1
    62    16    57    1
    63    17    58    1
    64    17    59    1
    65    18    60    1
    66    18    61    1
    67    20    62    1
    68    20    63    1
    69    20    64    1
    70    22    65    1
    71    23    66    1
    72    23    67    1
    73    24    68    1
    74    26    69    1
    75    26    70    1
    76    26    71    1
    77    27    72    1
    78    27    73    1
    79    28    74    1
    80    28    75    1
    81    29    76    1
    82    30    77    1
    83    32    78    1
    84    32    79    1
    85    32    80    1
    86    33    81    1
    87    33    82    1
    88    33    83    1
    89    34    84    1
    90    35    85    1
    91    35    86    1
    92    36    87    1
    93    36    88    1
    94    38    89    1
    95    38    90    1
    96    38    91    1
    97    39    92    1
    98    40    93    1
    99    40    94    1
