@<TRIPOS>MOLECULE
*****
 52 54 0 0 0
SMALL
GASTEIGER

@<TRIPOS>ATOM
      1 N          -9.3250    0.1173    1.4247 N.pl3   0  UNK0       -0.3289
      2 C          -8.0535   -0.0491    0.7793 C.ar    0  UNK0        0.1949
      3 N          -7.8373   -1.0388   -0.1051 N.ar    0  UNK0       -0.1982
      4 C          -6.6292   -1.1912   -0.7141 C.ar    0  UNK0        0.1472
      5 N          -6.1543   -2.0693   -1.6175 N.ar    0  UNK0       -0.3453
      6 C          -4.8722   -1.8000   -1.9190 C.ar    0  UNK0        0.0075
      7 C          -4.4605   -0.6822   -1.1806 C.ar    0  UNK0       -0.0153
      8 C          -3.1143   -0.0529   -1.1979 C.3     0  UNK0       -0.0215
      9 C          -2.3659   -0.4936    0.0051 C.3     0  UNK0       -0.0236
     10 C          -1.0226    0.0279    0.1640 C.ar    0  UNK0       -0.0470
     11 C           0.0272   -0.6734   -0.3823 C.ar    0  UNK0       -0.0578
     12 C           1.3503   -0.2415   -0.2760 C.ar    0  UNK0       -0.0494
     13 C           1.6471    0.9038    0.3813 C.ar    0  UNK0        0.0367
     14 C           3.0012    1.4153    0.5327 C.2     0  UNK0        0.2447
     15 O           3.2252    2.4998    1.1503 O.2     0  UNK0       -0.2702
     16 N           4.1145    0.7264   -0.0005 N.am    1  GLU1       -0.2983
     17 CA          5.4428    1.2904    0.1843 C.3     1  GLU1        0.1209
     18 CB          6.3135    0.3257    0.9424 C.3     1  GLU1       -0.0140
     19 CG          6.4849   -0.9933    0.2384 C.3     1  GLU1        0.0470
     20 CD          7.3500   -1.8554    1.0689 C.2     1  GLU1        0.3048
     21 OE1         6.9256   -2.3120    2.1453 O.2     1  GLU1       -0.2510
     22 OE2         8.6333   -2.1594    0.6571 O.3     1  GLU1       -0.4806
     23 C           6.0268    1.5980   -1.1625 C.2     1  GLU1        0.3253
     24 O           5.3773    1.3635   -2.2139 O.2     1  GLU1       -0.2489
     25 OXT         7.2877    2.1451   -1.2990 O.3     1  GLU1       -0.4793
     26 C           0.5954    1.6349    0.9458 C.ar    0  UNK0       -0.0494
     27 C          -0.6978    1.1971    0.8324 C.ar    0  UNK0       -0.0578
     28 C          -5.5814   -0.3342   -0.4453 C.ar    0  UNK0        0.0861
     29 C          -5.8230    0.6735    0.4632 C.ar    0  UNK0        0.2622
     30 O          -4.9156    1.4721    0.7397 O.2     0  UNK0       -0.2670
     31 N          -7.0405    0.7909    1.0479 N.ar    0  UNK0       -0.2947
     32 H          -9.7523    1.0308    1.6129 H       0  UNK0        0.1451
     33 H          -9.8177   -0.7387    1.7063 H       0  UNK0        0.1451
     34 H          -6.7123   -2.8412   -2.0163 H       0  UNK0        0.1668
     35 H          -4.2381   -2.3368   -2.6102 H       0  UNK0        0.0810
     36 H          -2.6233   -0.3849   -2.1354 H       0  UNK0        0.0317
     37 H          -3.2703    1.0324   -1.2888 H       0  UNK0        0.0317
     38 H          -2.2913   -1.6219   -0.0805 H       0  UNK0        0.0316
     39 H          -2.9171   -0.3478    0.9535 H       0  UNK0        0.0316
     40 H          -0.1324   -1.5918   -0.9183 H       0  UNK0        0.0620
     41 H           2.1377   -0.8438   -0.7324 H       0  UNK0        0.0625
     42 H           4.0035   -0.1824   -0.5257 H       1  GLU1        0.1498
     43 HA          5.3714    2.2215    0.7454 H       1  GLU1        0.0614
     44 HB1         5.8022    0.1209    1.9064 H       1  GLU1        0.0294
     45 HB2         7.2921    0.7514    1.1899 H       1  GLU1        0.0294
     46 HG1         5.4764   -1.4414    0.1082 H       1  GLU1        0.0378
     47 HG2         6.9743   -0.8170   -0.7478 H       1  GLU1        0.0378
     48 HE2         9.1615   -2.9259    1.0788 H       1  GLU1        0.2951
     49 HXT         7.5057    2.8199   -2.0316 H       1  GLU1        0.2951
     50 H           0.8373    2.5498    1.4704 H       0  UNK0        0.0625
     51 H          -1.4997    1.7470    1.2586 H       0  UNK0        0.0620
     52 H          -7.2174    1.5644    1.7424 H       0  UNK0        0.1716
@<TRIPOS>BOND
     1     1     2    1
     2     2     3   ar
     3     3     4   ar
     4     4     5   ar
     5     5     6   ar
     6     6     7   ar
     7     7     8    1
     8     8     9    1
     9     9    10    1
    10    10    11   ar
    11    11    12   ar
    12    12    13   ar
    13    13    14    1
    14    14    15    2
    15    14    16   am
    16    16    17    1
    17    17    18    1
    18    18    19    1
    19    19    20    1
    20    20    21    2
    21    20    22    1
    22    17    23    1
    23    23    24    2
    24    23    25    1
    25    13    26   ar
    26    26    27   ar
    27     7    28   ar
    28    28    29   ar
    29    29    30    2
    30    29    31   ar
    31    31     2   ar
    32    28     4   ar
    33    27    10   ar
    34     1    32    1
    35     1    33    1
    36     5    34    1
    37     6    35    1
    38     8    36    1
    39     8    37    1
    40     9    38    1
    41     9    39    1
    42    11    40    1
    43    12    41    1
    44    16    42    1
    45    17    43    1
    46    18    44    1
    47    18    45    1
    48    19    46    1
    49    19    47    1
    50    22    48    1
    51    25    49    1
    52    26    50    1
    53    27    51    1
    54    31    52    1
