
     RDKit          3D

 64 66  0  0  0  0  0  0  0  0999 V2000
   -0.0928   -0.4703    0.3751 C   0  0  2  0  0  0  0  0  0  0  0  0
   -0.4979   -1.5688   -0.5324 C   0  0  0  0  0  0  0  0  0  0  0  0
   -1.6691   -2.3432   -0.0607 C   0  0  0  0  0  0  0  0  0  0  0  0
   -2.9300   -1.5574    0.1132 C   0  0  0  0  0  0  0  0  0  0  0  0
   -4.1472   -2.3528   -0.3606 C   0  0  0  0  0  0  0  0  0  0  0  0
   -4.0487   -3.7775    0.1896 C   0  0  0  0  0  0  0  0  0  0  0  0
   -2.8635   -4.4991   -0.4009 C   0  0  0  0  0  0  0  0  0  0  0  0
   -1.8883   -3.5049   -1.0393 C   0  0  0  0  0  0  0  0  0  0  0  0
   -1.0641    0.5637    0.6107 N   0  0  0  0  0  0  0  0  0  0  0  0
   -1.8213    1.1405    1.6897 C   0  0  0  0  0  0  0  0  0  0  0  0
   -1.5959    0.6028    2.7985 O   0  0  0  0  0  0  0  0  0  0  0  0
   -2.6960    2.2052    1.3806 N   0  0  0  0  0  0  0  0  0  0  0  0
   -2.8454    2.7208    0.0199 C   0  0  0  0  0  0  0  0  0  0  0  0
   -4.0908    3.5891   -0.0635 C   0  0  0  0  0  0  0  0  0  0  0  0
   -4.1650    4.4085    1.0821 O   0  0  0  0  0  0  0  0  0  0  0  0
   -4.5413    3.5996    2.1411 C   0  0  0  0  0  0  0  0  0  0  0  0
   -3.3963    2.7011    2.5298 C   0  0  0  0  0  0  0  0  0  0  0  0
    1.1798    0.1983   -0.0864 C   0  0  0  0  0  0  0  0  0  0  0  0
    1.0979    1.4520   -0.1548 O   0  0  0  0  0  0  0  0  0  0  0  0
    2.3155   -0.5957   -0.3929 N   0  0  0  0  0  0  0  0  0  0  0  0
    3.5116    0.0505   -0.8276 C   0  0  0  0  0  0  0  0  0  0  0  0
    4.0433    1.0156    0.2125 C   0  0  0  0  0  0  0  0  0  0  0  0
    5.0335    1.8837   -0.5652 C   0  0  0  0  0  0  0  0  0  0  0  0
    6.1419    1.0750   -0.9768 N   0  0  0  0  0  0  0  0  0  0  0  0
    7.1459    0.9400    0.0426 C   0  0  0  0  0  0  0  0  0  0  0  0
    5.8021   -0.1166   -1.6784 C   0  0  0  0  0  0  0  0  0  0  0  0
    4.6326   -0.8812   -1.1465 C   0  0  0  0  0  0  0  0  0  0  0  0
    3.2522    0.8245   -2.0655 C   0  0  0  0  0  0  0  0  0  0  0  0
    3.0282    1.4289   -3.0460 N   0  0  0  0  0  0  0  0  0  0  0  0
    0.1119   -0.9013    1.4100 H   0  0  0  0  0  0  0  0  0  0  0  0
    0.3530   -2.2983   -0.6361 H   0  0  0  0  0  0  0  0  0  0  0  0
   -0.7319   -1.1222   -1.5405 H   0  0  0  0  0  0  0  0  0  0  0  0
   -1.4279   -2.7828    0.9461 H   0  0  0  0  0  0  0  0  0  0  0  0
   -2.9236   -0.5937   -0.3982 H   0  0  0  0  0  0  0  0  0  0  0  0
   -3.1200   -1.3611    1.2090 H   0  0  0  0  0  0  0  0  0  0  0  0
   -5.0630   -1.9192    0.0541 H   0  0  0  0  0  0  0  0  0  0  0  0
   -4.2234   -2.3772   -1.4597 H   0  0  0  0  0  0  0  0  0  0  0  0
   -4.0039   -3.7508    1.2810 H   0  0  0  0  0  0  0  0  0  0  0  0
   -4.9683   -4.2968   -0.1373 H   0  0  0  0  0  0  0  0  0  0  0  0
   -2.3140   -5.0318    0.4001 H   0  0  0  0  0  0  0  0  0  0  0  0
   -3.1831   -5.2304   -1.1658 H   0  0  0  0  0  0  0  0  0  0  0  0
   -0.9006   -3.9763   -1.1870 H   0  0  0  0  0  0  0  0  0  0  0  0
   -2.2898   -3.0824   -1.9755 H   0  0  0  0  0  0  0  0  0  0  0  0
   -1.1860    0.9698   -0.3480 H   0  0  0  0  0  0  0  0  0  0  0  0
   -2.9693    1.8891   -0.7139 H   0  0  0  0  0  0  0  0  0  0  0  0
   -1.9588    3.3397   -0.2241 H   0  0  0  0  0  0  0  0  0  0  0  0
   -5.0006    2.9599   -0.1206 H   0  0  0  0  0  0  0  0  0  0  0  0
   -3.9756    4.2577   -0.9388 H   0  0  0  0  0  0  0  0  0  0  0  0
   -5.3802    2.9164    1.8211 H   0  0  0  0  0  0  0  0  0  0  0  0
   -4.8536    4.1626    3.0392 H   0  0  0  0  0  0  0  0  0  0  0  0
   -3.8454    1.8659    3.1418 H   0  0  0  0  0  0  0  0  0  0  0  0
   -2.6849    3.2086    3.2107 H   0  0  0  0  0  0  0  0  0  0  0  0
    2.2462   -1.6241   -0.2928 H   0  0  0  0  0  0  0  0  0  0  0  0
    3.2635    1.5935    0.7039 H   0  0  0  0  0  0  0  0  0  0  0  0
    4.6178    0.3674    0.9375 H   0  0  0  0  0  0  0  0  0  0  0  0
    4.4730    2.3367   -1.3833 H   0  0  0  0  0  0  0  0  0  0  0  0
    5.4106    2.6684    0.1195 H   0  0  0  0  0  0  0  0  0  0  0  0
    7.0983    1.8858    0.6505 H   0  0  0  0  0  0  0  0  0  0  0  0
    8.1483    0.8963   -0.3842 H   0  0  0  0  0  0  0  0  0  0  0  0
    6.9140    0.1359    0.7827 H   0  0  0  0  0  0  0  0  0  0  0  0
    5.6117    0.0894   -2.7569 H   0  0  0  0  0  0  0  0  0  0  0  0
    6.6794   -0.7987   -1.6463 H   0  0  0  0  0  0  0  0  0  0  0  0
    4.3216   -1.6146   -1.9193 H   0  0  0  0  0  0  0  0  0  0  0  0
    4.9238   -1.5134   -0.2671 H   0  0  0  0  0  0  0  0  0  0  0  0
  1  2  1  0
  2  3  1  0
  3  4  1  0
  4  5  1  0
  5  6  1  0
  6  7  1  0
  7  8  1  0
  1  9  1  0
  9 10  1  0
 10 11  2  0
 10 12  1  0
 12 13  1  0
 13 14  1  0
 14 15  1  0
 15 16  1  0
 16 17  1  0
  1 18  1  0
 18 19  2  0
 18 20  1  0
 20 21  1  0
 21 22  1  0
 22 23  1  0
 23 24  1  0
 24 25  1  0
 24 26  1  0
 26 27  1  0
 21 28  1  0
 28 29  3  0
  8  3  1  0
 17 12  1  0
 27 21  1  0
  1 30  1  1
  2 31  1  0
  2 32  1  0
  3 33  1  0
  4 34  1  0
  4 35  1  0
  5 36  1  0
  5 37  1  0
  6 38  1  0
  6 39  1  0
  7 40  1  0
  7 41  1  0
  8 42  1  0
  8 43  1  0
  9 44  1  0
 13 45  1  0
 13 46  1  0
 14 47  1  0
 14 48  1  0
 16 49  1  0
 16 50  1  0
 17 51  1  0
 17 52  1  0
 20 53  1  0
 22 54  1  0
 22 55  1  0
 23 56  1  0
 23 57  1  0
 25 58  1  0
 25 59  1  0
 25 60  1  0
 26 61  1  0
 26 62  1  0
 27 63  1  0
 27 64  1  0
M  END
$$$$
