@<TRIPOS>MOLECULE
*****
 64 66 0 0 0
SMALL
GASTEIGER

@<TRIPOS>ATOM
      1 C          -0.0928   -0.4703    0.3751 C.3     1  UNL1        0.1011
      2 C          -0.4979   -1.5688   -0.5324 C.3     1  UNL1       -0.0231
      3 C          -1.6691   -2.3432   -0.0607 C.3     1  UNL1       -0.0389
      4 C          -2.9300   -1.5574    0.1132 C.3     1  UNL1       -0.0501
      5 C          -4.1472   -2.3528   -0.3606 C.3     1  UNL1       -0.0528
      6 C          -4.0487   -3.7775    0.1896 C.3     1  UNL1       -0.0530
      7 C          -2.8635   -4.4991   -0.4009 C.3     1  UNL1       -0.0528
      8 C          -1.8883   -3.5049   -1.0393 C.3     1  UNL1       -0.0501
      9 N          -1.0641    0.5637    0.6107 N.am    1  UNL1       -0.2879
     10 C          -1.8213    1.1405    1.6897 C.2     1  UNL1        0.3029
     11 O          -1.5959    0.6028    2.7985 O.2     1  UNL1       -0.2526
     12 N          -2.6960    2.2052    1.3806 N.am    1  UNL1       -0.2813
     13 C          -2.8454    2.7208    0.0199 C.3     1  UNL1        0.0396
     14 C          -4.0908    3.5891   -0.0635 C.3     1  UNL1        0.0635
     15 O          -4.1650    4.4085    1.0821 O.3     1  UNL1       -0.3767
     16 C          -4.5413    3.5996    2.1411 C.3     1  UNL1        0.0635
     17 C          -3.3963    2.7011    2.5298 C.3     1  UNL1        0.0396
     18 C           1.1798    0.1983   -0.0864 C.2     1  UNL1        0.2346
     19 O           1.0979    1.4520   -0.1548 O.2     1  UNL1       -0.2737
     20 N           2.3155   -0.5957   -0.3929 N.am    1  UNL1       -0.2957
     21 C           3.5116    0.0505   -0.8276 C.3     1  UNL1        0.1236
     22 C           4.0433    1.0156    0.2125 C.3     1  UNL1       -0.0055
     23 C           5.0335    1.8837   -0.5652 C.3     1  UNL1        0.0015
     24 N           6.1419    1.0750   -0.9768 N.3     1  UNL1       -0.3051
     25 C           7.1459    0.9400    0.0426 C.3     1  UNL1       -0.0128
     26 C           5.8021   -0.1166   -1.6784 C.3     1  UNL1        0.0015
     27 C           4.6326   -0.8812   -1.1465 C.3     1  UNL1       -0.0055
     28 C           3.2522    0.8245   -2.0655 C.1     1  UNL1        0.0884
     29 N           3.0282    1.4289   -3.0460 N.1     1  UNL1       -0.1943
     30 H           0.1119   -0.9013    1.4100 H       1  UNL1        0.0595
     31 H           0.3530   -2.2983   -0.6361 H       1  UNL1        0.0290
     32 H          -0.7319   -1.1222   -1.5405 H       1  UNL1        0.0290
     33 H          -1.4279   -2.7828    0.9461 H       1  UNL1        0.0301
     34 H          -2.9236   -0.5937   -0.3982 H       1  UNL1        0.0268
     35 H          -3.1200   -1.3611    1.2090 H       1  UNL1        0.0268
     36 H          -5.0630   -1.9192    0.0541 H       1  UNL1        0.0265
     37 H          -4.2234   -2.3772   -1.4597 H       1  UNL1        0.0265
     38 H          -4.0039   -3.7508    1.2810 H       1  UNL1        0.0265
     39 H          -4.9683   -4.2968   -0.1373 H       1  UNL1        0.0265
     40 H          -2.3140   -5.0318    0.4001 H       1  UNL1        0.0265
     41 H          -3.1831   -5.2304   -1.1658 H       1  UNL1        0.0265
     42 H          -0.9006   -3.9763   -1.1870 H       1  UNL1        0.0268
     43 H          -2.2898   -3.0824   -1.9755 H       1  UNL1        0.0268
     44 H          -1.1860    0.9698   -0.3480 H       1  UNL1        0.1510
     45 H          -2.9693    1.8891   -0.7139 H       1  UNL1        0.0488
     46 H          -1.9588    3.3397   -0.2241 H       1  UNL1        0.0488
     47 H          -5.0006    2.9599   -0.1206 H       1  UNL1        0.0575
     48 H          -3.9756    4.2577   -0.9388 H       1  UNL1        0.0575
     49 H          -5.3802    2.9164    1.8211 H       1  UNL1        0.0575
     50 H          -4.8536    4.1626    3.0392 H       1  UNL1        0.0575
     51 H          -3.8454    1.8659    3.1418 H       1  UNL1        0.0488
     52 H          -2.6849    3.2086    3.2107 H       1  UNL1        0.0488
     53 H           2.2462   -1.6241   -0.2928 H       1  UNL1        0.1503
     54 H           3.2635    1.5935    0.7039 H       1  UNL1        0.0308
     55 H           4.6178    0.3674    0.9375 H       1  UNL1        0.0308
     56 H           4.4730    2.3367   -1.3833 H       1  UNL1        0.0427
     57 H           5.4106    2.6684    0.1195 H       1  UNL1        0.0427
     58 H           7.0983    1.8858    0.6505 H       1  UNL1        0.0391
     59 H           8.1483    0.8963   -0.3842 H       1  UNL1        0.0391
     60 H           6.9140    0.1359    0.7827 H       1  UNL1        0.0391
     61 H           5.6117    0.0894   -2.7569 H       1  UNL1        0.0427
     62 H           6.6794   -0.7987   -1.6463 H       1  UNL1        0.0427
     63 H           4.3216   -1.6146   -1.9193 H       1  UNL1        0.0308
     64 H           4.9238   -1.5134   -0.2671 H       1  UNL1        0.0308
@<TRIPOS>BOND
     1     1     2    1
     2     2     3    1
     3     3     4    1
     4     4     5    1
     5     5     6    1
     6     6     7    1
     7     7     8    1
     8     1     9    1
     9     9    10   am
    10    10    11    2
    11    10    12   am
    12    12    13    1
    13    13    14    1
    14    14    15    1
    15    15    16    1
    16    16    17    1
    17     1    18    1
    18    18    19    2
    19    18    20   am
    20    20    21    1
    21    21    22    1
    22    22    23    1
    23    23    24    1
    24    24    25    1
    25    24    26    1
    26    26    27    1
    27    21    28    1
    28    28    29    3
    29     8     3    1
    30    17    12    1
    31    27    21    1
    32     1    30    1
    33     2    31    1
    34     2    32    1
    35     3    33    1
    36     4    34    1
    37     4    35    1
    38     5    36    1
    39     5    37    1
    40     6    38    1
    41     6    39    1
    42     7    40    1
    43     7    41    1
    44     8    42    1
    45     8    43    1
    46     9    44    1
    47    13    45    1
    48    13    46    1
    49    14    47    1
    50    14    48    1
    51    16    49    1
    52    16    50    1
    53    17    51    1
    54    17    52    1
    55    20    53    1
    56    22    54    1
    57    22    55    1
    58    23    56    1
    59    23    57    1
    60    25    58    1
    61    25    59    1
    62    25    60    1
    63    26    61    1
    64    26    62    1
    65    27    63    1
    66    27    64    1
