@<TRIPOS>MOLECULE
*****
 53 55 0 0 0
SMALL
GASTEIGER

@<TRIPOS>ATOM
      1 C          -5.0470   -0.3610   -0.7343 C.3     1  UNL1        0.0456
      2 C          -6.0354   -0.6708   -1.8355 C.3     1  UNL1       -0.0425
      3 N          -3.9819    0.4919   -1.1534 N.am    1  UNL1       -0.3083
      4 C          -2.6709   -0.0439   -1.0737 C.2     1  UNL1        0.2237
      5 O          -2.2005   -1.1510   -0.7025 O.2     1  UNL1       -0.2752
      6 C          -1.4433    0.7323   -1.4769 C.3     1  UNL1        0.1115
      7 C          -0.2272   -0.0704   -1.2949 C.ar    1  UNL1        0.2241
      8 N           0.6735    0.0337   -0.3025 N.ar    1  UNL1       -0.1529
      9 O           0.4354    0.9962    0.6405 O.co2   1  UNL1       -0.6183
     10 C           1.7537   -0.7630   -0.2351 C.ar    1  UNL1        0.2828
     11 N           2.7004   -0.6575    0.8112 N.pl3   1  UNL1       -0.2844
     12 C           3.9212    0.0384    1.1636 C.3     1  UNL1        0.0881
     13 C           4.9621   -0.2938    0.1166 C.3     1  UNL1        0.3468
     14 F           4.5094    0.1247   -1.1143 F       1  UNL1       -0.1920
     15 F           5.0919   -1.6875    0.1026 F       1  UNL1       -0.1920
     16 C           6.2934    0.2309    0.4560 C.ar    1  UNL1        0.2663
     17 N           7.3932    0.0780   -0.3101 N.ar    1  UNL1       -0.1695
     18 O           7.2783   -0.6108   -1.4913 O.co2   1  UNL1       -0.6195
     19 C           8.5469    0.6068    0.1186 C.ar    1  UNL1        0.1833
     20 C           8.7456    1.3087    1.2853 C.ar    1  UNL1        0.0034
     21 C           7.6099    1.4655    2.0745 C.ar    1  UNL1       -0.0500
     22 C           6.4223    0.9251    1.6401 C.ar    1  UNL1        0.0129
     23 C           1.9402   -1.7271   -1.2308 C.ar    1  UNL1        0.0289
     24 C           1.0424   -1.8881   -2.2899 C.ar    1  UNL1       -0.0296
     25 C          -0.0361   -1.0289   -2.2794 C.ar    1  UNL1        0.1095
     26 CL         -1.1457   -1.2675   -3.6364 Cl      1  UNL1       -0.0770
     27 C          -5.7957    0.2356    0.3902 C.ar    1  UNL1       -0.0261
     28 C          -6.1121    1.5819    0.2543 C.ar    1  UNL1       -0.0567
     29 C          -6.8166    2.2537    1.2538 C.ar    1  UNL1       -0.0601
     30 C          -7.1543    1.4833    2.3447 C.ar    1  UNL1       -0.0434
     31 C          -6.8695    0.1530    2.5337 C.ar    1  UNL1        0.0413
     32 CL         -7.3285   -0.7607    3.9435 Cl      1  UNL1       -0.0835
     33 C          -6.1662   -0.4855    1.5176 C.ar    1  UNL1       -0.0384
     34 H          -4.6267   -1.3220   -0.3947 H       1  UNL1        0.0545
     35 H          -6.9328   -1.1448   -1.3805 H       1  UNL1        0.0251
     36 H          -5.6420   -1.3578   -2.6086 H       1  UNL1        0.0251
     37 H          -6.3880    0.2318   -2.3744 H       1  UNL1        0.0251
     38 H          -4.0742    1.4669   -1.5110 H       1  UNL1        0.1493
     39 H          -1.3512    1.6822   -0.9190 H       1  UNL1        0.0468
     40 H          -1.5209    1.0250   -2.5630 H       1  UNL1        0.0468
     41 H           2.2168   -1.3650    1.4395 H       1  UNL1        0.1518
     42 H           3.7987    1.1262    1.2807 H       1  UNL1        0.0528
     43 H           4.2695   -0.4514    2.1191 H       1  UNL1        0.0528
     44 H           9.4168    0.4578   -0.5384 H       1  UNL1        0.1389
     45 H           9.7079    1.7072    1.5677 H       1  UNL1        0.0677
     46 H           7.7107    2.0132    3.0090 H       1  UNL1        0.0621
     47 H           5.5965    1.0954    2.3148 H       1  UNL1        0.0682
     48 H           2.8100   -2.3643   -1.1711 H       1  UNL1        0.0699
     49 H           1.2251   -2.6424   -3.0333 H       1  UNL1        0.0637
     50 H          -5.8147    2.1473   -0.6425 H       1  UNL1        0.0621
     51 H          -7.0728    3.2875    1.1755 H       1  UNL1        0.0618
     52 H          -7.7091    1.9901    3.1459 H       1  UNL1        0.0632
     53 H          -5.9085   -1.5299    1.5986 H       1  UNL1        0.0635
@<TRIPOS>UNITY_ATOM_ATTR
8 1
charge 1
9 1
charge -1
17 1
charge 1
18 1
charge -1
@<TRIPOS>BOND
     1     1     2    1
     2     1     3    1
     3     3     4   am
     4     4     5    2
     5     4     6    1
     6     6     7    1
     7     7     8   ar
     8     8     9    1
     9     8    10   ar
    10    10    11    1
    11    11    12    1
    12    12    13    1
    13    13    14    1
    14    13    15    1
    15    13    16    1
    16    16    17   ar
    17    17    18    1
    18    17    19   ar
    19    19    20   ar
    20    20    21   ar
    21    21    22   ar
    22    10    23   ar
    23    23    24   ar
    24    24    25   ar
    25    25    26    1
    26     1    27    1
    27    27    28   ar
    28    28    29   ar
    29    29    30   ar
    30    30    31   ar
    31    31    32    1
    32    31    33   ar
    33    25     7   ar
    34    33    27   ar
    35    22    16   ar
    36     1    34    1
    37     2    35    1
    38     2    36    1
    39     2    37    1
    40     3    38    1
    41     6    39    1
    42     6    40    1
    43    11    41    1
    44    12    42    1
    45    12    43    1
    46    19    44    1
    47    20    45    1
    48    21    46    1
    49    22    47    1
    50    23    48    1
    51    24    49    1
    52    28    50    1
    53    29    51    1
    54    30    52    1
    55    33    53    1
