
     RDKit          3D

 53 55  0  0  0  0  0  0  0  0999 V2000
   -5.0470   -0.3610   -0.7343 C   0  0  1  0  0  0  0  0  0  0  0  0
   -6.0354   -0.6708   -1.8355 C   0  0  0  0  0  0  0  0  0  0  0  0
   -3.9819    0.4919   -1.1534 N   0  0  0  0  0  0  0  0  0  0  0  0
   -2.6709   -0.0439   -1.0737 C   0  0  0  0  0  0  0  0  0  0  0  0
   -2.2005   -1.1510   -0.7025 O   0  0  0  0  0  0  0  0  0  0  0  0
   -1.4433    0.7323   -1.4769 C   0  0  0  0  0  0  0  0  0  0  0  0
   -0.2272   -0.0704   -1.2949 C   0  0  0  0  0  0  0  0  0  0  0  0
    0.6735    0.0337   -0.3025 N   0  0  0  0  0  4  0  0  0  0  0  0
    0.4354    0.9962    0.6405 O   0  0  0  0  0  1  0  0  0  0  0  0
    1.7537   -0.7630   -0.2351 C   0  0  0  0  0  0  0  0  0  0  0  0
    2.7004   -0.6575    0.8112 N   0  0  0  0  0  0  0  0  0  0  0  0
    3.9212    0.0384    1.1636 C   0  0  0  0  0  0  0  0  0  0  0  0
    4.9621   -0.2938    0.1166 C   0  0  0  0  0  0  0  0  0  0  0  0
    4.5094    0.1247   -1.1143 F   0  0  0  0  0  0  0  0  0  0  0  0
    5.0919   -1.6875    0.1026 F   0  0  0  0  0  0  0  0  0  0  0  0
    6.2934    0.2309    0.4560 C   0  0  0  0  0  0  0  0  0  0  0  0
    7.3932    0.0780   -0.3101 N   0  0  0  0  0  4  0  0  0  0  0  0
    7.2783   -0.6108   -1.4913 O   0  0  0  0  0  1  0  0  0  0  0  0
    8.5469    0.6068    0.1186 C   0  0  0  0  0  0  0  0  0  0  0  0
    8.7456    1.3087    1.2853 C   0  0  0  0  0  0  0  0  0  0  0  0
    7.6099    1.4655    2.0745 C   0  0  0  0  0  0  0  0  0  0  0  0
    6.4223    0.9251    1.6401 C   0  0  0  0  0  0  0  0  0  0  0  0
    1.9402   -1.7271   -1.2308 C   0  0  0  0  0  0  0  0  0  0  0  0
    1.0424   -1.8881   -2.2899 C   0  0  0  0  0  0  0  0  0  0  0  0
   -0.0361   -1.0289   -2.2794 C   0  0  0  0  0  0  0  0  0  0  0  0
   -1.1457   -1.2675   -3.6364 Cl  0  0  0  0  0  0  0  0  0  0  0  0
   -5.7957    0.2356    0.3902 C   0  0  0  0  0  0  0  0  0  0  0  0
   -6.1121    1.5819    0.2543 C   0  0  0  0  0  0  0  0  0  0  0  0
   -6.8166    2.2537    1.2538 C   0  0  0  0  0  0  0  0  0  0  0  0
   -7.1543    1.4833    2.3447 C   0  0  0  0  0  0  0  0  0  0  0  0
   -6.8695    0.1530    2.5337 C   0  0  0  0  0  0  0  0  0  0  0  0
   -7.3285   -0.7607    3.9435 Cl  0  0  0  0  0  0  0  0  0  0  0  0
   -6.1662   -0.4855    1.5176 C   0  0  0  0  0  0  0  0  0  0  0  0
   -4.6267   -1.3220   -0.3947 H   0  0  0  0  0  0  0  0  0  0  0  0
   -6.9328   -1.1448   -1.3805 H   0  0  0  0  0  0  0  0  0  0  0  0
   -5.6420   -1.3578   -2.6086 H   0  0  0  0  0  0  0  0  0  0  0  0
   -6.3880    0.2318   -2.3744 H   0  0  0  0  0  0  0  0  0  0  0  0
   -4.0742    1.4669   -1.5110 H   0  0  0  0  0  0  0  0  0  0  0  0
   -1.3512    1.6822   -0.9190 H   0  0  0  0  0  0  0  0  0  0  0  0
   -1.5209    1.0250   -2.5630 H   0  0  0  0  0  0  0  0  0  0  0  0
    2.2168   -1.3650    1.4395 H   0  0  0  0  0  0  0  0  0  0  0  0
    3.7987    1.1262    1.2807 H   0  0  0  0  0  0  0  0  0  0  0  0
    4.2695   -0.4514    2.1191 H   0  0  0  0  0  0  0  0  0  0  0  0
    9.4168    0.4578   -0.5384 H   0  0  0  0  0  0  0  0  0  0  0  0
    9.7079    1.7072    1.5677 H   0  0  0  0  0  0  0  0  0  0  0  0
    7.7107    2.0132    3.0090 H   0  0  0  0  0  0  0  0  0  0  0  0
    5.5965    1.0954    2.3148 H   0  0  0  0  0  0  0  0  0  0  0  0
    2.8100   -2.3643   -1.1711 H   0  0  0  0  0  0  0  0  0  0  0  0
    1.2251   -2.6424   -3.0333 H   0  0  0  0  0  0  0  0  0  0  0  0
   -5.8147    2.1473   -0.6425 H   0  0  0  0  0  0  0  0  0  0  0  0
   -7.0728    3.2875    1.1755 H   0  0  0  0  0  0  0  0  0  0  0  0
   -7.7091    1.9901    3.1459 H   0  0  0  0  0  0  0  0  0  0  0  0
   -5.9085   -1.5299    1.5986 H   0  0  0  0  0  0  0  0  0  0  0  0
  1  2  1  0
  1  3  1  0
  3  4  1  0
  4  5  2  0
  4  6  1  0
  6  7  1  0
  7  8  2  0
  8  9  1  0
  8 10  1  0
 10 11  1  0
 11 12  1  0
 12 13  1  0
 13 14  1  0
 13 15  1  0
 13 16  1  0
 16 17  2  0
 17 18  1  0
 17 19  1  0
 19 20  2  0
 20 21  1  0
 21 22  2  0
 10 23  2  0
 23 24  1  0
 24 25  2  0
 25 26  1  0
  1 27  1  0
 27 28  2  0
 28 29  1  0
 29 30  2  0
 30 31  1  0
 31 32  1  0
 31 33  2  0
 25  7  1  0
 33 27  1  0
 22 16  1  0
  1 34  1  1
  2 35  1  0
  2 36  1  0
  2 37  1  0
  3 38  1  0
  6 39  1  0
  6 40  1  0
 11 41  1  0
 12 42  1  0
 12 43  1  0
 19 44  1  0
 20 45  1  0
 21 46  1  0
 22 47  1  0
 23 48  1  0
 24 49  1  0
 28 50  1  0
 29 51  1  0
 30 52  1  0
 33 53  1  0
M  CHG  4   8   1   9  -1  17   1  18  -1
M  END
$$$$
