@<TRIPOS>MOLECULE
*****
 114 118 0 0 0
SMALL
GASTEIGER

@<TRIPOS>ATOM
      1 C           4.8585    2.9197   -0.2790 C.3     1  UNL1        0.1097
      2 N           5.6645    3.9833    0.3615 N.2     1  UNL1       -0.2084
      3 C           6.8423    3.4954    0.5825 C.2     1  UNL1        0.3845
      4 O           7.9043    4.1960    1.1808 O.2     1  UNL1       -0.4658
      5 O           6.9053    2.1641    0.1382 O.2     1  UNL1       -0.4377
      6 C           5.5225    1.6894    0.0860 C.3     1  UNL1        0.1717
      7 C           5.3281    1.1216    1.4652 C.3     1  UNL1       -0.0191
      8 C           5.5420    0.5915   -0.9432 C.3     1  UNL1        0.1441
      9 C           6.9402    0.2352   -1.4210 C.3     1  UNL1       -0.0146
     10 C           7.6379    1.4009   -2.0617 C.3     1  UNL1       -0.0618
     11 O           4.8538   -0.5632   -0.5148 O.3     1  UNL1       -0.4568
     12 C           3.7809   -1.0983   -1.1725 C.2     1  UNL1        0.3176
     13 O           3.3615   -0.5586   -2.2252 O.2     1  UNL1       -0.2501
     14 C           2.7203   -2.1397   -1.2760 C.3     1  UNL1        0.1120
     15 C           1.7869   -1.8447   -2.4044 C.3     1  UNL1       -0.0454
     16 C           2.1626   -2.5822   -0.0082 C.2     1  UNL1        0.1521
     17 O           1.9207   -3.6371    0.5578 O.2     1  UNL1       -0.2962
     18 C           1.7221   -1.5650    1.0080 C.3     1  UNL1        0.0445
     19 C           1.6331   -2.4186    2.3068 C.3     1  UNL1       -0.0532
     20 C           0.3667   -1.0022    0.7153 C.3     1  UNL1        0.0996
     21 O          -0.6213   -1.8963    0.9498 O.3     1  UNL1       -0.3420
     22 C          -1.3515   -2.3833   -0.1183 C.3     1  UNL1        0.1871
     23 O          -2.6324   -1.8131    0.0369 O.3     1  UNL1       -0.3457
     24 C          -3.5837   -2.4141   -0.7608 C.3     1  UNL1        0.0605
     25 C          -4.8287   -1.5849   -0.7382 C.3     1  UNL1       -0.0385
     26 C          -3.8883   -3.7452   -0.0603 C.3     1  UNL1       -0.0085
     27 C          -2.6530   -4.5677   -0.1568 C.3     1  UNL1        0.0429
     28 N          -2.7260   -5.5355    0.9549 N.3     1  UNL1       -0.3027
     29 C          -3.9213   -6.3472    0.8208 C.3     1  UNL1       -0.0127
     30 C          -1.5673   -6.4004    0.9576 C.3     1  UNL1       -0.0127
     31 C          -1.3543   -3.8642   -0.0598 C.3     1  UNL1        0.1214
     32 O          -0.5653   -4.3377   -1.1401 O.3     1  UNL1       -0.3852
     33 C           0.1051    0.3740    1.3572 C.3     1  UNL1        0.0945
     34 C          -0.2399    0.0300    2.8216 C.3     1  UNL1       -0.0333
     35 C           1.3727    1.1052    1.2544 C.3     1  UNL1       -0.0122
     36 C           1.4806    2.5452    1.6266 C.3     1  UNL1        0.0177
     37 C           1.1698    2.9118    3.0272 C.3     1  UNL1       -0.0556
     38 C           2.8819    3.0438    1.2812 C.2     1  UNL1        0.1412
     39 O           3.6250    3.3303    2.2072 O.2     1  UNL1       -0.2968
     40 C           3.4434    3.2151   -0.0914 C.3     1  UNL1        0.0413
     41 C           2.5039    2.9083   -1.2124 C.3     1  UNL1       -0.0536
     42 O          -1.0174    0.8844    0.8171 O.3     1  UNL1       -0.3670
     43 C          -1.1346    1.1565   -0.4956 C.3     1  UNL1        0.0670
     44 C          -2.5382    1.7120   -0.6849 C.2     1  UNL1       -0.0581
     45 C          -3.3414    1.8292    0.3592 C.2     1  UNL1       -0.0549
     46 C          -4.6822    2.3400    0.2898 C.ar    1  UNL1       -0.0065
     47 C          -5.2738    2.7643   -0.8811 C.ar    1  UNL1       -0.0440
     48 C          -6.5637    3.2517   -0.9287 C.ar    1  UNL1        0.0009
     49 C          -7.1922    3.6849   -2.0748 C.ar    1  UNL1       -0.0525
     50 C          -8.4982    4.1629   -2.0373 C.ar    1  UNL1       -0.0611
     51 C          -9.2080    4.2196   -0.8532 C.ar    1  UNL1       -0.0597
     52 C          -8.6249    3.7982    0.3212 C.ar    1  UNL1       -0.0357
     53 C          -7.3233    3.3297    0.2387 C.ar    1  UNL1        0.0710
     54 N          -6.7320    2.9124    1.3698 N.ar    1  UNL1       -0.2544
     55 C          -5.4803    2.4409    1.4084 C.ar    1  UNL1        0.0354
     56 H           5.0630    3.1066   -1.3823 H       1  UNL1        0.0594
     57 H           7.7325    5.1687    1.4655 H       1  UNL1        0.2969
     58 H           5.9809    0.1876    1.4701 H       1  UNL1        0.0270
     59 H           5.8248    1.7369    2.2414 H       1  UNL1        0.0270
     60 H           4.3369    0.7510    1.6941 H       1  UNL1        0.0270
     61 H           5.0242    0.9593   -1.8419 H       1  UNL1        0.0775
     62 H           6.8897   -0.5781   -2.1488 H       1  UNL1        0.0299
     63 H           7.5689   -0.0566   -0.5278 H       1  UNL1        0.0299
     64 H           8.1344    1.0566   -3.0273 H       1  UNL1        0.0231
     65 H           6.9967    2.2242   -2.3795 H       1  UNL1        0.0231
     66 H           8.5221    1.7577   -1.4562 H       1  UNL1        0.0231
     67 H           3.3229   -3.0504   -1.6616 H       1  UNL1        0.0489
     68 H           0.9077   -2.4784   -2.4336 H       1  UNL1        0.0242
     69 H           1.5013   -0.7718   -2.4550 H       1  UNL1        0.0242
     70 H           2.3210   -2.0302   -3.3961 H       1  UNL1        0.0242
     71 H           2.5434   -0.8842    1.1474 H       1  UNL1        0.0401
     72 H           2.4838   -3.1418    2.3266 H       1  UNL1        0.0237
     73 H           0.7147   -2.9916    2.3614 H       1  UNL1        0.0237
     74 H           1.7496   -1.8064    3.2056 H       1  UNL1        0.0237
     75 H           0.3522   -0.8492   -0.4224 H       1  UNL1        0.0633
     76 H          -0.9662   -1.9891   -1.0883 H       1  UNL1        0.0937
     77 H          -3.2396   -2.6755   -1.7693 H       1  UNL1        0.0595
     78 H          -5.6264   -2.1940   -1.2304 H       1  UNL1        0.0255
     79 H          -5.1399   -1.4446    0.3103 H       1  UNL1        0.0255
     80 H          -4.7357   -0.6514   -1.3061 H       1  UNL1        0.0255
     81 H          -4.1781   -3.5254    1.0006 H       1  UNL1        0.0306
     82 H          -4.7202   -4.2116   -0.6108 H       1  UNL1        0.0306
     83 H          -2.7462   -5.1892   -1.0772 H       1  UNL1        0.0490
     84 H          -3.6836   -7.3805    1.1280 H       1  UNL1        0.0391
     85 H          -4.2623   -6.3990   -0.2427 H       1  UNL1        0.0391
     86 H          -4.7359   -5.9826    1.4825 H       1  UNL1        0.0391
     87 H          -1.9184   -7.4002    1.3317 H       1  UNL1        0.0391
     88 H          -1.1784   -6.5925   -0.0631 H       1  UNL1        0.0391
     89 H          -0.8099   -6.0782    1.6818 H       1  UNL1        0.0391
     90 H          -0.7681   -4.2268    0.8422 H       1  UNL1        0.0660
     91 H          -1.0622   -4.0563   -1.9550 H       1  UNL1        0.2101
     92 H           0.6158    0.2680    3.4444 H       1  UNL1        0.0258
     93 H          -1.1752    0.5765    3.1431 H       1  UNL1        0.0258
     94 H          -0.4990   -1.0324    2.9542 H       1  UNL1        0.0258
     95 H           1.8821    0.8450    0.3214 H       1  UNL1        0.0300
     96 H           2.0169    0.6190    2.0970 H       1  UNL1        0.0300
     97 H           0.8161    3.1326    0.9628 H       1  UNL1        0.0376
     98 H           0.1188    2.9407    3.2885 H       1  UNL1        0.0236
     99 H           1.5122    3.9863    3.1360 H       1  UNL1        0.0236
    100 H           1.8249    2.3897    3.7786 H       1  UNL1        0.0236
    101 H           3.4312    4.3891   -0.1648 H       1  UNL1        0.0397
    102 H           1.5023    3.3080   -0.9431 H       1  UNL1        0.0237
    103 H           2.5302    1.9186   -1.6393 H       1  UNL1        0.0237
    104 H           2.8071    3.5840   -2.0811 H       1  UNL1        0.0237
    105 H          -0.4963    2.0268   -0.8374 H       1  UNL1        0.0604
    106 H          -0.9668    0.3800   -1.2318 H       1  UNL1        0.0604
    107 H          -2.8518    2.0007   -1.6742 H       1  UNL1        0.0595
    108 H          -2.9616    1.5172    1.3405 H       1  UNL1        0.0622
    109 H          -4.7494    2.7308   -1.8036 H       1  UNL1        0.0630
    110 H          -6.6502    3.6459   -3.0040 H       1  UNL1        0.0624
    111 H          -9.0080    4.5082   -2.9322 H       1  UNL1        0.0618
    112 H         -10.2239    4.5782   -0.7487 H       1  UNL1        0.0618
    113 H          -9.1138    3.8086    1.3004 H       1  UNL1        0.0639
    114 H          -5.0547    2.1175    2.3559 H       1  UNL1        0.0836
@<TRIPOS>BOND
     1     1     2    1
     2     2     3    2
     3     3     4    1
     4     3     5    1
     5     5     6    1
     6     6     7    1
     7     6     8    1
     8     8     9    1
     9     9    10    1
    10     8    11    1
    11    11    12    1
    12    12    13    2
    13    12    14    1
    14    14    15    1
    15    14    16    1
    16    16    17    2
    17    16    18    1
    18    18    19    1
    19    18    20    1
    20    20    21    1
    21    21    22    1
    22    22    23    1
    23    23    24    1
    24    24    25    1
    25    24    26    1
    26    26    27    1
    27    27    28    1
    28    28    29    1
    29    28    30    1
    30    27    31    1
    31    31    32    1
    32    20    33    1
    33    33    34    1
    34    33    35    1
    35    35    36    1
    36    36    37    1
    37    36    38    1
    38    38    39    2
    39    38    40    1
    40    40    41    1
    41    33    42    1
    42    42    43    1
    43    43    44    1
    44    44    45    2
    45    45    46    1
    46    46    47   ar
    47    47    48   ar
    48    48    49   ar
    49    49    50   ar
    50    50    51   ar
    51    51    52   ar
    52    52    53   ar
    53    53    54   ar
    54    54    55   ar
    55     6     1    1
    56    31    22    1
    57    55    46   ar
    58    40     1    1
    59    53    48   ar
    60     1    56    1
    61     4    57    1
    62     7    58    1
    63     7    59    1
    64     7    60    1
    65     8    61    1
    66     9    62    1
    67     9    63    1
    68    10    64    1
    69    10    65    1
    70    10    66    1
    71    14    67    1
    72    15    68    1
    73    15    69    1
    74    15    70    1
    75    18    71    1
    76    19    72    1
    77    19    73    1
    78    19    74    1
    79    20    75    1
    80    22    76    1
    81    24    77    1
    82    25    78    1
    83    25    79    1
    84    25    80    1
    85    26    81    1
    86    26    82    1
    87    27    83    1
    88    29    84    1
    89    29    85    1
    90    29    86    1
    91    30    87    1
    92    30    88    1
    93    30    89    1
    94    31    90    1
    95    32    91    1
    96    34    92    1
    97    34    93    1
    98    34    94    1
    99    35    95    1
   100    35    96    1
   101    36    97    1
   102    37    98    1
   103    37    99    1
   104    37   100    1
   105    40   101    1
   106    41   102    1
   107    41   103    1
   108    41   104    1
   109    43   105    1
   110    43   106    1
   111    44   107    1
   112    45   108    1
   113    47   109    1
   114    49   110    1
   115    50   111    1
   116    51   112    1
   117    52   113    1
   118    55   114    1
