@<TRIPOS>MOLECULE
*****
 49 52 0 0 0
SMALL
GASTEIGER

@<TRIPOS>ATOM
      1 O          -0.6254   -1.6231   -0.1087 O.2     1  UNL1       -0.2748
      2 C          -0.9514   -0.7546    0.7100 C.2     1  UNL1        0.2271
      3 C           0.0613   -0.1723    1.6046 C.3     1  UNL1        0.0826
      4 C           1.4161   -0.7340    1.3968 C.ar    1  UNL1        0.1206
      5 N           2.2366   -0.1428    0.5107 N.ar    1  UNL1       -0.2186
      6 C           3.4705   -0.6191    0.2924 C.ar    1  UNL1        0.1285
      7 N           4.3264    0.0154   -0.6468 N.pl3   1  UNL1       -0.3106
      8 C           3.9147    1.1722   -1.4130 C.3     1  UNL1        0.0370
      9 C           4.9151    2.2764   -1.3297 C.3     1  UNL1        0.0634
     10 O           6.1536    1.8110   -0.9388 O.3     1  UNL1       -0.3767
     11 C           6.4672    0.5942   -1.5649 C.3     1  UNL1        0.0634
     12 C           5.6714   -0.4927   -0.8683 C.3     1  UNL1        0.0370
     13 C           3.8709   -1.7294    1.0015 C.ar    1  UNL1        0.0427
     14 C           3.0105   -2.3398    1.9230 C.ar    1  UNL1        0.2533
     15 O           3.4002   -3.3683    2.5707 O.2     1  UNL1       -0.2677
     16 N           1.7849   -1.8117    2.0950 N.ar    1  UNL1       -0.3104
     17 N          -2.2817   -0.3084    0.8042 N.am    1  UNL1       -0.2704
     18 C          -2.8494    0.6888    1.6909 C.3     1  UNL1        0.0240
     19 C          -3.8653    1.3481    0.7852 C.3     1  UNL1       -0.0062
     20 C          -4.3684    0.2130   -0.0094 C.ar    1  UNL1        0.0174
     21 C          -5.5741    0.0513   -0.6989 C.ar    1  UNL1        0.1350
     22 O          -6.5422    1.0516   -0.7114 O.3     1  UNL1       -0.4054
     23 C          -6.4545    2.0045   -1.7570 C.3     1  UNL1        0.5753
     24 F          -5.2575    2.6937   -1.7392 F       1  UNL1       -0.1328
     25 F          -6.6235    1.3842   -2.9976 F       1  UNL1       -0.1328
     26 F          -7.4556    2.9673   -1.6026 F       1  UNL1       -0.1328
     27 C          -5.7650   -1.1399   -1.3662 C.ar    1  UNL1       -0.0192
     28 C          -4.8190   -2.1341   -1.3619 C.ar    1  UNL1       -0.0565
     29 C          -3.6441   -1.9371   -0.6709 C.ar    1  UNL1       -0.0398
     30 C          -3.3991   -0.7605    0.0169 C.ar    1  UNL1        0.0430
     31 H           0.0574    0.9290    1.4615 H       1  UNL1        0.0438
     32 H          -0.1862   -0.3369    2.6848 H       1  UNL1        0.0438
     33 H           3.7429    0.8945   -2.4739 H       1  UNL1        0.0487
     34 H           2.9141    1.5271   -1.0422 H       1  UNL1        0.0487
     35 H           5.0616    2.8055   -2.3004 H       1  UNL1        0.0575
     36 H           4.6097    3.0677   -0.6038 H       1  UNL1        0.0575
     37 H           6.2368    0.6264   -2.6418 H       1  UNL1        0.0575
     38 H           7.5289    0.4060   -1.3531 H       1  UNL1        0.0575
     39 H           6.1706   -0.7697    0.0977 H       1  UNL1        0.0487
     40 H           5.6405   -1.3867   -1.5044 H       1  UNL1        0.0487
     41 H           4.8545   -2.1291    0.8430 H       1  UNL1        0.0706
     42 H           1.1706   -2.2919    2.7891 H       1  UNL1        0.1700
     43 H          -3.3186    0.2454    2.5866 H       1  UNL1        0.0472
     44 H          -2.0825    1.4237    2.0155 H       1  UNL1        0.0472
     45 H          -4.6721    1.7407    1.4690 H       1  UNL1        0.0330
     46 H          -3.4301    2.1504    0.1726 H       1  UNL1        0.0330
     47 H          -6.6987   -1.3173   -1.9252 H       1  UNL1        0.0654
     48 H          -4.9374   -3.0780   -1.8740 H       1  UNL1        0.0619
     49 H          -2.8855   -2.7105   -0.6570 H       1  UNL1        0.0636
@<TRIPOS>BOND
     1     1     2    2
     2     2     3    1
     3     3     4    1
     4     4     5   ar
     5     5     6   ar
     6     6     7    1
     7     7     8    1
     8     8     9    1
     9     9    10    1
    10    10    11    1
    11    11    12    1
    12     6    13   ar
    13    13    14   ar
    14    14    15    2
    15    14    16   ar
    16     2    17   am
    17    17    18    1
    18    18    19    1
    19    19    20    1
    20    20    21   ar
    21    21    22    1
    22    22    23    1
    23    23    24    1
    24    23    25    1
    25    23    26    1
    26    21    27   ar
    27    27    28   ar
    28    28    29   ar
    29    29    30   ar
    30    16     4   ar
    31    30    17    1
    32    12     7    1
    33    30    20   ar
    34     3    31    1
    35     3    32    1
    36     8    33    1
    37     8    34    1
    38     9    35    1
    39     9    36    1
    40    11    37    1
    41    11    38    1
    42    12    39    1
    43    12    40    1
    44    13    41    1
    45    16    42    1
    46    18    43    1
    47    18    44    1
    48    19    45    1
    49    19    46    1
    50    27    47    1
    51    28    48    1
    52    29    49    1
