@<TRIPOS>MOLECULE
*****
 45 46 0 0 0
SMALL
GASTEIGER

@<TRIPOS>ATOM
      1 C           5.4603    0.7374    1.8590 C.3     1  UNL1       -0.0622
      2 C           5.2887    0.4638    0.3992 C.3     1  UNL1       -0.0215
      3 C           3.9992   -0.1831    0.0188 C.3     1  UNL1        0.0897
      4 O           2.8703    0.5940    0.3732 O.3     1  UNL1       -0.4852
      5 C           1.6274    0.0884    0.0561 C.ar    1  UNL1        0.2038
      6 C           0.9779   -0.7124    0.9580 C.ar    1  UNL1        0.1654
      7 O           1.5709   -1.0002    2.1652 O.3     1  UNL1       -0.4913
      8 C           0.8896   -1.8265    3.0883 C.3     1  UNL1        0.0790
      9 C          -0.2717   -1.2120    0.6192 C.ar    1  UNL1       -0.0126
     10 C          -0.8388   -0.9051   -0.5967 C.ar    1  UNL1       -0.0358
     11 C          -2.1732   -1.4179   -0.9908 C.3     1  UNL1        0.0025
     12 C          -3.2674   -0.4732   -0.7202 C.ar    1  UNL1        0.0146
     13 C          -3.7599    0.2575   -1.8027 C.ar    1  UNL1        0.0379
     14 N          -4.7399    1.1330   -1.6114 N.ar    1  UNL1       -0.2227
     15 C          -5.3175    1.3830   -0.4193 C.ar    1  UNL1        0.2142
     16 N          -6.3619    2.3327   -0.2764 N.pl3   1  UNL1       -0.3274
     17 N          -4.8405    0.6764    0.6237 N.ar    1  UNL1       -0.1999
     18 C          -3.8465   -0.2271    0.4907 C.ar    1  UNL1        0.1247
     19 N          -3.3666   -0.9708    1.6177 N.pl3   1  UNL1       -0.3428
     20 C          -0.1478   -0.0815   -1.4992 C.ar    1  UNL1       -0.0126
     21 C           1.0892    0.4143   -1.1668 C.ar    1  UNL1        0.1654
     22 O           1.7768    1.2219   -2.0407 O.3     1  UNL1       -0.4913
     23 C           1.1759    1.5245   -3.2833 C.3     1  UNL1        0.0790
     24 H           4.6418    0.3471    2.4678 H       1  UNL1        0.0231
     25 H           6.4606    0.3431    2.1793 H       1  UNL1        0.0231
     26 H           5.5153    1.8422    2.0771 H       1  UNL1        0.0231
     27 H           6.1015   -0.2143   -0.0000 H       1  UNL1        0.0295
     28 H           5.4650    1.4195   -0.1594 H       1  UNL1        0.0295
     29 H           3.9881   -0.2337   -1.1042 H       1  UNL1        0.0696
     30 H           3.8786   -1.2027    0.3855 H       1  UNL1        0.0696
     31 H           0.8802   -2.8849    2.8192 H       1  UNL1        0.0660
     32 H           1.4483   -1.7532    4.0662 H       1  UNL1        0.0660
     33 H          -0.1640   -1.5085    3.2485 H       1  UNL1        0.0660
     34 H          -0.7664   -1.8446    1.3349 H       1  UNL1        0.0658
     35 H          -2.3236   -2.4015   -0.4901 H       1  UNL1        0.0363
     36 H          -2.1740   -1.6701   -2.0848 H       1  UNL1        0.0363
     37 H          -3.3503    0.1174   -2.8015 H       1  UNL1        0.0834
     38 H          -7.0760    2.2538    0.4696 H       1  UNL1        0.1452
     39 H          -6.4153    3.1287   -0.9343 H       1  UNL1        0.1452
     40 H          -2.9306   -0.4939    2.4250 H       1  UNL1        0.1437
     41 H          -3.4475   -2.0091    1.6469 H       1  UNL1        0.1437
     42 H          -0.6071    0.1586   -2.4669 H       1  UNL1        0.0658
     43 H           0.8866    0.5821   -3.7928 H       1  UNL1        0.0660
     44 H           1.9102    2.0244   -3.9771 H       1  UNL1        0.0660
     45 H           0.2840    2.1824   -3.1706 H       1  UNL1        0.0660
@<TRIPOS>BOND
     1     1     2    1
     2     2     3    1
     3     3     4    1
     4     4     5    1
     5     5     6   ar
     6     6     7    1
     7     7     8    1
     8     6     9   ar
     9     9    10   ar
    10    10    11    1
    11    11    12    1
    12    12    13   ar
    13    13    14   ar
    14    14    15   ar
    15    15    16    1
    16    15    17   ar
    17    17    18   ar
    18    18    19    1
    19    10    20   ar
    20    20    21   ar
    21    21    22    1
    22    22    23    1
    23    21     5   ar
    24    18    12   ar
    25     1    24    1
    26     1    25    1
    27     1    26    1
    28     2    27    1
    29     2    28    1
    30     3    29    1
    31     3    30    1
    32     8    31    1
    33     8    32    1
    34     8    33    1
    35     9    34    1
    36    11    35    1
    37    11    36    1
    38    13    37    1
    39    16    38    1
    40    16    39    1
    41    19    40    1
    42    19    41    1
    43    20    42    1
    44    23    43    1
    45    23    44    1
    46    23    45    1
