
     RDKit          3D

 45 46  0  0  0  0  0  0  0  0999 V2000
    5.4603    0.7374    1.8590 C   0  0  0  0  0  0  0  0  0  0  0  0
    5.2887    0.4638    0.3992 C   0  0  0  0  0  0  0  0  0  0  0  0
    3.9992   -0.1831    0.0188 C   0  0  0  0  0  0  0  0  0  0  0  0
    2.8703    0.5940    0.3732 O   0  0  0  0  0  0  0  0  0  0  0  0
    1.6274    0.0884    0.0561 C   0  0  0  0  0  0  0  0  0  0  0  0
    0.9779   -0.7124    0.9580 C   0  0  0  0  0  0  0  0  0  0  0  0
    1.5709   -1.0002    2.1652 O   0  0  0  0  0  0  0  0  0  0  0  0
    0.8896   -1.8265    3.0883 C   0  0  0  0  0  0  0  0  0  0  0  0
   -0.2717   -1.2120    0.6192 C   0  0  0  0  0  0  0  0  0  0  0  0
   -0.8388   -0.9051   -0.5967 C   0  0  0  0  0  0  0  0  0  0  0  0
   -2.1732   -1.4179   -0.9908 C   0  0  0  0  0  0  0  0  0  0  0  0
   -3.2674   -0.4732   -0.7202 C   0  0  0  0  0  0  0  0  0  0  0  0
   -3.7599    0.2575   -1.8027 C   0  0  0  0  0  0  0  0  0  0  0  0
   -4.7399    1.1330   -1.6114 N   0  0  0  0  0  0  0  0  0  0  0  0
   -5.3175    1.3830   -0.4193 C   0  0  0  0  0  0  0  0  0  0  0  0
   -6.3619    2.3327   -0.2764 N   0  0  0  0  0  0  0  0  0  0  0  0
   -4.8405    0.6764    0.6237 N   0  0  0  0  0  0  0  0  0  0  0  0
   -3.8465   -0.2271    0.4907 C   0  0  0  0  0  0  0  0  0  0  0  0
   -3.3666   -0.9708    1.6177 N   0  0  0  0  0  0  0  0  0  0  0  0
   -0.1478   -0.0815   -1.4992 C   0  0  0  0  0  0  0  0  0  0  0  0
    1.0892    0.4143   -1.1668 C   0  0  0  0  0  0  0  0  0  0  0  0
    1.7768    1.2219   -2.0407 O   0  0  0  0  0  0  0  0  0  0  0  0
    1.1759    1.5245   -3.2833 C   0  0  0  0  0  0  0  0  0  0  0  0
    4.6418    0.3471    2.4678 H   0  0  0  0  0  0  0  0  0  0  0  0
    6.4606    0.3431    2.1793 H   0  0  0  0  0  0  0  0  0  0  0  0
    5.5153    1.8422    2.0771 H   0  0  0  0  0  0  0  0  0  0  0  0
    6.1015   -0.2143   -0.0000 H   0  0  0  0  0  0  0  0  0  0  0  0
    5.4650    1.4195   -0.1594 H   0  0  0  0  0  0  0  0  0  0  0  0
    3.9881   -0.2337   -1.1042 H   0  0  0  0  0  0  0  0  0  0  0  0
    3.8786   -1.2027    0.3855 H   0  0  0  0  0  0  0  0  0  0  0  0
    0.8802   -2.8849    2.8192 H   0  0  0  0  0  0  0  0  0  0  0  0
    1.4483   -1.7532    4.0662 H   0  0  0  0  0  0  0  0  0  0  0  0
   -0.1640   -1.5085    3.2485 H   0  0  0  0  0  0  0  0  0  0  0  0
   -0.7664   -1.8446    1.3349 H   0  0  0  0  0  0  0  0  0  0  0  0
   -2.3236   -2.4015   -0.4901 H   0  0  0  0  0  0  0  0  0  0  0  0
   -2.1740   -1.6701   -2.0848 H   0  0  0  0  0  0  0  0  0  0  0  0
   -3.3503    0.1174   -2.8015 H   0  0  0  0  0  0  0  0  0  0  0  0
   -7.0760    2.2538    0.4696 H   0  0  0  0  0  0  0  0  0  0  0  0
   -6.4153    3.1287   -0.9343 H   0  0  0  0  0  0  0  0  0  0  0  0
   -2.9306   -0.4939    2.4250 H   0  0  0  0  0  0  0  0  0  0  0  0
   -3.4475   -2.0091    1.6469 H   0  0  0  0  0  0  0  0  0  0  0  0
   -0.6071    0.1586   -2.4669 H   0  0  0  0  0  0  0  0  0  0  0  0
    0.8866    0.5821   -3.7928 H   0  0  0  0  0  0  0  0  0  0  0  0
    1.9102    2.0244   -3.9771 H   0  0  0  0  0  0  0  0  0  0  0  0
    0.2840    2.1824   -3.1706 H   0  0  0  0  0  0  0  0  0  0  0  0
  1  2  1  0
  2  3  1  0
  3  4  1  0
  4  5  1  0
  5  6  2  0
  6  7  1  0
  7  8  1  0
  6  9  1  0
  9 10  2  0
 10 11  1  0
 11 12  1  0
 12 13  2  0
 13 14  1  0
 14 15  2  0
 15 16  1  0
 15 17  1  0
 17 18  2  0
 18 19  1  0
 10 20  1  0
 20 21  2  0
 21 22  1  0
 22 23  1  0
 21  5  1  0
 18 12  1  0
  1 24  1  0
  1 25  1  0
  1 26  1  0
  2 27  1  0
  2 28  1  0
  3 29  1  0
  3 30  1  0
  8 31  1  0
  8 32  1  0
  8 33  1  0
  9 34  1  0
 11 35  1  0
 11 36  1  0
 13 37  1  0
 16 38  1  0
 16 39  1  0
 19 40  1  0
 19 41  1  0
 20 42  1  0
 23 43  1  0
 23 44  1  0
 23 45  1  0
M  END
$$$$
