@<TRIPOS>MOLECULE
*****
 26 25 0 0 0
SMALL
GASTEIGER

@<TRIPOS>ATOM
      1 N           1.4901    1.4089   -0.8544 N.3     1  ARG1       -0.3184
      2 CA          1.9283    0.1627   -0.3307 C.3     1  ARG1        0.1033
      3 CB          0.8933   -0.7706    0.1787 C.3     1  ARG1       -0.0245
      4 CG         -0.0828   -1.1996   -0.8669 C.3     1  ARG1       -0.0203
      5 CD         -0.8551   -0.0629   -1.4686 C.3     1  ARG1        0.0647
      6 NE         -1.5800    0.6272   -0.4231 N.pl3   1  ARG1       -0.2761
      7 CZ         -2.6641   -0.0511    0.2230 C.cat   1  ARG1        0.3762
      8 NH1        -3.4098    0.6396    1.2441 N.pl3   1  ARG1       -0.2893
      9 NH2        -2.9902   -1.2489   -0.0773 N.pl3   1  ARG1       -0.1298
     10 C           2.9430    0.3960    0.7548 C.2     1  ARG1        0.3217
     11 O           3.5814   -0.6138    1.4647 O.3     1  ARG1       -0.4795
     12 OXT         3.3192    1.5527    1.1331 O.2     1  ARG1       -0.2493
     13 H1          1.1356    2.0810   -0.1433 H       1  ARG1        0.1190
     14 H2          2.2220    1.7953   -1.4821 H       1  ARG1        0.1190
     15 HA          2.4952   -0.3331   -1.1811 H       1  ARG1        0.0574
     16 HB1         0.3568   -0.3574    1.0764 H       1  ARG1        0.0286
     17 HB2         1.3584   -1.7257    0.5632 H       1  ARG1        0.0286
     18 HG1         0.5086   -1.7108   -1.6922 H       1  ARG1        0.0296
     19 HG2        -0.7581   -1.9881   -0.4550 H       1  ARG1        0.0296
     20 HD1        -1.6608   -0.5412   -2.1100 H       1  ARG1        0.0655
     21 HD2        -0.2466    0.6079   -2.0732 H       1  ARG1        0.0655
     22 HE         -1.3766    1.5982   -0.0962 H       1  ARG1        0.2579
     23 HH11       -3.8541    1.4639    0.7770 H       1  ARG1        0.2546
     24 HH12       -3.5917    0.5110    2.2628 H       1  ARG1        0.2546
     25 HH2        -3.7643   -1.7304    0.3870 H       1  ARG1        0.3062
     26 H           4.6025   -0.5109    1.5582 H       1  ARG1        0.2951
@<TRIPOS>BOND
     1     1     2    1
     2     2     3    1
     3     3     4    1
     4     4     5    1
     5     5     6    1
     6     6     7    1
     7     7     8    1
     8     7     9    2
     9     2    10    1
    10    10    11    1
    11    10    12    2
    12     1    13    1
    13     1    14    1
    14     2    15    1
    15     3    16    1
    16     3    17    1
    17     4    18    1
    18     4    19    1
    19     5    20    1
    20     5    21    1
    21     6    22    1
    22     8    23    1
    23     8    24    1
    24     9    25    1
    25    11    26    1
