@<TRIPOS>MOLECULE
*****
 44 46 0 0 0
SMALL
GASTEIGER

@<TRIPOS>ATOM
      1 C           8.1015    1.5971   -0.6796 C.3     1  UNL1        0.0365
      2 O           6.9658    1.8606   -1.4309 O.3     1  UNL1       -0.3812
      3 C           5.8982    1.0647   -1.1146 C.3     1  UNL1        0.0668
      4 C           5.4431    1.1851    0.3045 C.3     1  UNL1        0.0649
      5 N           4.3071    0.3010    0.5108 N.ar    1  UNL1       -0.2674
      6 C           3.0052    0.5957    0.3474 C.ar    1  UNL1        0.0468
      7 C           2.2859   -0.5330    0.6503 C.ar    1  UNL1        0.0716
      8 N           0.8778   -0.7335    0.6316 N.am    1  UNL1       -0.2777
      9 C           0.2128   -1.1926   -0.5443 C.2     1  UNL1        0.2672
     10 O           0.9443   -1.4027   -1.5407 O.2     1  UNL1       -0.2682
     11 C          -1.2277   -1.4027   -0.5794 C.ar    1  UNL1        0.1336
     12 C          -1.8492   -1.8619   -1.7744 C.ar    1  UNL1        0.0083
     13 S          -3.5577   -1.9549   -1.3162 S.2     1  UNL1       -0.0718
     14 C          -3.2634   -1.3701    0.4262 C.ar    1  UNL1        0.1461
     15 C          -4.3476   -1.2160    1.3997 C.ar    1  UNL1        0.1895
     16 N          -4.5326   -1.9259    2.5380 N.ar    1  UNL1       -0.1273
     17 N          -5.6148   -1.4881    3.1348 N.ar    1  UNL1       -0.1375
     18 C          -6.1334   -0.5135    2.4110 C.ar    1  UNL1        0.1204
     19 N          -5.3673   -0.3207    1.3246 N.ar    1  UNL1       -0.3092
     20 C          -5.5171    0.6174    0.2486 C.3     1  UNL1        0.0318
     21 C          -6.1937   -0.0024   -0.9550 C.3     1  UNL1       -0.0444
     22 C          -4.2393    1.3298   -0.1101 C.3     1  UNL1       -0.0444
     23 N          -2.0280   -1.2079    0.3988 N.ar    1  UNL1       -0.2313
     24 C           3.1914   -1.5115    0.9994 C.ar    1  UNL1        0.0706
     25 N           4.4207   -0.9552    0.8996 N.ar    1  UNL1       -0.1777
     26 H           8.4332    0.5417   -0.8164 H       1  UNL1        0.0523
     27 H           8.9283    2.2648   -1.0209 H       1  UNL1        0.0523
     28 H           7.8761    1.8466    0.3743 H       1  UNL1        0.0523
     29 H           5.0547    1.2168   -1.8226 H       1  UNL1        0.0578
     30 H           6.2203    0.0080   -1.2627 H       1  UNL1        0.0578
     31 H           5.1524    2.2388    0.5647 H       1  UNL1        0.0531
     32 H           6.2216    0.8864    1.0083 H       1  UNL1        0.0531
     33 H           2.5842    1.5391    0.0363 H       1  UNL1        0.0845
     34 H           0.3319   -0.5452    1.4764 H       1  UNL1        0.1553
     35 H          -1.3867   -2.0868   -2.6995 H       1  UNL1        0.0717
     36 H          -7.0417    0.0729    2.6227 H       1  UNL1        0.1048
     37 H          -6.2209    1.4180    0.6242 H       1  UNL1        0.0523
     38 H          -5.6030    0.1621   -1.8970 H       1  UNL1        0.0249
     39 H          -6.3910   -1.1029   -0.7978 H       1  UNL1        0.0249
     40 H          -7.1912    0.4387   -1.1600 H       1  UNL1        0.0249
     41 H          -3.9300    1.0225   -1.1480 H       1  UNL1        0.0249
     42 H          -4.3890    2.4462   -0.1981 H       1  UNL1        0.0249
     43 H          -3.4386    1.1999    0.6288 H       1  UNL1        0.0249
     44 H           3.0076   -2.5265    1.2980 H       1  UNL1        0.0867
@<TRIPOS>BOND
     1     1     2    1
     2     2     3    1
     3     3     4    1
     4     4     5    1
     5     5     6   ar
     6     6     7   ar
     7     7     8    1
     8     8     9   am
     9     9    10    2
    10     9    11    1
    11    11    12   ar
    12    12    13   ar
    13    13    14   ar
    14    14    15    1
    15    15    16   ar
    16    16    17   ar
    17    17    18   ar
    18    18    19   ar
    19    19    20    1
    20    20    21    1
    21    20    22    1
    22    14    23   ar
    23     7    24   ar
    24    24    25   ar
    25    25     5   ar
    26    23    11   ar
    27    19    15   ar
    28     1    26    1
    29     1    27    1
    30     1    28    1
    31     3    29    1
    32     3    30    1
    33     4    31    1
    34     4    32    1
    35     6    33    1
    36     8    34    1
    37    12    35    1
    38    18    36    1
    39    20    37    1
    40    21    38    1
    41    21    39    1
    42    21    40    1
    43    22    41    1
    44    22    42    1
    45    22    43    1
    46    24    44    1
