@<TRIPOS>MOLECULE
*****
 39 40 0 0 0
SMALL
GASTEIGER

@<TRIPOS>ATOM
      1 O           1.2031   -0.4010    2.2733 O.3     1  UNL1       -0.2929
      2 P           1.0429   -1.1459    0.7688 P.3     1  UNL1        0.5306
      3 O           1.5104   -2.6015    0.8506 O.2     1  UNL1       -0.2154
      4 O          -0.6058   -1.1289    0.3839 O.3     1  UNL1       -0.2769
      5 C          -1.1540    0.0687    0.7896 C.3     1  UNL1        0.0629
      6 C          -2.6345    0.0175    0.4141 C.3     1  UNL1       -0.0170
      7 C          -2.7326   -0.1608   -1.0961 C.3     1  UNL1       -0.0481
      8 C          -4.1804   -0.4569   -1.4286 C.3     1  UNL1       -0.0527
      9 C          -5.1168    0.2833   -0.4973 C.3     1  UNL1       -0.0530
     10 C          -4.4151    1.5975   -0.1370 C.3     1  UNL1       -0.0527
     11 C          -3.3575    1.2534    0.8785 C.3     1  UNL1       -0.0481
     12 O           1.9654   -0.3866   -0.4486 O.3     1  UNL1       -0.4032
     13 C           3.3341   -0.2115   -0.4172 C.ar    1  UNL1        0.1423
     14 C           4.2943   -0.5455    0.4867 C.ar    1  UNL1        0.0563
     15 C           3.7533   -1.2264    1.6552 C.2     1  UNL1        0.1537
     16 O           4.3928   -1.6497    2.6449 O.2     1  UNL1       -0.2956
     17 C           5.6169   -0.2497    0.2729 C.ar    1  UNL1       -0.0480
     18 C           6.0050    0.4000   -0.8765 C.ar    1  UNL1       -0.0609
     19 C           5.0705    0.7596   -1.8231 C.ar    1  UNL1       -0.0583
     20 C           3.7264    0.4481   -1.5846 C.ar    1  UNL1       -0.0187
     21 H           1.1744   -1.0849    2.9957 H       1  UNL1        0.2231
     22 H          -1.0860    0.1778    1.8784 H       1  UNL1        0.0569
     23 H          -0.7264    0.9562    0.2631 H       1  UNL1        0.0569
     24 H          -3.0929   -0.8698    0.8904 H       1  UNL1        0.0323
     25 H          -2.1361   -1.0368   -1.3762 H       1  UNL1        0.0269
     26 H          -2.3290    0.7082   -1.6349 H       1  UNL1        0.0269
     27 H          -4.3862   -0.1625   -2.4785 H       1  UNL1        0.0265
     28 H          -4.3332   -1.5493   -1.3633 H       1  UNL1        0.0265
     29 H          -6.1040    0.4718   -0.9510 H       1  UNL1        0.0265
     30 H          -5.2110   -0.2818    0.4525 H       1  UNL1        0.0265
     31 H          -5.1763    2.2470    0.3401 H       1  UNL1        0.0265
     32 H          -3.9652    2.0547   -1.0598 H       1  UNL1        0.0265
     33 H          -3.8824    1.0563    1.8337 H       1  UNL1        0.0269
     34 H          -2.6676    2.1012    1.0774 H       1  UNL1        0.0269
     35 H           4.3057   -1.5914    2.5088 H       1  UNL1        0.1083
     36 H           6.3095   -0.5437    1.0273 H       1  UNL1        0.0626
     37 H           7.0577    0.6223   -1.0215 H       1  UNL1        0.0618
     38 H           5.4316    1.2674   -2.7060 H       1  UNL1        0.0619
     39 H           3.0991    0.7938   -2.4213 H       1  UNL1        0.0654
@<TRIPOS>BOND
     1     2     1    1
     2     2     3    2
     3     2     4    1
     4     4     5    1
     5     5     6    1
     6     6     7    1
     7     7     8    1
     8     8     9    1
     9     9    10    1
    10    10    11    1
    11     2    12    1
    12    12    13    1
    13    13    14   ar
    14    14    15    1
    15    15    16    2
    16    14    17   ar
    17    17    18   ar
    18    18    19   ar
    19    19    20   ar
    20    11     6    1
    21    20    13   ar
    22     1    21    1
    23     5    22    1
    24     5    23    1
    25     6    24    1
    26     7    25    1
    27     7    26    1
    28     8    27    1
    29     8    28    1
    30     9    29    1
    31     9    30    1
    32    10    31    1
    33    10    32    1
    34    11    33    1
    35    11    34    1
    36    15    35    1
    37    17    36    1
    38    18    37    1
    39    19    38    1
    40    20    39    1
