
     RDKit          3D

 39 40  0  0  0  0  0  0  0  0999 V2000
    1.2031   -0.4010    2.2733 O   0  0  0  0  0  0  0  0  0  0  0  0
    1.0429   -1.1459    0.7688 P   0  0  1  0  0  5  0  0  0  0  0  0
    1.5104   -2.6015    0.8506 O   0  0  0  0  0  0  0  0  0  0  0  0
   -0.6058   -1.1289    0.3839 O   0  0  0  0  0  0  0  0  0  0  0  0
   -1.1540    0.0687    0.7896 C   0  0  0  0  0  0  0  0  0  0  0  0
   -2.6345    0.0175    0.4141 C   0  0  0  0  0  0  0  0  0  0  0  0
   -2.7326   -0.1608   -1.0961 C   0  0  0  0  0  0  0  0  0  0  0  0
   -4.1804   -0.4569   -1.4286 C   0  0  0  0  0  0  0  0  0  0  0  0
   -5.1168    0.2833   -0.4973 C   0  0  0  0  0  0  0  0  0  0  0  0
   -4.4151    1.5975   -0.1370 C   0  0  0  0  0  0  0  0  0  0  0  0
   -3.3575    1.2534    0.8785 C   0  0  0  0  0  0  0  0  0  0  0  0
    1.9654   -0.3866   -0.4486 O   0  0  0  0  0  0  0  0  0  0  0  0
    3.3341   -0.2115   -0.4172 C   0  0  0  0  0  0  0  0  0  0  0  0
    4.2943   -0.5455    0.4867 C   0  0  0  0  0  0  0  0  0  0  0  0
    3.7533   -1.2264    1.6552 C   0  0  0  0  0  0  0  0  0  0  0  0
    4.3928   -1.6497    2.6449 O   0  0  0  0  0  0  0  0  0  0  0  0
    5.6169   -0.2497    0.2729 C   0  0  0  0  0  0  0  0  0  0  0  0
    6.0050    0.4000   -0.8765 C   0  0  0  0  0  0  0  0  0  0  0  0
    5.0705    0.7596   -1.8231 C   0  0  0  0  0  0  0  0  0  0  0  0
    3.7264    0.4481   -1.5846 C   0  0  0  0  0  0  0  0  0  0  0  0
    1.1744   -1.0849    2.9957 H   0  0  0  0  0  0  0  0  0  0  0  0
   -1.0860    0.1778    1.8784 H   0  0  0  0  0  0  0  0  0  0  0  0
   -0.7264    0.9562    0.2631 H   0  0  0  0  0  0  0  0  0  0  0  0
   -3.0929   -0.8698    0.8904 H   0  0  0  0  0  0  0  0  0  0  0  0
   -2.1361   -1.0368   -1.3762 H   0  0  0  0  0  0  0  0  0  0  0  0
   -2.3290    0.7082   -1.6349 H   0  0  0  0  0  0  0  0  0  0  0  0
   -4.3862   -0.1625   -2.4785 H   0  0  0  0  0  0  0  0  0  0  0  0
   -4.3332   -1.5493   -1.3633 H   0  0  0  0  0  0  0  0  0  0  0  0
   -6.1040    0.4718   -0.9510 H   0  0  0  0  0  0  0  0  0  0  0  0
   -5.2110   -0.2818    0.4525 H   0  0  0  0  0  0  0  0  0  0  0  0
   -5.1763    2.2470    0.3401 H   0  0  0  0  0  0  0  0  0  0  0  0
   -3.9652    2.0547   -1.0598 H   0  0  0  0  0  0  0  0  0  0  0  0
   -3.8824    1.0563    1.8337 H   0  0  0  0  0  0  0  0  0  0  0  0
   -2.6676    2.1012    1.0774 H   0  0  0  0  0  0  0  0  0  0  0  0
    4.3057   -1.5914    2.5088 H   0  0  0  0  0  0  0  0  0  0  0  0
    6.3095   -0.5437    1.0273 H   0  0  0  0  0  0  0  0  0  0  0  0
    7.0577    0.6223   -1.0215 H   0  0  0  0  0  0  0  0  0  0  0  0
    5.4316    1.2674   -2.7060 H   0  0  0  0  0  0  0  0  0  0  0  0
    3.0991    0.7938   -2.4213 H   0  0  0  0  0  0  0  0  0  0  0  0
  2  1  1  1
  2  3  2  0
  2  4  1  0
  4  5  1  0
  5  6  1  0
  6  7  1  0
  7  8  1  0
  8  9  1  0
  9 10  1  0
 10 11  1  0
  2 12  1  0
 12 13  1  0
 13 14  2  0
 14 15  1  0
 15 16  2  0
 14 17  1  0
 17 18  2  0
 18 19  1  0
 19 20  2  0
 11  6  1  0
 20 13  1  0
  1 21  1  0
  5 22  1  0
  5 23  1  0
  6 24  1  0
  7 25  1  0
  7 26  1  0
  8 27  1  0
  8 28  1  0
  9 29  1  0
  9 30  1  0
 10 31  1  0
 10 32  1  0
 11 33  1  0
 11 34  1  0
 15 35  1  0
 17 36  1  0
 18 37  1  0
 19 38  1  0
 20 39  1  0
M  END
$$$$
