
     RDKit          3D

 58 61  0  0  0  0  0  0  0  0999 V2000
   -5.7718   -1.8019    1.6076 C   0  0  0  0  0  0  0  0  0  0  0  0
   -5.9824   -1.9235    0.1175 C   0  0  0  0  0  0  0  0  0  0  0  0
   -7.4729   -2.0087   -0.1338 C   0  0  0  0  0  0  0  0  0  0  0  0
   -5.3466   -3.2261   -0.3129 C   0  0  0  0  0  0  0  0  0  0  0  0
   -5.4720   -0.7935   -0.6054 N   0  0  0  0  0  0  0  0  0  0  0  0
   -4.1024   -0.3991   -0.5766 C   0  0  0  0  0  0  0  0  0  0  0  0
   -3.3159   -1.0641    0.1058 O   0  0  0  0  0  0  0  0  0  0  0  0
   -3.6267    0.7664   -1.3348 C   0  0  0  0  0  0  0  0  0  0  0  0
   -4.3210    1.5467   -2.2315 C   0  0  0  0  0  0  0  0  0  0  0  0
   -3.5128    2.5169   -2.7040 N   0  0  0  0  0  0  0  0  0  0  0  0
   -2.2872    2.3905   -2.1310 C   0  0  0  0  0  0  0  0  0  0  0  0
   -1.1302    3.0667   -2.2322 N   0  0  0  0  0  0  0  0  0  0  0  0
   -0.0749    2.6637   -1.5012 C   0  0  0  0  0  0  0  0  0  0  0  0
   -0.1221    1.5758   -0.6409 C   0  0  0  0  0  0  0  0  0  0  0  0
    1.0625    1.1937    0.1230 C   0  0  0  0  0  0  0  0  0  0  0  0
    2.2467    1.8144    0.0803 N   0  0  0  0  0  0  0  0  0  0  0  0
    3.1220    1.2198    0.8963 N   0  0  0  0  0  0  0  0  0  0  0  0
    4.5022    1.5879    1.1353 C   0  0  0  0  0  0  0  0  0  0  0  0
    5.4353    0.8714    0.1602 C   0  0  0  0  0  0  0  0  0  0  0  0
    6.8740    1.2660    0.4221 C   0  0  0  0  0  0  0  0  0  0  0  0
    7.8840    0.3887   -0.7533 S   0  0  0  0  0  6  0  0  0  0  0  0
    7.3298    0.9084   -2.3822 C   0  0  0  0  0  0  0  0  0  0  0  0
    9.3174    0.7969   -0.5929 O   0  0  0  0  0  0  0  0  0  0  0  0
    7.6797   -1.0729   -0.5663 O   0  0  0  0  0  0  0  0  0  0  0  0
    2.5191    0.1708    1.5077 C   0  0  0  0  0  0  0  0  0  0  0  0
    2.9749   -0.7669    2.4388 C   0  0  0  0  0  0  0  0  0  0  0  0
    2.0537   -1.7072    2.8410 C   0  0  0  0  0  0  0  0  0  0  0  0
    2.4448   -2.6529    3.7543 F   0  0  0  0  0  0  0  0  0  0  0  0
    0.7587   -1.7397    2.3679 C   0  0  0  0  0  0  0  0  0  0  0  0
    0.3476   -0.7955    1.4489 C   0  0  0  0  0  0  0  0  0  0  0  0
    1.2293    0.1596    1.0194 C   0  0  0  0  0  0  0  0  0  0  0  0
   -1.2859    0.9066   -0.5480 N   0  0  0  0  0  0  0  0  0  0  0  0
   -2.3616    1.3058   -1.2839 C   0  0  0  0  0  0  0  0  0  0  0  0
   -6.6598   -2.2396    2.1039 H   0  0  0  0  0  0  0  0  0  0  0  0
   -4.8969   -2.4222    1.9474 H   0  0  0  0  0  0  0  0  0  0  0  0
   -5.6874   -0.7543    1.9409 H   0  0  0  0  0  0  0  0  0  0  0  0
   -7.7225   -2.3501   -1.1548 H   0  0  0  0  0  0  0  0  0  0  0  0
   -7.8822   -0.9906   -0.0034 H   0  0  0  0  0  0  0  0  0  0  0  0
   -7.9039   -2.7342    0.5867 H   0  0  0  0  0  0  0  0  0  0  0  0
   -5.2586   -3.9354    0.5315 H   0  0  0  0  0  0  0  0  0  0  0  0
   -4.3627   -3.0720   -0.7986 H   0  0  0  0  0  0  0  0  0  0  0  0
   -6.0157   -3.6980   -1.0632 H   0  0  0  0  0  0  0  0  0  0  0  0
   -6.1054   -0.2223   -1.1811 H   0  0  0  0  0  0  0  0  0  0  0  0
   -5.3614    1.4187   -2.5278 H   0  0  0  0  0  0  0  0  0  0  0  0
   -3.8048    3.2420   -3.4012 H   0  0  0  0  0  0  0  0  0  0  0  0
    0.8917    3.1900   -1.5553 H   0  0  0  0  0  0  0  0  0  0  0  0
    4.7868    1.2837    2.1519 H   0  0  0  0  0  0  0  0  0  0  0  0
    4.6484    2.6936    0.9725 H   0  0  0  0  0  0  0  0  0  0  0  0
    5.2061    1.2137   -0.8847 H   0  0  0  0  0  0  0  0  0  0  0  0
    5.3566   -0.2203    0.2741 H   0  0  0  0  0  0  0  0  0  0  0  0
    7.1447    1.0236    1.4683 H   0  0  0  0  0  0  0  0  0  0  0  0
    7.0282    2.3578    0.2237 H   0  0  0  0  0  0  0  0  0  0  0  0
    7.2643    2.0143   -2.3968 H   0  0  0  0  0  0  0  0  0  0  0  0
    8.0352    0.5475   -3.1348 H   0  0  0  0  0  0  0  0  0  0  0  0
    6.3218    0.4947   -2.5971 H   0  0  0  0  0  0  0  0  0  0  0  0
    3.9886   -0.7119    2.7847 H   0  0  0  0  0  0  0  0  0  0  0  0
    0.0610   -2.4916    2.7044 H   0  0  0  0  0  0  0  0  0  0  0  0
   -0.6672   -0.8019    1.0628 H   0  0  0  0  0  0  0  0  0  0  0  0
  1  2  1  0
  2  3  1  0
  2  4  1  0
  2  5  1  0
  5  6  1  0
  6  7  2  0
  6  8  1  0
  8  9  2  0
  9 10  1  0
 10 11  1  0
 11 12  2  0
 12 13  1  0
 13 14  2  0
 14 15  1  0
 15 16  2  0
 16 17  1  0
 17 18  1  0
 18 19  1  0
 19 20  1  0
 20 21  1  0
 21 22  1  0
 21 23  2  0
 21 24  2  0
 17 25  1  0
 25 26  2  0
 26 27  1  0
 27 28  1  0
 27 29  2  0
 29 30  1  0
 30 31  2  0
 14 32  1  0
 32 33  2  0
 33  8  1  0
 33 11  1  0
 31 15  1  0
 31 25  1  0
  1 34  1  0
  1 35  1  0
  1 36  1  0
  3 37  1  0
  3 38  1  0
  3 39  1  0
  4 40  1  0
  4 41  1  0
  4 42  1  0
  5 43  1  0
  9 44  1  0
 10 45  1  0
 13 46  1  0
 18 47  1  0
 18 48  1  0
 19 49  1  0
 19 50  1  0
 20 51  1  0
 20 52  1  0
 22 53  1  0
 22 54  1  0
 22 55  1  0
 26 56  1  0
 29 57  1  0
 30 58  1  0
M  END
$$$$
