@<TRIPOS>MOLECULE
*****
 58 61 0 0 0
SMALL
GASTEIGER

@<TRIPOS>ATOM
      1 C          -5.7718   -1.8019    1.6076 C.3     1  UNL1       -0.0442
      2 C          -5.9824   -1.9235    0.1175 C.3     1  UNL1        0.0265
      3 C          -7.4729   -2.0087   -0.1338 C.3     1  UNL1       -0.0442
      4 C          -5.3466   -3.2261   -0.3129 C.3     1  UNL1       -0.0442
      5 N          -5.4720   -0.7935   -0.6054 N.am    1  UNL1       -0.3065
      6 C          -4.1024   -0.3991   -0.5766 C.2     1  UNL1        0.2480
      7 O          -3.3159   -1.0641    0.1058 O.2     1  UNL1       -0.2701
      8 C          -3.6267    0.7664   -1.3348 C.ar    1  UNL1        0.0815
      9 C          -4.3210    1.5467   -2.2315 C.ar    1  UNL1        0.0178
     10 N          -3.5128    2.5169   -2.7040 N.ar    1  UNL1       -0.3438
     11 C          -2.2872    2.3905   -2.1310 C.ar    1  UNL1        0.1574
     12 N          -1.1302    3.0667   -2.2322 N.ar    1  UNL1       -0.2338
     13 C          -0.0749    2.6637   -1.5012 C.ar    1  UNL1        0.0575
     14 C          -0.1221    1.5758   -0.6409 C.ar    1  UNL1        0.1104
     15 C           1.0625    1.1937    0.1230 C.ar    1  UNL1        0.1201
     16 N           2.2467    1.8144    0.0803 N.ar    1  UNL1       -0.1685
     17 N           3.1220    1.2198    0.8963 N.ar    1  UNL1       -0.2629
     18 C           4.5022    1.5879    1.1353 C.3     1  UNL1        0.0437
     19 C           5.4353    0.8714    0.1602 C.3     1  UNL1       -0.0139
     20 C           6.8740    1.2660    0.4221 C.3     1  UNL1        0.0671
     21 S           7.8840    0.3887   -0.7533 S.O2    1  UNL1       -0.0337
     22 C           7.3298    0.9084   -2.3822 C.3     1  UNL1        0.0544
     23 O           9.3174    0.7969   -0.5929 O.2     1  UNL1       -0.1746
     24 O           7.6797   -1.0729   -0.5663 O.2     1  UNL1       -0.1746
     25 C           2.5191    0.1708    1.5077 C.ar    1  UNL1        0.0723
     26 C           2.9749   -0.7669    2.4388 C.ar    1  UNL1       -0.0008
     27 C           2.0537   -1.7072    2.8410 C.ar    1  UNL1        0.1254
     28 F           2.4448   -2.6529    3.7543 F       1  UNL1       -0.2054
     29 C           0.7587   -1.7397    2.3679 C.ar    1  UNL1       -0.0257
     30 C           0.3476   -0.7955    1.4489 C.ar    1  UNL1       -0.0477
     31 C           1.2293    0.1596    1.0194 C.ar    1  UNL1        0.0293
     32 N          -1.2859    0.9066   -0.5480 N.ar    1  UNL1       -0.2397
     33 C          -2.3616    1.3058   -1.2839 C.ar    1  UNL1        0.1202
     34 H          -6.6598   -2.2396    2.1039 H       1  UNL1        0.0250
     35 H          -4.8969   -2.4222    1.9474 H       1  UNL1        0.0250
     36 H          -5.6874   -0.7543    1.9409 H       1  UNL1        0.0250
     37 H          -7.7225   -2.3501   -1.1548 H       1  UNL1        0.0250
     38 H          -7.8822   -0.9906   -0.0034 H       1  UNL1        0.0250
     39 H          -7.9039   -2.7342    0.5867 H       1  UNL1        0.0250
     40 H          -5.2586   -3.9354    0.5315 H       1  UNL1        0.0250
     41 H          -4.3627   -3.0720   -0.7986 H       1  UNL1        0.0250
     42 H          -6.0157   -3.6980   -1.0632 H       1  UNL1        0.0250
     43 H          -6.1054   -0.2223   -1.1811 H       1  UNL1        0.1495
     44 H          -5.3614    1.4187   -2.5278 H       1  UNL1        0.0816
     45 H          -3.8048    3.2420   -3.4012 H       1  UNL1        0.1668
     46 H           0.8917    3.1900   -1.5553 H       1  UNL1        0.0853
     47 H           4.7868    1.2837    2.1519 H       1  UNL1        0.0509
     48 H           4.6484    2.6936    0.9725 H       1  UNL1        0.0509
     49 H           5.2061    1.2137   -0.8847 H       1  UNL1        0.0299
     50 H           5.3566   -0.2203    0.2741 H       1  UNL1        0.0299
     51 H           7.1447    1.0236    1.4683 H       1  UNL1        0.0500
     52 H           7.0282    2.3578    0.2237 H       1  UNL1        0.0500
     53 H           7.2643    2.0143   -2.3968 H       1  UNL1        0.0464
     54 H           8.0352    0.5475   -3.1348 H       1  UNL1        0.0464
     55 H           6.3218    0.4947   -2.5971 H       1  UNL1        0.0464
     56 H           3.9886   -0.7119    2.7847 H       1  UNL1        0.0667
     57 H           0.0610   -2.4916    2.7044 H       1  UNL1        0.0646
     58 H          -0.6672   -0.8019    1.0628 H       1  UNL1        0.0626
@<TRIPOS>BOND
     1     1     2    1
     2     2     3    1
     3     2     4    1
     4     2     5    1
     5     5     6   am
     6     6     7    2
     7     6     8    1
     8     8     9   ar
     9     9    10   ar
    10    10    11   ar
    11    11    12   ar
    12    12    13   ar
    13    13    14   ar
    14    14    15    1
    15    15    16   ar
    16    16    17   ar
    17    17    18    1
    18    18    19    1
    19    19    20    1
    20    20    21    1
    21    21    22    1
    22    21    23    2
    23    21    24    2
    24    17    25   ar
    25    25    26   ar
    26    26    27   ar
    27    27    28    1
    28    27    29   ar
    29    29    30   ar
    30    30    31   ar
    31    14    32   ar
    32    32    33   ar
    33    33     8   ar
    34    33    11   ar
    35    31    15   ar
    36    31    25   ar
    37     1    34    1
    38     1    35    1
    39     1    36    1
    40     3    37    1
    41     3    38    1
    42     3    39    1
    43     4    40    1
    44     4    41    1
    45     4    42    1
    46     5    43    1
    47     9    44    1
    48    10    45    1
    49    13    46    1
    50    18    47    1
    51    18    48    1
    52    19    49    1
    53    19    50    1
    54    20    51    1
    55    20    52    1
    56    22    53    1
    57    22    54    1
    58    22    55    1
    59    26    56    1
    60    29    57    1
    61    30    58    1
