@<TRIPOS>MOLECULE
*****
 42 44 0 0 0
SMALL
GASTEIGER

@<TRIPOS>ATOM
      1 N          -5.9050   -1.1547    1.6547 N.pl3   1  UNL1       -0.3413
      2 C          -5.0062   -0.6624    0.6483 C.ar    1  UNL1        0.1472
      3 N          -5.3893    0.3602   -0.1706 N.ar    1  UNL1       -0.2188
      4 C          -4.5233    0.8131   -1.1186 C.ar    1  UNL1        0.1205
      5 N          -3.3180    0.2249   -1.2042 N.ar    1  UNL1       -0.2159
      6 C          -2.8903   -0.7636   -0.4451 C.ar    1  UNL1        0.1674
      7 C          -3.7653   -1.2114    0.5028 C.ar    1  UNL1        0.1473
      8 N          -3.1841   -2.2090    1.1844 N.ar    1  UNL1       -0.2306
      9 C          -1.9580   -2.3823    0.6669 C.ar    1  UNL1        0.1004
     10 N          -1.7888   -1.4863   -0.3359 N.ar    1  UNL1       -0.2855
     11 C          -0.5940   -1.3796   -1.1192 C.3     1  UNL1        0.1667
     12 O           0.4895   -1.7510   -0.3245 O.3     1  UNL1       -0.3456
     13 C           1.5093   -0.8491   -0.5491 C.3     1  UNL1        0.1142
     14 C           2.4757   -0.7789    0.5976 C.3     1  UNL1        0.0879
     15 O           3.4559    0.1355    0.2955 O.3     1  UNL1       -0.2841
     16 P           4.6266    0.3485    1.4626 P.3     1  UNL1        0.4724
     17 O           5.5188    1.7429    1.0303 O.3     1  UNL1       -0.3026
     18 O           5.7284   -0.9000    1.5935 O.3     1  UNL1       -0.3026
     19 O           4.0246    0.5767    2.8368 O.2     1  UNL1       -0.2275
     20 C           0.7488    0.4491   -0.7388 C.3     1  UNL1        0.1283
     21 O           1.6306    1.3268   -1.3570 O.3     1  UNL1       -0.2780
     22 P           1.8167    2.7884   -0.5731 P.3     1  UNL1        0.4728
     23 O           1.8162    2.6601    1.1048 O.3     1  UNL1       -0.3026
     24 O           0.7182    3.9528   -1.1203 O.3     1  UNL1       -0.3026
     25 O           3.2027    3.3140   -0.9537 O.2     1  UNL1       -0.2275
     26 C          -0.2976   -0.0706   -1.7212 C.3     1  UNL1        0.1294
     27 O           0.4190   -0.2767   -2.9215 O.3     1  UNL1       -0.3846
     28 H          -6.1840   -1.0995    2.6516 H       1  UNL1        0.1438
     29 H          -6.4301   -1.8074    1.0420 H       1  UNL1        0.1438
     30 H          -4.8144    1.6190   -1.7700 H       1  UNL1        0.1048
     31 H          -1.2952   -3.1471    1.0666 H       1  UNL1        0.1030
     32 H          -0.6186   -2.1592   -1.9356 H       1  UNL1        0.0866
     33 H           2.0136   -1.0664   -1.5120 H       1  UNL1        0.0647
     34 H           1.9467   -0.3816    1.5010 H       1  UNL1        0.0592
     35 H           2.8400   -1.7825    0.8874 H       1  UNL1        0.0592
     36 H           6.1348    1.4403    0.3170 H       1  UNL1        0.2220
     37 H           5.5143   -1.7082    1.0604 H       1  UNL1        0.2220
     38 H           0.2937    0.8379    0.1835 H       1  UNL1        0.0656
     39 H           1.6158    3.5427    1.5002 H       1  UNL1        0.2220
     40 H          -0.0757    3.4913   -1.4408 H       1  UNL1        0.2220
     41 H          -1.0859    0.6250   -1.9261 H       1  UNL1        0.0666
     42 H           0.5840   -1.2219   -3.0999 H       1  UNL1        0.2101
@<TRIPOS>BOND
     1     1     2    1
     2     2     3   ar
     3     3     4   ar
     4     4     5   ar
     5     5     6   ar
     6     6     7   ar
     7     7     8   ar
     8     8     9   ar
     9     9    10   ar
    10    10    11    1
    11    11    12    1
    12    12    13    1
    13    13    14    1
    14    14    15    1
    15    15    16    1
    16    16    17    1
    17    16    18    1
    18    16    19    2
    19    13    20    1
    20    20    21    1
    21    21    22    1
    22    22    23    1
    23    22    24    1
    24    22    25    2
    25    20    26    1
    26    26    27    1
    27     7     2   ar
    28    26    11    1
    29    10     6   ar
    30     1    28    1
    31     1    29    1
    32     4    30    1
    33     9    31    1
    34    11    32    1
    35    13    33    1
    36    14    34    1
    37    14    35    1
    38    17    36    1
    39    18    37    1
    40    20    38    1
    41    23    39    1
    42    24    40    1
    43    26    41    1
    44    27    42    1
