@<TRIPOS>MOLECULE
*****
 31 33 0 0 0
SMALL
GASTEIGER

@<TRIPOS>ATOM
      1 C          -3.1024   -2.8879   -0.1904 C.3     1  UNL1       -0.0064
      2 C          -2.3235   -1.6074   -0.1366 C.ar    1  UNL1        0.1069
      3 N          -1.1452   -1.3613   -0.7073 N.ar    1  UNL1       -0.2147
      4 C          -0.7853   -0.0774   -0.4154 C.ar    1  UNL1        0.1686
      5 C          -1.8178    0.4091    0.3554 C.ar    1  UNL1        0.1491
      6 N          -2.7716   -0.5292    0.5323 N.ar    1  UNL1       -0.3365
      7 C          -1.7251    1.7001    0.8010 C.ar    1  UNL1        0.2820
      8 O          -2.6417    2.1679    1.4992 O.2     1  UNL1       -0.2652
      9 N          -0.6518    2.4361    0.4785 N.ar    1  UNL1       -0.2622
     10 C          -0.5600    3.8098    0.9564 C.3     1  UNL1        0.0196
     11 C           0.3418    1.9152   -0.2836 C.ar    1  UNL1        0.3337
     12 O           1.3582    2.6324   -0.5812 O.2     1  UNL1       -0.2462
     13 N           0.3008    0.6573   -0.7456 N.ar    1  UNL1       -0.2690
     14 C           1.3478    0.0769   -1.5609 C.3     1  UNL1        0.0873
     15 C           2.3900   -0.5840   -0.7215 C.ar    1  UNL1        0.1246
     16 C           2.3977   -1.8955   -0.3094 C.ar    1  UNL1       -0.0189
     17 C           3.5366   -2.0784    0.4403 C.ar    1  UNL1       -0.0236
     18 C           4.1836   -0.8636    0.4565 C.ar    1  UNL1        0.0922
     19 O           3.4648   -0.0259   -0.2410 O.2     1  UNL1       -0.4660
     20 H          -2.6603   -3.6529    0.4827 H       1  UNL1        0.0307
     21 H          -4.1734   -2.7185    0.0321 H       1  UNL1        0.0307
     22 H          -3.0814   -3.2594   -1.2542 H       1  UNL1        0.0307
     23 H          -3.6652   -0.4461    1.0692 H       1  UNL1        0.1673
     24 H          -0.2369    4.4543    0.1007 H       1  UNL1        0.0458
     25 H           0.2651    3.8358    1.6837 H       1  UNL1        0.0458
     26 H          -1.5229    4.1324    1.3626 H       1  UNL1        0.0458
     27 H           1.7855    0.8012   -2.2790 H       1  UNL1        0.0574
     28 H           0.8740   -0.7150   -2.1790 H       1  UNL1        0.0574
     29 H           1.6382   -2.6657   -0.5321 H       1  UNL1        0.0652
     30 H           3.8460   -3.0078    0.9173 H       1  UNL1        0.0649
     31 H           5.1346   -0.6521    0.9693 H       1  UNL1        0.1029
@<TRIPOS>BOND
     1     1     2    1
     2     2     3   ar
     3     3     4   ar
     4     4     5   ar
     5     5     6   ar
     6     5     7   ar
     7     7     8    2
     8     7     9   ar
     9     9    10    1
    10     9    11   ar
    11    11    12    2
    12    11    13   ar
    13    13    14    1
    14    14    15    1
    15    15    16   ar
    16    16    17   ar
    17    17    18   ar
    18    18    19   ar
    19     6     2   ar
    20    19    15   ar
    21    13     4   ar
    22     1    20    1
    23     1    21    1
    24     1    22    1
    25     6    23    1
    26    10    24    1
    27    10    25    1
    28    10    26    1
    29    14    27    1
    30    14    28    1
    31    16    29    1
    32    17    30    1
    33    18    31    1
