
     RDKit          3D

 31 33  0  0  0  0  0  0  0  0999 V2000
   -3.1024   -2.8879   -0.1904 C   0  0  0  0  0  0  0  0  0  0  0  0
   -2.3235   -1.6074   -0.1366 C   0  0  0  0  0  0  0  0  0  0  0  0
   -1.1452   -1.3613   -0.7073 N   0  0  0  0  0  0  0  0  0  0  0  0
   -0.7853   -0.0774   -0.4154 C   0  0  0  0  0  0  0  0  0  0  0  0
   -1.8178    0.4091    0.3554 C   0  0  0  0  0  0  0  0  0  0  0  0
   -2.7716   -0.5292    0.5323 N   0  0  0  0  0  0  0  0  0  0  0  0
   -1.7251    1.7001    0.8010 C   0  0  0  0  0  0  0  0  0  0  0  0
   -2.6417    2.1679    1.4992 O   0  0  0  0  0  0  0  0  0  0  0  0
   -0.6518    2.4361    0.4785 N   0  0  0  0  0  0  0  0  0  0  0  0
   -0.5600    3.8098    0.9564 C   0  0  0  0  0  0  0  0  0  0  0  0
    0.3418    1.9152   -0.2836 C   0  0  0  0  0  0  0  0  0  0  0  0
    1.3582    2.6324   -0.5812 O   0  0  0  0  0  0  0  0  0  0  0  0
    0.3008    0.6573   -0.7456 N   0  0  0  0  0  0  0  0  0  0  0  0
    1.3478    0.0769   -1.5609 C   0  0  0  0  0  0  0  0  0  0  0  0
    2.3900   -0.5840   -0.7215 C   0  0  0  0  0  0  0  0  0  0  0  0
    2.3977   -1.8955   -0.3094 C   0  0  0  0  0  0  0  0  0  0  0  0
    3.5366   -2.0784    0.4403 C   0  0  0  0  0  0  0  0  0  0  0  0
    4.1836   -0.8636    0.4565 C   0  0  0  0  0  0  0  0  0  0  0  0
    3.4648   -0.0259   -0.2410 O   0  0  0  0  0  0  0  0  0  0  0  0
   -2.6603   -3.6529    0.4827 H   0  0  0  0  0  0  0  0  0  0  0  0
   -4.1734   -2.7185    0.0321 H   0  0  0  0  0  0  0  0  0  0  0  0
   -3.0814   -3.2594   -1.2542 H   0  0  0  0  0  0  0  0  0  0  0  0
   -3.6652   -0.4461    1.0692 H   0  0  0  0  0  0  0  0  0  0  0  0
   -0.2369    4.4543    0.1007 H   0  0  0  0  0  0  0  0  0  0  0  0
    0.2651    3.8358    1.6837 H   0  0  0  0  0  0  0  0  0  0  0  0
   -1.5229    4.1324    1.3626 H   0  0  0  0  0  0  0  0  0  0  0  0
    1.7855    0.8012   -2.2790 H   0  0  0  0  0  0  0  0  0  0  0  0
    0.8740   -0.7150   -2.1790 H   0  0  0  0  0  0  0  0  0  0  0  0
    1.6382   -2.6657   -0.5321 H   0  0  0  0  0  0  0  0  0  0  0  0
    3.8460   -3.0078    0.9173 H   0  0  0  0  0  0  0  0  0  0  0  0
    5.1346   -0.6521    0.9693 H   0  0  0  0  0  0  0  0  0  0  0  0
  1  2  1  0
  2  3  2  0
  3  4  1  0
  4  5  2  0
  5  6  1  0
  5  7  1  0
  7  8  2  0
  7  9  1  0
  9 10  1  0
  9 11  1  0
 11 12  2  0
 11 13  1  0
 13 14  1  0
 14 15  1  0
 15 16  2  0
 16 17  1  0
 17 18  2  0
 18 19  1  0
  6  2  1  0
 19 15  1  0
 13  4  1  0
  1 20  1  0
  1 21  1  0
  1 22  1  0
  6 23  1  0
 10 24  1  0
 10 25  1  0
 10 26  1  0
 14 27  1  0
 14 28  1  0
 16 29  1  0
 17 30  1  0
 18 31  1  0
M  END
$$$$
