
     RDKit          3D

 50 54  0  0  0  0  0  0  0  0999 V2000
    3.5235    2.0264    0.3285 O   0  0  0  0  0  0  0  0  0  0  0  0
    3.7616    0.8918   -0.1542 C   0  0  0  0  0  0  0  0  0  0  0  0
    2.6480    0.1782   -0.6542 N   0  0  0  0  0  0  0  0  0  0  0  0
    1.3152    0.6773   -0.6328 C   0  0  0  0  0  0  0  0  0  0  0  0
    0.8583    1.4191   -1.7282 C   0  0  0  0  0  0  0  0  0  0  0  0
   -0.4169    1.9093   -1.7322 C   0  0  0  0  0  0  0  0  0  0  0  0
   -1.2458    1.6776   -0.6716 C   0  0  0  0  0  0  0  0  0  0  0  0
   -0.8443    0.9472    0.4427 C   0  0  0  0  0  0  0  0  0  0  0  0
   -1.7509    0.7155    1.5608 C   0  0  0  0  0  0  0  0  0  0  0  0
   -1.3080    0.8783    2.8568 C   0  0  0  0  0  0  0  0  0  0  0  0
   -2.1510    0.6642    3.9455 C   0  0  0  0  0  0  0  0  0  0  0  0
   -3.4038    0.2961    3.7073 N   0  0  0  0  0  0  0  0  0  0  0  0
   -3.8567    0.1316    2.4514 C   0  0  0  0  0  0  0  0  0  0  0  0
   -5.0759   -0.2353    1.8931 C   0  0  0  0  0  0  0  0  0  0  0  0
   -4.9574   -0.2378    0.5278 C   0  0  0  0  0  0  0  0  0  0  0  0
   -6.0237   -0.5711   -0.4191 C   0  0  0  0  0  0  0  0  0  0  0  0
   -7.2756   -0.9201    0.0372 C   0  0  0  0  0  0  0  0  0  0  0  0
   -8.2872   -1.2361   -0.8544 C   0  0  0  0  0  0  0  0  0  0  0  0
   -8.0422   -1.2014   -2.1954 N   0  0  0  0  0  0  0  0  0  0  0  0
   -6.8185   -0.8608   -2.6656 C   0  0  0  0  0  0  0  0  0  0  0  0
   -5.8073   -0.5451   -1.7792 C   0  0  0  0  0  0  0  0  0  0  0  0
   -3.6901    0.1208    0.2594 N   0  0  0  0  0  0  0  0  0  0  0  0
   -3.0314    0.3413    1.3906 N   0  0  0  0  0  0  0  0  0  0  0  0
    0.4486    0.4644    0.4194 C   0  0  0  0  0  0  0  0  0  0  0  0
    5.1321    0.4037   -0.1647 C   0  0  0  0  0  0  0  0  0  0  0  0
    6.1134    1.2185    0.3611 C   0  0  0  0  0  0  0  0  0  0  0  0
    7.4267    0.8408    0.3922 C   0  0  0  0  0  0  0  0  0  0  0  0
    7.7601   -0.3898   -0.1196 C   0  0  0  0  0  0  0  0  0  0  0  0
    6.7910   -1.2213   -0.6512 C   0  0  0  0  0  0  0  0  0  0  0  0
    7.1846   -2.5571   -1.2018 C   0  0  0  0  0  0  0  0  0  0  0  0
    8.5543   -2.5251   -1.4532 F   0  0  0  0  0  0  0  0  0  0  0  0
    6.5573   -2.8087   -2.3932 F   0  0  0  0  0  0  0  0  0  0  0  0
    6.9532   -3.5209   -0.2523 F   0  0  0  0  0  0  0  0  0  0  0  0
    5.4804   -0.8289   -0.6751 C   0  0  0  0  0  0  0  0  0  0  0  0
    2.8161   -0.7663   -1.0607 H   0  0  0  0  0  0  0  0  0  0  0  0
    1.5523    1.5751   -2.5428 H   0  0  0  0  0  0  0  0  0  0  0  0
   -0.7218    2.4816   -2.6126 H   0  0  0  0  0  0  0  0  0  0  0  0
   -2.2604    2.0667   -0.6731 H   0  0  0  0  0  0  0  0  0  0  0  0
   -0.2776    1.1815    3.0719 H   0  0  0  0  0  0  0  0  0  0  0  0
   -1.7380    0.8103    4.9434 H   0  0  0  0  0  0  0  0  0  0  0  0
   -5.9655   -0.4767    2.4677 H   0  0  0  0  0  0  0  0  0  0  0  0
   -7.5029   -0.9577    1.0803 H   0  0  0  0  0  0  0  0  0  0  0  0
   -9.2796   -1.5148   -0.5678 H   0  0  0  0  0  0  0  0  0  0  0  0
   -6.6817   -0.8500   -3.7320 H   0  0  0  0  0  0  0  0  0  0  0  0
   -4.8480   -0.2795   -2.1987 H   0  0  0  0  0  0  0  0  0  0  0  0
    0.7885   -0.1073    1.2726 H   0  0  0  0  0  0  0  0  0  0  0  0
    5.8785    2.2030    0.7755 H   0  0  0  0  0  0  0  0  0  0  0  0
    8.2195    1.4705    0.8039 H   0  0  0  0  0  0  0  0  0  0  0  0
    8.7842   -0.7267   -0.1147 H   0  0  0  0  0  0  0  0  0  0  0  0
    4.7149   -1.4723   -1.0889 H   0  0  0  0  0  0  0  0  0  0  0  0
  1  2  2  0
  2  3  1  0
  3  4  1  0
  4  5  2  0
  5  6  1  0
  6  7  2  0
  7  8  1  0
  8  9  1  0
  9 10  2  0
 10 11  1  0
 11 12  2  0
 12 13  1  0
 13 14  2  0
 14 15  1  0
 15 16  1  0
 16 17  2  0
 17 18  1  0
 18 19  2  0
 19 20  1  0
 20 21  2  0
 15 22  2  0
 22 23  1  0
  8 24  2  0
  2 25  1  0
 25 26  2  0
 26 27  1  0
 27 28  2  0
 28 29  1  0
 29 30  1  0
 30 31  1  0
 30 32  1  0
 30 33  1  0
 29 34  2  0
 24  4  1  0
 34 25  1  0
 23  9  1  0
 23 13  1  0
 21 16  1  0
  3 35  1  0
  5 36  1  0
  6 37  1  0
  7 38  1  0
 10 39  1  0
 11 40  1  0
 14 41  1  0
 17 42  1  0
 18 43  1  0
 20 44  1  0
 21 45  1  0
 24 46  1  0
 26 47  1  0
 27 48  1  0
 28 49  1  0
 34 50  1  0
M  END
$$$$
