@<TRIPOS>MOLECULE
*****
 50 54 0 0 0
SMALL
GASTEIGER

@<TRIPOS>ATOM
      1 O           3.5235    2.0264    0.3285 O.2     1  UNL1       -0.2699
      2 C           3.7616    0.8918   -0.1542 C.2     1  UNL1        0.2483
      3 N           2.6480    0.1782   -0.6542 N.am    1  UNL1       -0.2815
      4 C           1.3152    0.6773   -0.6328 C.ar    1  UNL1        0.0343
      5 C           0.8583    1.4191   -1.7282 C.ar    1  UNL1       -0.0404
      6 C          -0.4169    1.9093   -1.7322 C.ar    1  UNL1       -0.0594
      7 C          -1.2458    1.6776   -0.6716 C.ar    1  UNL1       -0.0524
      8 C          -0.8443    0.9472    0.4427 C.ar    1  UNL1        0.0023
      9 C          -1.7509    0.7155    1.5608 C.ar    1  UNL1        0.0763
     10 C          -1.3080    0.8783    2.8568 C.ar    1  UNL1       -0.0174
     11 C          -2.1510    0.6642    3.9455 C.ar    1  UNL1        0.0320
     12 N          -3.4038    0.2961    3.7073 N.ar    1  UNL1       -0.2360
     13 C          -3.8567    0.1316    2.4514 C.ar    1  UNL1        0.1566
     14 C          -5.0759   -0.2353    1.8931 C.ar    1  UNL1        0.0102
     15 C          -4.9574   -0.2378    0.5278 C.ar    1  UNL1        0.0954
     16 C          -6.0237   -0.5711   -0.4191 C.ar    1  UNL1        0.0050
     17 C          -7.2756   -0.9201    0.0372 C.ar    1  UNL1       -0.0344
     18 C          -8.2872   -1.2361   -0.8544 C.ar    1  UNL1        0.0282
     19 N          -8.0422   -1.2014   -2.1954 N.ar    1  UNL1       -0.2632
     20 C          -6.8185   -0.8608   -2.6656 C.ar    1  UNL1        0.0282
     21 C          -5.8073   -0.5451   -1.7792 C.ar    1  UNL1       -0.0344
     22 N          -3.6901    0.1208    0.2594 N.ar    1  UNL1       -0.1644
     23 N          -3.0314    0.3413    1.3906 N.ar    1  UNL1       -0.2135
     24 C           0.4486    0.4644    0.4194 C.ar    1  UNL1       -0.0313
     25 C           5.1321    0.4037   -0.1647 C.ar    1  UNL1        0.0376
     26 C           6.1134    1.2185    0.3611 C.ar    1  UNL1       -0.0496
     27 C           7.4267    0.8408    0.3922 C.ar    1  UNL1       -0.0605
     28 C           7.7601   -0.3898   -0.1196 C.ar    1  UNL1       -0.0501
     29 C           6.7910   -1.2213   -0.6512 C.ar    1  UNL1        0.0555
     30 C           7.1846   -2.5571   -1.2018 C.3     1  UNL1        0.4174
     31 F           8.5543   -2.5251   -1.4532 F       1  UNL1       -0.1659
     32 F           6.5573   -2.8087   -2.3932 F       1  UNL1       -0.1659
     33 F           6.9532   -3.5209   -0.2523 F       1  UNL1       -0.1659
     34 C           5.4804   -0.8289   -0.6751 C.ar    1  UNL1       -0.0380
     35 H           2.8161   -0.7663   -1.0607 H       1  UNL1        0.1551
     36 H           1.5523    1.5751   -2.5428 H       1  UNL1        0.0636
     37 H          -0.7218    2.4816   -2.6126 H       1  UNL1        0.0618
     38 H          -2.2604    2.0667   -0.6731 H       1  UNL1        0.0624
     39 H          -0.2776    1.1815    3.0719 H       1  UNL1        0.0654
     40 H          -1.7380    0.8103    4.9434 H       1  UNL1        0.0831
     41 H          -5.9655   -0.4767    2.4677 H       1  UNL1        0.0677
     42 H          -7.5029   -0.9577    1.0803 H       1  UNL1        0.0639
     43 H          -9.2796   -1.5148   -0.5678 H       1  UNL1        0.0830
     44 H          -6.6817   -0.8500   -3.7320 H       1  UNL1        0.0830
     45 H          -4.8480   -0.2795   -2.1987 H       1  UNL1        0.0639
     46 H           0.7885   -0.1073    1.2726 H       1  UNL1        0.0643
     47 H           5.8785    2.2030    0.7755 H       1  UNL1        0.0625
     48 H           8.2195    1.4705    0.8039 H       1  UNL1        0.0618
     49 H           8.7842   -0.7267   -0.1147 H       1  UNL1        0.0623
     50 H           4.7149   -1.4723   -1.0889 H       1  UNL1        0.0631
@<TRIPOS>BOND
     1     1     2    2
     2     2     3   am
     3     3     4    1
     4     4     5   ar
     5     5     6   ar
     6     6     7   ar
     7     7     8   ar
     8     8     9    1
     9     9    10   ar
    10    10    11   ar
    11    11    12   ar
    12    12    13   ar
    13    13    14   ar
    14    14    15   ar
    15    15    16    1
    16    16    17   ar
    17    17    18   ar
    18    18    19   ar
    19    19    20   ar
    20    20    21   ar
    21    15    22   ar
    22    22    23   ar
    23     8    24   ar
    24     2    25    1
    25    25    26   ar
    26    26    27   ar
    27    27    28   ar
    28    28    29   ar
    29    29    30    1
    30    30    31    1
    31    30    32    1
    32    30    33    1
    33    29    34   ar
    34    24     4   ar
    35    34    25   ar
    36    23     9   ar
    37    23    13   ar
    38    21    16   ar
    39     3    35    1
    40     5    36    1
    41     6    37    1
    42     7    38    1
    43    10    39    1
    44    11    40    1
    45    14    41    1
    46    17    42    1
    47    18    43    1
    48    20    44    1
    49    21    45    1
    50    24    46    1
    51    26    47    1
    52    27    48    1
    53    28    49    1
    54    34    50    1
