
     RDKit          3D

 45 47  0  0  0  0  0  0  0  0999 V2000
   -3.9795   -0.7514   -0.2470 C   0  0  0  0  0  0  0  0  0  0  0  0
   -2.6992   -0.5601    0.6011 C   0  0  1  0  0  0  0  0  0  0  0  0
   -1.9012    0.4824   -0.1040 C   0  0  0  0  0  0  0  0  0  0  0  0
   -0.6575    0.2504   -0.6333 C   0  0  0  0  0  0  0  0  0  0  0  0
    0.0440    1.2222   -1.2751 C   0  0  0  0  0  0  0  0  0  0  0  0
    1.3613    1.0198   -1.8445 N   0  0  0  0  0  0  0  0  0  0  0  0
    2.5236    1.2986   -1.0731 C   0  0  0  0  0  0  0  0  0  0  0  0
    2.2985    1.7223    0.1147 O   0  0  0  0  0  0  0  0  0  0  0  0
    3.8874    1.1344   -1.5461 C   0  0  0  0  0  0  0  0  0  0  0  0
    4.9824    1.4507   -0.7764 C   0  0  0  0  0  0  0  0  0  0  0  0
    6.2776    1.3088   -1.2223 C   0  0  0  0  0  0  0  0  0  0  0  0
    6.4606    0.8274   -2.4987 C   0  0  0  0  0  0  0  0  0  0  0  0
    7.8520    0.6811   -2.9430 C   0  0  0  0  0  0  0  0  0  0  0  0
    8.9055    0.5790   -3.2918 N   0  0  0  0  0  0  0  0  0  0  0  0
    5.3861    0.5105   -3.2688 C   0  0  0  0  0  0  0  0  0  0  0  0
    4.1165    0.6694   -2.7805 N   0  0  0  0  0  0  0  0  0  0  0  0
   -0.5288    2.4790   -1.3884 C   0  0  0  0  0  0  0  0  0  0  0  0
   -1.7735    2.7588   -0.8729 C   0  0  0  0  0  0  0  0  0  0  0  0
   -2.4556    1.7357   -0.2252 C   0  0  0  0  0  0  0  0  0  0  0  0
   -3.6806    1.9965    0.2877 F   0  0  0  0  0  0  0  0  0  0  0  0
   -3.1371   -0.0107    1.9187 C   0  0  0  0  0  0  0  0  0  0  0  0
   -2.8234   -0.8540    3.1117 C   0  0  1  0  0  0  0  0  0  0  0  0
   -4.0030   -1.7773    3.3463 C   0  0  0  0  0  0  0  0  0  0  0  0
   -5.1111   -0.9528    3.5641 F   0  0  0  0  0  0  0  0  0  0  0  0
   -3.7437   -2.5273    4.4940 F   0  0  0  0  0  0  0  0  0  0  0  0
   -4.2292   -2.5950    2.2738 F   0  0  0  0  0  0  0  0  0  0  0  0
   -1.6707   -1.6476    2.9283 O   0  0  0  0  0  0  0  0  0  0  0  0
   -1.5559   -2.3278    1.7291 C   0  0  0  0  0  0  0  0  0  0  0  0
   -0.8963   -3.6014    1.7153 N   0  0  0  0  0  0  0  0  0  0  0  0
   -2.0372   -1.8081    0.6682 N   0  0  0  0  0  0  0  0  0  0  0  0
   -3.8035   -0.3978   -1.2933 H   0  0  0  0  0  0  0  0  0  0  0  0
   -4.2199   -1.8305   -0.2979 H   0  0  0  0  0  0  0  0  0  0  0  0
   -4.8202   -0.2237    0.2293 H   0  0  0  0  0  0  0  0  0  0  0  0
   -0.2287   -0.7358   -0.5347 H   0  0  0  0  0  0  0  0  0  0  0  0
    1.4970    0.6704   -2.8170 H   0  0  0  0  0  0  0  0  0  0  0  0
    4.8233    1.8248    0.2158 H   0  0  0  0  0  0  0  0  0  0  0  0
    7.1353    1.5624   -0.6106 H   0  0  0  0  0  0  0  0  0  0  0  0
    5.5359    0.1351   -4.2572 H   0  0  0  0  0  0  0  0  0  0  0  0
    0.0269    3.2751   -1.9039 H   0  0  0  0  0  0  0  0  0  0  0  0
   -2.1989    3.7554   -0.9757 H   0  0  0  0  0  0  0  0  0  0  0  0
   -2.6356    0.9801    2.1018 H   0  0  0  0  0  0  0  0  0  0  0  0
   -4.2493    0.1769    1.9397 H   0  0  0  0  0  0  0  0  0  0  0  0
   -2.7281   -0.2185    4.0377 H   0  0  0  0  0  0  0  0  0  0  0  0
    0.0265   -3.7354    2.1488 H   0  0  0  0  0  0  0  0  0  0  0  0
   -1.3727   -4.3929    1.2552 H   0  0  0  0  0  0  0  0  0  0  0  0
  2  1  1  6
  2  3  1  0
  3  4  2  0
  4  5  1  0
  5  6  1  0
  6  7  1  0
  7  8  2  0
  7  9  1  0
  9 10  2  0
 10 11  1  0
 11 12  2  0
 12 13  1  0
 13 14  3  0
 12 15  1  0
 15 16  2  0
  5 17  2  0
 17 18  1  0
 18 19  2  0
 19 20  1  0
  2 21  1  0
 21 22  1  0
 22 23  1  0
 23 24  1  0
 23 25  1  0
 23 26  1  0
 22 27  1  0
 27 28  1  0
 28 29  1  0
 28 30  2  0
 30  2  1  0
 19  3  1  0
 16  9  1  0
  1 31  1  0
  1 32  1  0
  1 33  1  0
  4 34  1  0
  6 35  1  0
 10 36  1  0
 11 37  1  0
 15 38  1  0
 17 39  1  0
 18 40  1  0
 21 41  1  0
 21 42  1  0
 22 43  1  1
 29 44  1  0
 29 45  1  0
M  END
$$$$
