@<TRIPOS>MOLECULE
*****
 45 47 0 0 0
SMALL
GASTEIGER

@<TRIPOS>ATOM
      1 C          -3.9795   -0.7514   -0.2470 C.3     1  UNL1       -0.0352
      2 C          -2.6992   -0.5601    0.6011 C.3     1  UNL1        0.0951
      3 C          -1.9012    0.4824   -0.1040 C.ar    1  UNL1        0.0168
      4 C          -0.6575    0.2504   -0.6333 C.ar    1  UNL1       -0.0323
      5 C           0.0440    1.2222   -1.2751 C.ar    1  UNL1        0.0342
      6 N           1.3613    1.0198   -1.8445 N.am    1  UNL1       -0.2802
      7 C           2.5236    1.2986   -1.0731 C.2     1  UNL1        0.2666
      8 O           2.2985    1.7223    0.1147 O.2     1  UNL1       -0.2682
      9 C           3.8874    1.1344   -1.5461 C.ar    1  UNL1        0.1257
     10 C           4.9824    1.4507   -0.7764 C.ar    1  UNL1       -0.0300
     11 C           6.2776    1.3088   -1.2223 C.ar    1  UNL1       -0.0407
     12 C           6.4606    0.8274   -2.4987 C.ar    1  UNL1        0.0699
     13 C           7.8520    0.6811   -2.9430 C.1     1  UNL1        0.1007
     14 N           8.9055    0.5790   -3.2918 N.1     1  UNL1       -0.1908
     15 C           5.3861    0.5105   -3.2688 C.ar    1  UNL1        0.0458
     16 N           4.1165    0.6694   -2.7805 N.ar    1  UNL1       -0.2491
     17 C          -0.5288    2.4790   -1.3884 C.ar    1  UNL1       -0.0377
     18 C          -1.7735    2.7588   -0.8729 C.ar    1  UNL1       -0.0243
     19 C          -2.4556    1.7357   -0.2252 C.ar    1  UNL1        0.1290
     20 F          -3.6806    1.9965    0.2877 F       1  UNL1       -0.2051
     21 C          -3.1371   -0.0107    1.9187 C.3     1  UNL1        0.0223
     22 C          -2.8234   -0.8540    3.1117 C.3     1  UNL1        0.1997
     23 C          -4.0030   -1.7773    3.3463 C.3     1  UNL1        0.4266
     24 F          -5.1111   -0.9528    3.5641 F       1  UNL1       -0.1669
     25 F          -3.7437   -2.5273    4.4940 F       1  UNL1       -0.1669
     26 F          -4.2292   -2.5950    2.2738 F       1  UNL1       -0.1669
     27 O          -1.6707   -1.6476    2.9283 O.2     1  UNL1       -0.4534
     28 C          -1.5559   -2.3278    1.7291 C.2     1  UNL1        0.2765
     29 N          -0.8963   -3.6014    1.7153 N.pl3   1  UNL1       -0.3134
     30 N          -2.0372   -1.8081    0.6682 N.2     1  UNL1       -0.2257
     31 H          -3.8035   -0.3978   -1.2933 H       1  UNL1        0.0256
     32 H          -4.2199   -1.8305   -0.2979 H       1  UNL1        0.0256
     33 H          -4.8202   -0.2237    0.2293 H       1  UNL1        0.0256
     34 H          -0.2287   -0.7358   -0.5347 H       1  UNL1        0.0640
     35 H           1.4970    0.6704   -2.8170 H       1  UNL1        0.1552
     36 H           4.8233    1.8248    0.2158 H       1  UNL1        0.0641
     37 H           7.1353    1.5624   -0.6106 H       1  UNL1        0.0631
     38 H           5.5359    0.1351   -4.2572 H       1  UNL1        0.0843
     39 H           0.0269    3.2751   -1.9039 H       1  UNL1        0.0637
     40 H          -2.1989    3.7554   -0.9757 H       1  UNL1        0.0647
     41 H          -2.6356    0.9801    2.1018 H       1  UNL1        0.0330
     42 H          -4.2493    0.1769    1.9397 H       1  UNL1        0.0330
     43 H          -2.7281   -0.2185    4.0377 H       1  UNL1        0.0826
     44 H           0.0265   -3.7354    2.1488 H       1  UNL1        0.1466
     45 H          -1.3727   -4.3929    1.2552 H       1  UNL1        0.1466
@<TRIPOS>BOND
     1     2     1    1
     2     2     3    1
     3     3     4   ar
     4     4     5   ar
     5     5     6    1
     6     6     7   am
     7     7     8    2
     8     7     9    1
     9     9    10   ar
    10    10    11   ar
    11    11    12   ar
    12    12    13    1
    13    13    14    3
    14    12    15   ar
    15    15    16   ar
    16     5    17   ar
    17    17    18   ar
    18    18    19   ar
    19    19    20    1
    20     2    21    1
    21    21    22    1
    22    22    23    1
    23    23    24    1
    24    23    25    1
    25    23    26    1
    26    22    27    1
    27    27    28    1
    28    28    29    1
    29    28    30    2
    30    30     2    1
    31    19     3   ar
    32    16     9   ar
    33     1    31    1
    34     1    32    1
    35     1    33    1
    36     4    34    1
    37     6    35    1
    38    10    36    1
    39    11    37    1
    40    15    38    1
    41    17    39    1
    42    18    40    1
    43    21    41    1
    44    21    42    1
    45    22    43    1
    46    29    44    1
    47    29    45    1
