
     RDKit          3D

 66 69  0  0  0  0  0  0  0  0999 V2000
    6.1176    2.1736    3.2199 C   0  0  0  0  0  0  0  0  0  0  0  0
    7.0150    1.4795    2.3752 O   0  0  0  0  0  0  0  0  0  0  0  0
    6.5519    1.0713    1.1341 C   0  0  0  0  0  0  0  0  0  0  0  0
    5.2668    1.3063    0.6778 C   0  0  0  0  0  0  0  0  0  0  0  0
    4.8673    0.8757   -0.5607 C   0  0  0  0  0  0  0  0  0  0  0  0
    3.5109    1.1469   -0.9442 N   0  0  0  0  0  0  0  0  0  0  0  0
    2.5914    0.0740   -0.8128 C   0  0  0  0  0  0  0  0  0  0  0  0
    2.9575   -1.1006   -0.3197 N   0  0  0  0  0  0  0  0  0  0  0  0
    2.1369   -2.1713   -0.1625 C   0  0  0  0  0  0  0  0  0  0  0  0
    0.8269   -1.9300   -0.5749 C   0  0  0  0  0  0  0  0  0  0  0  0
   -0.0832   -2.9398   -0.4541 F   0  0  0  0  0  0  0  0  0  0  0  0
    0.4070   -0.7393   -1.0869 C   0  0  0  0  0  0  0  0  0  0  0  0
   -0.9275   -0.6023   -1.5019 N   0  0  0  0  0  0  0  0  0  0  0  0
   -2.0360   -0.6122   -0.5788 C   0  0  0  0  0  0  0  0  0  0  0  0
   -1.8432   -0.7057    0.7845 C   0  0  0  0  0  0  0  0  0  0  0  0
   -2.8624   -0.7563    1.7048 C   0  0  0  0  0  0  0  0  0  0  0  0
   -4.1805   -0.7120    1.2263 C   0  0  0  0  0  0  0  0  0  0  0  0
   -4.3350   -0.6199   -0.1391 C   0  0  0  0  0  0  0  0  0  0  0  0
   -3.3049   -0.5716   -1.0010 N   0  0  0  0  0  0  0  0  0  0  0  0
   -5.6921   -0.6311   -0.6338 N   0  0  0  0  0  0  0  0  0  0  0  0
   -5.8537   -0.5185   -2.0491 C   0  0  0  0  0  0  0  0  0  0  0  0
   -5.9193    0.7454   -2.5592 O   0  0  0  0  0  0  0  0  0  0  0  0
   -7.1422    1.7413   -2.0702 P   0  0  0  0  0  5  0  0  0  0  0  0
   -8.5068    1.1500   -2.4389 O   0  0  0  0  0  0  0  0  0  0  0  0
   -7.1013    2.1548   -0.4519 O   0  0  0  0  0  0  0  0  0  0  0  0
   -7.1010    3.2282   -2.9530 O   0  0  0  0  0  0  0  0  0  0  0  0
   -6.7880   -0.7366    0.2490 C   0  0  0  0  0  0  0  0  0  0  0  0
   -7.9753   -0.7376   -0.1508 O   0  0  0  0  0  0  0  0  0  0  0  0
   -6.5509   -0.8531    1.6987 C   0  0  0  0  0  0  0  0  0  0  0  0
   -7.0106   -2.2774    2.0950 C   0  0  0  0  0  0  0  0  0  0  0  0
   -7.4636    0.1221    2.4197 C   0  0  0  0  0  0  0  0  0  0  0  0
   -5.2328   -0.7572    2.0895 O   0  0  0  0  0  0  0  0  0  0  0  0
    1.3080    0.2729   -1.2040 N   0  0  0  0  0  0  0  0  0  0  0  0
    5.7655    0.2035   -1.3469 C   0  0  0  0  0  0  0  0  0  0  0  0
    7.0599   -0.0610   -0.9424 C   0  0  0  0  0  0  0  0  0  0  0  0
    7.9681   -0.7422   -1.7414 O   0  0  0  0  0  0  0  0  0  0  0  0
    7.5240   -1.1710   -3.0156 C   0  0  0  0  0  0  0  0  0  0  0  0
    7.4392    0.3807    0.3052 C   0  0  0  0  0  0  0  0  0  0  0  0
    8.7162    0.1391    0.7559 O   0  0  0  0  0  0  0  0  0  0  0  0
    9.7336    1.0754    0.5103 C   0  0  0  0  0  0  0  0  0  0  0  0
    6.6215    2.5119    4.1540 H   0  0  0  0  0  0  0  0  0  0  0  0
    5.5925    3.0011    2.7144 H   0  0  0  0  0  0  0  0  0  0  0  0
    5.3139    1.4632    3.5509 H   0  0  0  0  0  0  0  0  0  0  0  0
    4.6075    1.8416    1.3430 H   0  0  0  0  0  0  0  0  0  0  0  0
    3.2320    2.0919   -1.2975 H   0  0  0  0  0  0  0  0  0  0  0  0
    2.4608   -3.1098    0.2399 H   0  0  0  0  0  0  0  0  0  0  0  0
   -1.1364   -0.4915   -2.5137 H   0  0  0  0  0  0  0  0  0  0  0  0
   -0.7950   -0.7385    1.1114 H   0  0  0  0  0  0  0  0  0  0  0  0
   -2.6950   -0.8298    2.7634 H   0  0  0  0  0  0  0  0  0  0  0  0
   -6.7522   -1.1037   -2.3923 H   0  0  0  0  0  0  0  0  0  0  0  0
   -5.0050   -1.0299   -2.6025 H   0  0  0  0  0  0  0  0  0  0  0  0
   -8.0079    2.0595   -0.0302 H   0  0  0  0  0  0  0  0  0  0  0  0
   -6.3524    3.7948   -2.5936 H   0  0  0  0  0  0  0  0  0  0  0  0
   -6.7750   -2.9805    1.2698 H   0  0  0  0  0  0  0  0  0  0  0  0
   -6.4961   -2.6085    2.9992 H   0  0  0  0  0  0  0  0  0  0  0  0
   -8.0960   -2.3035    2.2796 H   0  0  0  0  0  0  0  0  0  0  0  0
   -7.3944   -0.0546    3.5100 H   0  0  0  0  0  0  0  0  0  0  0  0
   -7.1832    1.1478    2.1129 H   0  0  0  0  0  0  0  0  0  0  0  0
   -8.5090   -0.1343    2.1437 H   0  0  0  0  0  0  0  0  0  0  0  0
    5.4263   -0.1332   -2.3244 H   0  0  0  0  0  0  0  0  0  0  0  0
    7.0893   -0.2925   -3.5831 H   0  0  0  0  0  0  0  0  0  0  0  0
    6.7035   -1.8927   -2.8970 H   0  0  0  0  0  0  0  0  0  0  0  0
    8.3232   -1.6606   -3.6009 H   0  0  0  0  0  0  0  0  0  0  0  0
    9.4968    1.6768   -0.3864 H   0  0  0  0  0  0  0  0  0  0  0  0
   10.7375    0.5911    0.4256 H   0  0  0  0  0  0  0  0  0  0  0  0
    9.7396    1.7896    1.3730 H   0  0  0  0  0  0  0  0  0  0  0  0
  1  2  1  0
  2  3  1  0
  3  4  2  0
  4  5  1  0
  5  6  1  0
  6  7  1  0
  7  8  2  0
  8  9  1  0
  9 10  2  0
 10 11  1  0
 10 12  1  0
 12 13  1  0
 13 14  1  0
 14 15  2  0
 15 16  1  0
 16 17  2  0
 17 18  1  0
 18 19  2  0
 18 20  1  0
 20 21  1  0
 21 22  1  0
 22 23  1  0
 23 24  2  0
 23 25  1  0
 23 26  1  0
 20 27  1  0
 27 28  2  0
 27 29  1  0
 29 30  1  0
 29 31  1  0
 29 32  1  0
 12 33  2  0
  5 34  2  0
 34 35  1  0
 35 36  1  0
 36 37  1  0
 35 38  2  0
 38 39  1  0
 39 40  1  0
 38  3  1  0
 33  7  1  0
 19 14  1  0
 32 17  1  0
  1 41  1  0
  1 42  1  0
  1 43  1  0
  4 44  1  0
  6 45  1  0
  9 46  1  0
 13 47  1  0
 15 48  1  0
 16 49  1  0
 21 50  1  0
 21 51  1  0
 25 52  1  0
 26 53  1  0
 30 54  1  0
 30 55  1  0
 30 56  1  0
 31 57  1  0
 31 58  1  0
 31 59  1  0
 34 60  1  0
 37 61  1  0
 37 62  1  0
 37 63  1  0
 40 64  1  0
 40 65  1  0
 40 66  1  0
M  END
$$$$
