@<TRIPOS>MOLECULE
*****
 66 69 0 0 0
SMALL
GASTEIGER

@<TRIPOS>ATOM
      1 C           6.1176    2.1736    3.2199 C.3     1  UNL1        0.0790
      2 O           7.0150    1.4795    2.3752 O.3     1  UNL1       -0.4913
      3 C           6.5519    1.0713    1.1341 C.ar    1  UNL1        0.1669
      4 C           5.2668    1.3063    0.6778 C.ar    1  UNL1        0.0052
      5 C           4.8673    0.8757   -0.5607 C.ar    1  UNL1        0.0407
      6 N           3.5109    1.1469   -0.9442 N.pl3   1  UNL1       -0.2833
      7 C           2.5914    0.0740   -0.8128 C.ar    1  UNL1        0.2213
      8 N           2.9575   -1.1006   -0.3197 N.ar    1  UNL1       -0.2197
      9 C           2.1369   -2.1713   -0.1625 C.ar    1  UNL1        0.0698
     10 C           0.8269   -1.9300   -0.5749 C.ar    1  UNL1        0.1813
     11 F          -0.0832   -2.9398   -0.4541 F       1  UNL1       -0.2003
     12 C           0.4070   -0.7393   -1.0869 C.ar    1  UNL1        0.1647
     13 N          -0.9275   -0.6023   -1.5019 N.pl3   1  UNL1       -0.2819
     14 C          -2.0360   -0.6122   -0.5788 C.ar    1  UNL1        0.1264
     15 C          -1.8432   -0.7057    0.7845 C.ar    1  UNL1       -0.0179
     16 C          -2.8624   -0.7563    1.7048 C.ar    1  UNL1       -0.0132
     17 C          -4.1805   -0.7120    1.2263 C.ar    1  UNL1        0.1623
     18 C          -4.3350   -0.6199   -0.1391 C.ar    1  UNL1        0.1736
     19 N          -3.3049   -0.5716   -1.0010 N.ar    1  UNL1       -0.2130
     20 N          -5.6921   -0.6311   -0.6338 N.am    1  UNL1       -0.2251
     21 C          -5.8537   -0.5185   -2.0491 C.3     1  UNL1        0.1330
     22 O          -5.9193    0.7454   -2.5592 O.3     1  UNL1       -0.2670
     23 P          -7.1422    1.7413   -2.0702 P.3     1  UNL1        0.4739
     24 O          -8.5068    1.1500   -2.4389 O.2     1  UNL1       -0.2275
     25 O          -7.1013    2.1548   -0.4519 O.3     1  UNL1       -0.3026
     26 O          -7.1010    3.2282   -2.9530 O.3     1  UNL1       -0.3026
     27 C          -6.7880   -0.7366    0.2490 C.2     1  UNL1        0.2660
     28 O          -7.9753   -0.7376   -0.1508 O.2     1  UNL1       -0.2708
     29 C          -6.5509   -0.8531    1.6987 C.3     1  UNL1        0.1807
     30 C          -7.0106   -2.2774    2.0950 C.3     1  UNL1       -0.0164
     31 C          -7.4636    0.1221    2.4197 C.3     1  UNL1       -0.0164
     32 O          -5.2328   -0.7572    2.0895 O.3     1  UNL1       -0.4736
     33 N           1.3080    0.2729   -1.2040 N.ar    1  UNL1       -0.1962
     34 C           5.7655    0.2035   -1.3469 C.ar    1  UNL1        0.0052
     35 C           7.0599   -0.0610   -0.9424 C.ar    1  UNL1        0.1669
     36 O           7.9681   -0.7422   -1.7414 O.3     1  UNL1       -0.4913
     37 C           7.5240   -1.1710   -3.0156 C.3     1  UNL1        0.0790
     38 C           7.4392    0.3807    0.3052 C.ar    1  UNL1        0.2036
     39 O           8.7162    0.1391    0.7559 O.3     1  UNL1       -0.4885
     40 C           9.7336    1.0754    0.5103 C.3     1  UNL1        0.0791
     41 H           6.6215    2.5119    4.1540 H       1  UNL1        0.0660
     42 H           5.5925    3.0011    2.7144 H       1  UNL1        0.0660
     43 H           5.3139    1.4632    3.5509 H       1  UNL1        0.0660
     44 H           4.6075    1.8416    1.3430 H       1  UNL1        0.0674
     45 H           3.2320    2.0919   -1.2975 H       1  UNL1        0.1550
     46 H           2.4608   -3.1098    0.2399 H       1  UNL1        0.0861
     47 H          -1.1364   -0.4915   -2.5137 H       1  UNL1        0.1551
     48 H          -0.7950   -0.7385    1.1114 H       1  UNL1        0.0653
     49 H          -2.6950   -0.8298    2.7634 H       1  UNL1        0.0656
     50 H          -6.7522   -1.1037   -2.3923 H       1  UNL1        0.0781
     51 H          -5.0050   -1.0299   -2.6025 H       1  UNL1        0.0781
     52 H          -8.0079    2.0595   -0.0302 H       1  UNL1        0.2220
     53 H          -6.3524    3.7948   -2.5936 H       1  UNL1        0.2220
     54 H          -6.7750   -2.9805    1.2698 H       1  UNL1        0.0273
     55 H          -6.4961   -2.6085    2.9992 H       1  UNL1        0.0273
     56 H          -8.0960   -2.3035    2.2796 H       1  UNL1        0.0273
     57 H          -7.3944   -0.0546    3.5100 H       1  UNL1        0.0273
     58 H          -7.1832    1.1478    2.1129 H       1  UNL1        0.0273
     59 H          -8.5090   -0.1343    2.1437 H       1  UNL1        0.0273
     60 H           5.4263   -0.1332   -2.3244 H       1  UNL1        0.0674
     61 H           7.0893   -0.2925   -3.5831 H       1  UNL1        0.0660
     62 H           6.7035   -1.8927   -2.8970 H       1  UNL1        0.0660
     63 H           8.3232   -1.6606   -3.6009 H       1  UNL1        0.0660
     64 H           9.4968    1.6768   -0.3864 H       1  UNL1        0.0660
     65 H          10.7375    0.5911    0.4256 H       1  UNL1        0.0660
     66 H           9.7396    1.7896    1.3730 H       1  UNL1        0.0660
@<TRIPOS>BOND
     1     1     2    1
     2     2     3    1
     3     3     4   ar
     4     4     5   ar
     5     5     6    1
     6     6     7    1
     7     7     8   ar
     8     8     9   ar
     9     9    10   ar
    10    10    11    1
    11    10    12   ar
    12    12    13    1
    13    13    14    1
    14    14    15   ar
    15    15    16   ar
    16    16    17   ar
    17    17    18   ar
    18    18    19   ar
    19    18    20    1
    20    20    21    1
    21    21    22    1
    22    22    23    1
    23    23    24    2
    24    23    25    1
    25    23    26    1
    26    20    27   am
    27    27    28    2
    28    27    29    1
    29    29    30    1
    30    29    31    1
    31    29    32    1
    32    12    33   ar
    33     5    34   ar
    34    34    35   ar
    35    35    36    1
    36    36    37    1
    37    35    38   ar
    38    38    39    1
    39    39    40    1
    40    38     3   ar
    41    33     7   ar
    42    19    14   ar
    43    32    17    1
    44     1    41    1
    45     1    42    1
    46     1    43    1
    47     4    44    1
    48     6    45    1
    49     9    46    1
    50    13    47    1
    51    15    48    1
    52    16    49    1
    53    21    50    1
    54    21    51    1
    55    25    52    1
    56    26    53    1
    57    30    54    1
    58    30    55    1
    59    30    56    1
    60    31    57    1
    61    31    58    1
    62    31    59    1
    63    34    60    1
    64    37    61    1
    65    37    62    1
    66    37    63    1
    67    40    64    1
    68    40    65    1
    69    40    66    1
