@<TRIPOS>MOLECULE
*****
 76 81 0 0 0
SMALL
GASTEIGER

@<TRIPOS>ATOM
      1 C          -1.6608   -4.3426   -3.2532 C.3     1  UNL1        0.0805
      2 O          -1.5105   -3.5731   -2.0706 O.3     1  UNL1       -0.4773
      3 C          -2.0921   -3.9404   -0.8668 C.ar    1  UNL1        0.2563
      4 N          -2.8231   -5.0682   -0.8289 N.ar    1  UNL1       -0.2169
      5 C          -3.3944   -5.4362    0.3368 C.ar    1  UNL1        0.0496
      6 C          -3.2132   -4.6544    1.4393 C.ar    1  UNL1        0.0480
      7 N          -2.4684   -3.5176    1.3733 N.ar    1  UNL1       -0.2335
      8 C          -1.8886   -3.1272    0.2275 C.ar    1  UNL1        0.1923
      9 N          -1.1233   -1.9373    0.2071 N.am    1  UNL1       -0.2199
     10 C           0.2915   -1.8771    0.4994 C.2     1  UNL1        0.3220
     11 O           0.8486   -2.7144    1.2574 O.2     1  UNL1       -0.2512
     12 N           0.8336   -0.7655   -0.2016 N.am    1  UNL1       -0.1920
     13 C           2.1939   -0.3299   -0.2094 C.ar    1  UNL1        0.0455
     14 C           3.1802   -0.9872    0.4872 C.ar    1  UNL1       -0.0392
     15 C           4.5125   -0.5906    0.4988 C.ar    1  UNL1       -0.0523
     16 C           4.8824    0.5219   -0.2231 C.ar    1  UNL1       -0.0175
     17 C           6.2842    0.8898   -0.1955 C.ar    1  UNL1       -0.0149
     18 C           7.2474   -0.0865   -0.4501 C.ar    1  UNL1       -0.0530
     19 C           8.5589    0.2819   -0.4312 C.ar    1  UNL1       -0.0472
     20 C           8.9848    1.5694   -0.1735 C.ar    1  UNL1        0.0591
     21 C          10.3921    1.9402   -0.1584 C.2     1  UNL1        0.3368
     22 O          10.7277    3.1070    0.0770 O.2     1  UNL1       -0.2451
     23 O          11.3332    0.9613   -0.4122 O.3     1  UNL1       -0.4771
     24 C           7.9996    2.5023    0.0731 C.ar    1  UNL1       -0.0443
     25 C           6.6473    2.1856    0.0674 C.ar    1  UNL1       -0.0420
     26 C           5.6162    3.2217    0.3507 C.3     1  UNL1       -0.0391
     27 C           3.9034    1.1826   -0.9203 C.ar    1  UNL1       -0.0523
     28 C           2.5678    0.7755   -0.9250 C.ar    1  UNL1       -0.0392
     29 C          -0.2611   -0.1797   -0.9004 C.2     1  UNL1        0.2516
     30 O          -0.2299    0.5026   -1.9501 O.2     1  UNL1       -0.2724
     31 C          -1.4716   -0.5647   -0.0933 C.3     1  UNL1        0.1242
     32 C          -1.4319    0.3137    1.1300 C.3     1  UNL1       -0.0095
     33 C          -2.7116    0.1689    1.8863 C.3     1  UNL1        0.0017
     34 N          -3.8254    0.5384    1.0684 N.3     1  UNL1       -0.2965
     35 C          -4.4375    1.7226    1.6081 C.3     1  UNL1        0.0415
     36 C          -5.6049    2.1686    0.8029 C.ar    1  UNL1        0.0581
     37 N          -5.4394    3.2274    0.0018 N.ar    1  UNL1       -0.2583
     38 C          -6.4660    3.6777   -0.7549 C.ar    1  UNL1        0.0279
     39 C          -7.6779    3.0389   -0.6933 C.ar    1  UNL1       -0.0433
     40 C          -7.8501    1.9544    0.1264 C.ar    1  UNL1       -0.0557
     41 C          -6.7973    1.5003    0.8962 C.ar    1  UNL1       -0.0279
     42 C          -6.9809    0.3248    1.7855 C.3     1  UNL1       -0.0380
     43 C          -3.4998    0.7546   -0.3064 C.3     1  UNL1        0.0017
     44 C          -2.7282   -0.4375   -0.8902 C.3     1  UNL1       -0.0095
     45 H          -1.6881   -3.6359   -4.0978 H       1  UNL1        0.0660
     46 H          -0.7995   -5.0325   -3.3323 H       1  UNL1        0.0660
     47 H          -2.6311   -4.8776   -3.2344 H       1  UNL1        0.0660
     48 H          -3.9725   -6.3508    0.3167 H       1  UNL1        0.0846
     49 H          -3.6756   -4.9585    2.3692 H       1  UNL1        0.0846
     50 H           2.9593   -1.8812    1.0843 H       1  UNL1        0.0636
     51 H           5.2494   -1.1600    1.0763 H       1  UNL1        0.0624
     52 H           6.9430   -1.0979   -0.6538 H       1  UNL1        0.0624
     53 H           9.3669   -0.4400   -0.6234 H       1  UNL1        0.0626
     54 H          12.2800    1.1952   -0.7371 H       1  UNL1        0.2954
     55 H           8.2930    3.5308    0.2813 H       1  UNL1        0.0628
     56 H           5.9911    3.9158    1.1393 H       1  UNL1        0.0278
     57 H           4.6725    2.8152    0.7240 H       1  UNL1        0.0278
     58 H           5.4026    3.8475   -0.5362 H       1  UNL1        0.0278
     59 H           4.1776    2.0504   -1.4918 H       1  UNL1        0.0624
     60 H           1.8549    1.3539   -1.5010 H       1  UNL1        0.0636
     61 H          -1.2612    1.3564    0.7640 H       1  UNL1        0.0303
     62 H          -0.5451   -0.0067    1.7481 H       1  UNL1        0.0303
     63 H          -2.6620    0.8374    2.7963 H       1  UNL1        0.0427
     64 H          -2.7995   -0.8940    2.1988 H       1  UNL1        0.0427
     65 H          -3.6911    2.5464    1.7081 H       1  UNL1        0.0491
     66 H          -4.8258    1.5536    2.6399 H       1  UNL1        0.0491
     67 H          -6.3417    4.5424   -1.4133 H       1  UNL1        0.0829
     68 H          -8.4961    3.4059   -1.3035 H       1  UNL1        0.0633
     69 H          -8.8087    1.4278    0.1925 H       1  UNL1        0.0621
     70 H          -6.4215   -0.5688    1.4114 H       1  UNL1        0.0278
     71 H          -8.0512    0.0349    1.7853 H       1  UNL1        0.0278
     72 H          -6.7134    0.5647    2.8327 H       1  UNL1        0.0278
     73 H          -4.4050    0.8628   -0.9110 H       1  UNL1        0.0427
     74 H          -2.8691    1.6509   -0.4815 H       1  UNL1        0.0427
     75 H          -2.5448   -0.1749   -1.9537 H       1  UNL1        0.0303
     76 H          -3.4046   -1.3155   -0.7772 H       1  UNL1        0.0303
@<TRIPOS>BOND
     1     1     2    1
     2     2     3    1
     3     3     4   ar
     4     4     5   ar
     5     5     6   ar
     6     6     7   ar
     7     7     8   ar
     8     8     9    1
     9     9    10   am
    10    10    11    2
    11    10    12   am
    12    12    13    1
    13    13    14   ar
    14    14    15   ar
    15    15    16   ar
    16    16    17    1
    17    17    18   ar
    18    18    19   ar
    19    19    20   ar
    20    20    21    1
    21    21    22    2
    22    21    23    1
    23    20    24   ar
    24    24    25   ar
    25    25    26    1
    26    16    27   ar
    27    27    28   ar
    28    12    29   am
    29    29    30    2
    30    29    31    1
    31    31    32    1
    32    32    33    1
    33    33    34    1
    34    34    35    1
    35    35    36    1
    36    36    37   ar
    37    37    38   ar
    38    38    39   ar
    39    39    40   ar
    40    40    41   ar
    41    41    42    1
    42    34    43    1
    43    43    44    1
    44     8     3   ar
    45    31     9    1
    46    41    36   ar
    47    28    13   ar
    48    44    31    1
    49    25    17   ar
    50     1    45    1
    51     1    46    1
    52     1    47    1
    53     5    48    1
    54     6    49    1
    55    14    50    1
    56    15    51    1
    57    18    52    1
    58    19    53    1
    59    23    54    1
    60    24    55    1
    61    26    56    1
    62    26    57    1
    63    26    58    1
    64    27    59    1
    65    28    60    1
    66    32    61    1
    67    32    62    1
    68    33    63    1
    69    33    64    1
    70    35    65    1
    71    35    66    1
    72    38    67    1
    73    39    68    1
    74    40    69    1
    75    42    70    1
    76    42    71    1
    77    42    72    1
    78    43    73    1
    79    43    74    1
    80    44    75    1
    81    44    76    1
