
     RDKit          3D

 45 48  0  0  0  0  0  0  0  0999 V2000
   -1.4039   -0.6759    0.1615 C   0  0  2  0  0  0  0  0  0  0  0  0
   -2.4818   -1.3151   -0.6172 C   0  0  0  0  0  0  0  0  0  0  0  0
   -3.6339   -1.1214    0.3758 C   0  0  1  0  0  0  0  0  0  0  0  0
   -3.3715   -1.9805    1.4442 O   0  0  0  0  0  0  0  0  0  0  0  0
   -3.4055    0.2980    0.8632 C   0  0  1  0  0  0  0  0  0  0  0  0
   -3.7312    0.4642    2.1899 O   0  0  0  0  0  0  0  0  0  0  0  0
   -2.0196    0.6887    0.5077 C   0  0  2  0  0  0  0  0  0  0  0  0
   -2.0141    1.6271   -0.6605 C   0  0  0  0  0  0  0  0  0  0  0  0
   -1.1991    1.1841    1.6601 C   0  0  0  0  0  0  0  0  0  0  0  0
    0.2376    1.3292    1.2973 C   0  0  0  0  0  0  0  0  0  0  0  0
    0.7797    0.0952    0.6408 C   0  0  2  0  0  0  0  0  0  0  0  0
    2.1593    0.2446    0.1892 C   0  0  0  0  0  0  0  0  0  0  0  0
    2.7290   -0.7775   -0.5487 C   0  0  0  0  0  0  0  0  0  0  0  0
    1.8193   -1.9354   -0.7900 C   0  0  0  0  0  0  0  0  0  0  0  0
    0.4963   -1.4200   -1.3287 C   0  0  0  0  0  0  0  0  0  0  0  0
   -0.1339   -0.3636   -0.5079 C   0  0  1  0  0  0  0  0  0  0  0  0
    4.0217   -0.7344   -1.0211 C   0  0  0  0  0  0  0  0  0  0  0  0
    4.7672    0.4025   -0.7279 C   0  0  0  0  0  0  0  0  0  0  0  0
    6.0651    0.3810   -1.2352 O   0  0  0  0  0  0  0  0  0  0  0  0
    4.2258    1.4395    0.0068 C   0  0  0  0  0  0  0  0  0  0  0  0
    2.9190    1.3788    0.4757 C   0  0  0  0  0  0  0  0  0  0  0  0
   -1.2701   -1.2200    1.1082 H   0  0  0  0  0  0  0  0  0  0  0  0
   -2.2320   -2.3963   -0.7239 H   0  0  0  0  0  0  0  0  0  0  0  0
   -2.7282   -0.8563   -1.5748 H   0  0  0  0  0  0  0  0  0  0  0  0
   -4.6115   -1.2760   -0.0941 H   0  0  0  0  0  0  0  0  0  0  0  0
   -2.6951   -2.6801    1.2063 H   0  0  0  0  0  0  0  0  0  0  0  0
   -4.1359    0.9198    0.2684 H   0  0  0  0  0  0  0  0  0  0  0  0
   -4.5865    0.9285    2.3232 H   0  0  0  0  0  0  0  0  0  0  0  0
   -1.1522    2.3238   -0.6915 H   0  0  0  0  0  0  0  0  0  0  0  0
   -2.1629    1.1117   -1.6377 H   0  0  0  0  0  0  0  0  0  0  0  0
   -2.9058    2.3088   -0.5338 H   0  0  0  0  0  0  0  0  0  0  0  0
   -1.3572    0.4813    2.5094 H   0  0  0  0  0  0  0  0  0  0  0  0
   -1.5762    2.1651    2.0447 H   0  0  0  0  0  0  0  0  0  0  0  0
    0.8125    1.4508    2.2504 H   0  0  0  0  0  0  0  0  0  0  0  0
    0.4205    2.2526    0.7316 H   0  0  0  0  0  0  0  0  0  0  0  0
    0.7476   -0.7265    1.3879 H   0  0  0  0  0  0  0  0  0  0  0  0
    1.5679   -2.4528    0.1624 H   0  0  0  0  0  0  0  0  0  0  0  0
    2.2340   -2.6501   -1.5038 H   0  0  0  0  0  0  0  0  0  0  0  0
    0.7396   -1.0788   -2.3739 H   0  0  0  0  0  0  0  0  0  0  0  0
   -0.1740   -2.3005   -1.4997 H   0  0  0  0  0  0  0  0  0  0  0  0
   -0.2613    0.5482   -1.1592 H   0  0  0  0  0  0  0  0  0  0  0  0
    4.3701   -1.5883   -1.5889 H   0  0  0  0  0  0  0  0  0  0  0  0
    6.7660    1.0479   -1.0022 H   0  0  0  0  0  0  0  0  0  0  0  0
    4.8677    2.2965    0.1973 H   0  0  0  0  0  0  0  0  0  0  0  0
    2.4974    2.1818    1.0455 H   0  0  0  0  0  0  0  0  0  0  0  0
  1  2  1  0
  2  3  1  0
  3  4  1  0
  3  5  1  0
  5  6  1  0
  5  7  1  0
  7  8  1  6
  7  9  1  0
  9 10  1  0
 10 11  1  0
 11 12  1  0
 12 13  2  0
 13 14  1  0
 14 15  1  0
 15 16  1  0
 13 17  1  0
 17 18  2  0
 18 19  1  0
 18 20  1  0
 20 21  2  0
  7  1  1  0
 16 11  1  0
 16  1  1  0
 21 12  1  0
  1 22  1  1
  2 23  1  0
  2 24  1  0
  3 25  1  6
  4 26  1  0
  5 27  1  6
  6 28  1  0
  8 29  1  0
  8 30  1  0
  8 31  1  0
  9 32  1  0
  9 33  1  0
 10 34  1  0
 10 35  1  0
 11 36  1  1
 14 37  1  0
 14 38  1  0
 15 39  1  0
 15 40  1  0
 16 41  1  6
 17 42  1  0
 19 43  1  0
 20 44  1  0
 21 45  1  0
M  END
$$$$
