@<TRIPOS>MOLECULE
*****
 59 62 0 0 0
SMALL
GASTEIGER

@<TRIPOS>ATOM
      1 N           7.8756    1.1328   -0.4419 N.3     1  UNL1       -0.3272
      2 C           6.7268    0.5982    0.2655 C.3     1  UNL1        0.0072
      3 C           6.0671    1.7025    1.0757 C.3     1  UNL1       -0.0249
      4 C           4.5498    1.7070    0.8419 C.3     1  UNL1        0.0006
      5 N           4.3394    2.0053   -0.5272 N.3     1  UNL1       -0.2981
      6 C           3.0262    2.3560   -0.9048 C.3     1  UNL1        0.0240
      7 C           1.9955    1.3423   -0.6557 C.ar    1  UNL1       -0.0333
      8 C           1.6710    0.3901   -1.5981 C.ar    1  UNL1       -0.0566
      9 C           0.7005   -0.5697   -1.3726 C.ar    1  UNL1       -0.0493
     10 C           0.0056   -0.6112   -0.1700 C.ar    1  UNL1        0.0370
     11 C          -1.0252   -1.6400    0.0541 C.2     1  UNL1        0.2483
     12 O          -1.2701   -2.4907   -0.8685 O.2     1  UNL1       -0.2699
     13 N          -1.7790   -1.7586    1.2381 N.am    1  UNL1       -0.2808
     14 C          -2.7518   -2.7700    1.3843 C.ar    1  UNL1        0.0459
     15 C          -2.4047   -4.0147    1.9116 C.ar    1  UNL1       -0.0384
     16 C          -3.3726   -4.9911    2.0462 C.ar    1  UNL1       -0.0416
     17 C          -4.6652   -4.7133    1.6552 C.ar    1  UNL1        0.0418
     18 CL         -5.9007   -5.9279    1.8155 Cl      1  UNL1       -0.0835
     19 C          -5.0210   -3.4669    1.1254 C.ar    1  UNL1       -0.0295
     20 C          -4.0394   -2.4978    0.9965 C.ar    1  UNL1        0.0596
     21 C          -4.3619   -1.1954    0.4553 C.2     1  UNL1        0.2511
     22 O          -3.4399   -0.3412    0.3571 O.2     1  UNL1       -0.2697
     23 N          -5.6347   -0.7718    0.0147 N.am    1  UNL1       -0.2663
     24 C          -5.8949    0.5268   -0.5110 C.ar    1  UNL1        0.1252
     25 C          -5.7825    0.7981   -1.8588 C.ar    1  UNL1       -0.0201
     26 C          -6.0291    2.0462   -2.3900 C.ar    1  UNL1       -0.0387
     27 C          -6.4055    3.0644   -1.5213 C.ar    1  UNL1        0.0592
     28 CL         -6.7342    4.6718   -2.1215 Cl      1  UNL1       -0.0820
     29 C          -6.5130    2.7748   -0.1741 C.ar    1  UNL1        0.0480
     30 N          -6.2624    1.5341    0.3128 N.ar    1  UNL1       -0.2387
     31 C           0.3232    0.3340    0.7737 C.ar    1  UNL1       -0.0493
     32 C           1.3069    1.3021    0.5373 C.ar    1  UNL1       -0.0566
     33 C           5.0849    1.2263   -1.4528 C.3     1  UNL1        0.0006
     34 C           5.7751    0.0366   -0.7712 C.3     1  UNL1       -0.0249
     35 H           8.4312    0.3185   -0.8188 H       1  UNL1        0.1185
     36 H           8.5208    1.6682    0.1724 H       1  UNL1        0.1185
     37 H           7.0524   -0.2482    0.9345 H       1  UNL1        0.0459
     38 H           6.4203    2.7000    0.6838 H       1  UNL1        0.0293
     39 H           6.3263    1.6000    2.1266 H       1  UNL1        0.0293
     40 H           4.1111    0.7555    1.1824 H       1  UNL1        0.0427
     41 H           4.1636    2.5589    1.4519 H       1  UNL1        0.0427
     42 H           2.7505    3.3048   -0.3571 H       1  UNL1        0.0476
     43 H           3.0428    2.6636   -1.9825 H       1  UNL1        0.0476
     44 H           2.2070    0.4166   -2.5348 H       1  UNL1        0.0621
     45 H           0.4504   -1.3142   -2.1161 H       1  UNL1        0.0625
     46 H          -1.6194   -1.0955    2.0144 H       1  UNL1        0.1552
     47 H          -1.3990   -4.2138    2.2096 H       1  UNL1        0.0637
     48 H          -3.1783   -5.9763    2.4454 H       1  UNL1        0.0633
     49 H          -6.0412   -3.2806    0.8287 H       1  UNL1        0.0640
     50 H          -6.4195   -1.4500    0.0807 H       1  UNL1        0.1566
     51 H          -5.4821   -0.0506   -2.4842 H       1  UNL1        0.0652
     52 H          -5.9296    2.2186   -3.4550 H       1  UNL1        0.0634
     53 H          -6.8089    3.5921    0.4764 H       1  UNL1        0.0845
     54 H          -0.2109    0.3178    1.7233 H       1  UNL1        0.0625
     55 H           1.5196    2.0254    1.3150 H       1  UNL1        0.0621
     56 H           5.9413    1.8683   -1.8149 H       1  UNL1        0.0427
     57 H           4.5468    0.9199   -2.3598 H       1  UNL1        0.0427
     58 H           5.0481   -0.6288   -0.2900 H       1  UNL1        0.0293
     59 H           6.3970   -0.4590   -1.5450 H       1  UNL1        0.0293
@<TRIPOS>BOND
     1     1     2    1
     2     2     3    1
     3     3     4    1
     4     4     5    1
     5     5     6    1
     6     6     7    1
     7     7     8   ar
     8     8     9   ar
     9     9    10   ar
    10    10    11    1
    11    11    12    2
    12    11    13   am
    13    13    14    1
    14    14    15   ar
    15    15    16   ar
    16    16    17   ar
    17    17    18    1
    18    17    19   ar
    19    19    20   ar
    20    20    21    1
    21    21    22    2
    22    21    23   am
    23    23    24    1
    24    24    25   ar
    25    25    26   ar
    26    26    27   ar
    27    27    28    1
    28    27    29   ar
    29    29    30   ar
    30    10    31   ar
    31    31    32   ar
    32     5    33    1
    33    33    34    1
    34    34     2    1
    35    32     7   ar
    36    20    14   ar
    37    30    24   ar
    38     1    35    1
    39     1    36    1
    40     2    37    1
    41     3    38    1
    42     3    39    1
    43     4    40    1
    44     4    41    1
    45     6    42    1
    46     6    43    1
    47     8    44    1
    48     9    45    1
    49    13    46    1
    50    15    47    1
    51    16    48    1
    52    19    49    1
    53    23    50    1
    54    25    51    1
    55    26    52    1
    56    29    53    1
    57    31    54    1
    58    32    55    1
    59    33    56    1
    60    33    57    1
    61    34    58    1
    62    34    59    1
