
     RDKit          3D

 52 55  0  0  0  0  0  0  0  0999 V2000
    4.6338    2.0007   -2.0329 C   0  0  0  0  0  0  0  0  0  0  0  0
    4.6064    1.2575   -0.7172 C   0  0  0  0  0  0  0  0  0  0  0  0
    4.0144    0.4861   -0.0845 N   0  0  0  0  0  0  0  0  0  0  0  0
    4.2337   -0.0198    1.1087 C   0  0  0  0  0  0  0  0  0  0  0  0
    3.5102   -0.9541    1.8799 C   0  0  0  0  0  0  0  0  0  0  0  0
    2.3124   -1.5583    1.4190 N   0  0  0  0  0  0  0  0  0  0  0  0
    1.7199   -1.4527    0.1486 C   0  0  0  0  0  0  0  0  0  0  0  0
    2.3617   -1.6513   -1.0537 C   0  0  0  0  0  0  0  0  0  0  0  0
    1.6810   -1.5102   -2.2626 C   0  0  0  0  0  0  0  0  0  0  0  0
    0.3460   -1.1704   -2.3232 C   0  0  0  0  0  0  0  0  0  0  0  0
   -0.2998   -1.0369   -3.5032 F   0  0  0  0  0  0  0  0  0  0  0  0
   -0.3110   -0.9693   -1.1344 C   0  0  0  0  0  0  0  0  0  0  0  0
   -1.7773   -0.6146   -1.0762 C   0  0  2  0  0  0  0  0  0  0  0  0
   -2.5707   -1.7116   -1.7560 C   0  0  0  0  0  0  0  0  0  0  0  0
   -1.9494    0.6470   -1.8703 C   0  0  0  0  0  0  0  0  0  0  0  0
   -3.3650    1.5778   -1.3877 S   0  0  0  0  0  6  0  0  0  0  0  0
   -4.3620    1.6001   -2.5332 O   0  0  0  0  0  0  0  0  0  0  0  0
   -2.9340    2.9798   -1.0686 O   0  0  0  0  0  0  0  0  0  0  0  0
   -4.0949    0.8058    0.0263 C   0  0  0  0  0  0  0  0  0  0  0  0
   -5.2285   -0.1223   -0.3432 C   0  0  0  0  0  0  0  0  0  0  0  0
   -4.7107    1.9166    0.8582 C   0  0  0  0  0  0  0  0  0  0  0  0
   -3.0734    0.1149    0.8537 C   0  0  0  0  0  0  0  0  0  0  0  0
   -3.2257    0.1465    2.2944 N   0  0  0  0  0  0  0  0  0  0  0  0
   -2.1074   -0.4732    0.3017 N   0  0  0  0  0  0  0  0  0  0  0  0
    0.3613   -1.1077    0.0603 C   0  0  0  0  0  0  0  0  0  0  0  0
    3.9838   -1.2850    3.0968 N   0  0  0  0  0  0  0  0  0  0  0  0
    5.0780   -0.8367    3.6923 C   0  0  0  0  0  0  0  0  0  0  0  0
    5.8243    0.0902    2.9621 C   0  0  0  0  0  0  0  0  0  0  0  0
    5.3997    0.4719    1.7156 C   0  0  0  0  0  0  0  0  0  0  0  0
    6.0361    1.6063    0.4854 S   0  0  0  0  0  0  0  0  0  0  0  0
    3.8030    2.7137   -2.1005 H   0  0  0  0  0  0  0  0  0  0  0  0
    4.5086    1.2779   -2.8591 H   0  0  0  0  0  0  0  0  0  0  0  0
    5.5777    2.5689   -2.1627 H   0  0  0  0  0  0  0  0  0  0  0  0
    1.7912   -2.1623    2.1064 H   0  0  0  0  0  0  0  0  0  0  0  0
    3.3827   -1.9346   -1.0805 H   0  0  0  0  0  0  0  0  0  0  0  0
    2.1744   -1.6623   -3.2196 H   0  0  0  0  0  0  0  0  0  0  0  0
   -3.0696   -2.3754   -1.0183 H   0  0  0  0  0  0  0  0  0  0  0  0
   -1.9108   -2.2485   -2.4423 H   0  0  0  0  0  0  0  0  0  0  0  0
   -3.3833   -1.2448   -2.3463 H   0  0  0  0  0  0  0  0  0  0  0  0
   -2.0236    0.3482   -2.9555 H   0  0  0  0  0  0  0  0  0  0  0  0
   -1.0262    1.2584   -1.7720 H   0  0  0  0  0  0  0  0  0  0  0  0
   -6.1420    0.0643    0.2930 H   0  0  0  0  0  0  0  0  0  0  0  0
   -4.9784   -1.1857   -0.2029 H   0  0  0  0  0  0  0  0  0  0  0  0
   -5.5190    0.0868   -1.3763 H   0  0  0  0  0  0  0  0  0  0  0  0
   -4.0177    2.7377    1.0798 H   0  0  0  0  0  0  0  0  0  0  0  0
   -5.1247    1.4433    1.7880 H   0  0  0  0  0  0  0  0  0  0  0  0
   -5.5801    2.3166    0.2985 H   0  0  0  0  0  0  0  0  0  0  0  0
   -3.7864   -0.5116    2.8359 H   0  0  0  0  0  0  0  0  0  0  0  0
   -2.7119    0.9082    2.7790 H   0  0  0  0  0  0  0  0  0  0  0  0
   -0.1355   -0.9538    1.0182 H   0  0  0  0  0  0  0  0  0  0  0  0
    5.3519   -1.1746    4.6662 H   0  0  0  0  0  0  0  0  0  0  0  0
    6.7270    0.5024    3.3744 H   0  0  0  0  0  0  0  0  0  0  0  0
  1  2  1  0
  2  3  2  0
  3  4  1  0
  4  5  2  0
  5  6  1  0
  6  7  1  0
  7  8  2  0
  8  9  1  0
  9 10  2  0
 10 11  1  0
 10 12  1  0
 12 13  1  0
 13 14  1  6
 13 15  1  0
 15 16  1  0
 16 17  2  0
 16 18  2  0
 16 19  1  0
 19 20  1  0
 19 21  1  0
 19 22  1  0
 22 23  1  0
 22 24  2  0
 12 25  2  0
  5 26  1  0
 26 27  2  0
 27 28  1  0
 28 29  2  0
 29 30  1  0
 30  2  1  0
 29  4  1  0
 25  7  1  0
 24 13  1  0
  1 31  1  0
  1 32  1  0
  1 33  1  0
  6 34  1  0
  8 35  1  0
  9 36  1  0
 14 37  1  0
 14 38  1  0
 14 39  1  0
 15 40  1  0
 15 41  1  0
 20 42  1  0
 20 43  1  0
 20 44  1  0
 21 45  1  0
 21 46  1  0
 21 47  1  0
 23 48  1  0
 23 49  1  0
 25 50  1  0
 27 51  1  0
 28 52  1  0
M  END
$$$$
