@<TRIPOS>MOLECULE
*****
 52 55 0 0 0
SMALL
GASTEIGER

@<TRIPOS>ATOM
      1 C           4.6338    2.0007   -2.0329 C.3     1  UNL1       -0.0159
      2 C           4.6064    1.2575   -0.7172 C.ar    1  UNL1        0.0766
      3 N           4.0144    0.4861   -0.0845 N.ar    1  UNL1       -0.2408
      4 C           4.2337   -0.0198    1.1087 C.ar    1  UNL1        0.1183
      5 C           3.5102   -0.9541    1.8799 C.ar    1  UNL1        0.1496
      6 N           2.3124   -1.5583    1.4190 N.pl3   1  UNL1       -0.2977
      7 C           1.7199   -1.4527    0.1486 C.ar    1  UNL1        0.0330
      8 C           2.3617   -1.6513   -1.0537 C.ar    1  UNL1       -0.0378
      9 C           1.6810   -1.5102   -2.2626 C.ar    1  UNL1       -0.0243
     10 C           0.3460   -1.1704   -2.3232 C.ar    1  UNL1        0.1311
     11 F          -0.2998   -1.0369   -3.5032 F       1  UNL1       -0.2050
     12 C          -0.3110   -0.9693   -1.1344 C.ar    1  UNL1        0.0420
     13 C          -1.7773   -0.6146   -1.0762 C.3     1  UNL1        0.1959
     14 C          -2.5707   -1.7116   -1.7560 C.3     1  UNL1       -0.0112
     15 C          -1.9494    0.6470   -1.8703 C.3     1  UNL1        0.1183
     16 S          -3.3650    1.5778   -1.3877 S.O2    1  UNL1       -0.0101
     17 O          -4.3620    1.6001   -2.5332 O.2     1  UNL1       -0.1731
     18 O          -2.9340    2.9798   -1.0686 O.2     1  UNL1       -0.1731
     19 C          -4.0949    0.8058    0.0263 C.3     1  UNL1        0.1831
     20 C          -5.2285   -0.1223   -0.3432 C.3     1  UNL1       -0.0288
     21 C          -4.7107    1.9166    0.8582 C.3     1  UNL1       -0.0288
     22 C          -3.0734    0.1149    0.8537 C.2     1  UNL1        0.3067
     23 N          -3.2257    0.1465    2.2944 N.pl3   1  UNL1       -0.2488
     24 N          -2.1074   -0.4732    0.3017 N.2     1  UNL1       -0.0727
     25 C           0.3613   -1.1077    0.0603 C.ar    1  UNL1       -0.0301
     26 N           3.9838   -1.2850    3.0968 N.ar    1  UNL1       -0.2379
     27 C           5.0780   -0.8367    3.6923 C.ar    1  UNL1        0.0309
     28 C           5.8243    0.0902    2.9621 C.ar    1  UNL1       -0.0276
     29 C           5.3997    0.4719    1.7156 C.ar    1  UNL1        0.0440
     30 S           6.0361    1.6063    0.4854 S.2     1  UNL1       -0.0722
     31 H           3.8030    2.7137   -2.1005 H       1  UNL1        0.0298
     32 H           4.5086    1.2779   -2.8591 H       1  UNL1        0.0298
     33 H           5.5777    2.5689   -2.1627 H       1  UNL1        0.0298
     34 H           1.7912   -2.1623    2.1064 H       1  UNL1        0.1536
     35 H           3.3827   -1.9346   -1.0805 H       1  UNL1        0.0637
     36 H           2.1744   -1.6623   -3.2196 H       1  UNL1        0.0647
     37 H          -3.0696   -2.3754   -1.0183 H       1  UNL1        0.0279
     38 H          -1.9108   -2.2485   -2.4423 H       1  UNL1        0.0279
     39 H          -3.3833   -1.2448   -2.3463 H       1  UNL1        0.0279
     40 H          -2.0236    0.3482   -2.9555 H       1  UNL1        0.0550
     41 H          -1.0262    1.2584   -1.7720 H       1  UNL1        0.0550
     42 H          -6.1420    0.0643    0.2930 H       1  UNL1        0.0256
     43 H          -4.9784   -1.1857   -0.2029 H       1  UNL1        0.0256
     44 H          -5.5190    0.0868   -1.3763 H       1  UNL1        0.0256
     45 H          -4.0177    2.7377    1.0798 H       1  UNL1        0.0256
     46 H          -5.1247    1.4433    1.7880 H       1  UNL1        0.0256
     47 H          -5.5801    2.3166    0.2985 H       1  UNL1        0.0256
     48 H          -3.7864   -0.5116    2.8359 H       1  UNL1        0.2881
     49 H          -2.7119    0.9082    2.7790 H       1  UNL1        0.2881
     50 H          -0.1355   -0.9538    1.0182 H       1  UNL1        0.0641
     51 H           5.3519   -1.1746    4.6662 H       1  UNL1        0.0830
     52 H           6.7270    0.5024    3.3744 H       1  UNL1        0.0644
@<TRIPOS>BOND
     1     1     2    1
     2     2     3   ar
     3     3     4   ar
     4     4     5   ar
     5     5     6    1
     6     6     7    1
     7     7     8   ar
     8     8     9   ar
     9     9    10   ar
    10    10    11    1
    11    10    12   ar
    12    12    13    1
    13    13    14    1
    14    13    15    1
    15    15    16    1
    16    16    17    2
    17    16    18    2
    18    16    19    1
    19    19    20    1
    20    19    21    1
    21    19    22    1
    22    22    23    1
    23    22    24    2
    24    12    25   ar
    25     5    26   ar
    26    26    27   ar
    27    27    28   ar
    28    28    29   ar
    29    29    30   ar
    30    30     2   ar
    31    29     4   ar
    32    25     7   ar
    33    24    13    1
    34     1    31    1
    35     1    32    1
    36     1    33    1
    37     6    34    1
    38     8    35    1
    39     9    36    1
    40    14    37    1
    41    14    38    1
    42    14    39    1
    43    15    40    1
    44    15    41    1
    45    20    42    1
    46    20    43    1
    47    20    44    1
    48    21    45    1
    49    21    46    1
    50    21    47    1
    51    23    48    1
    52    23    49    1
    53    25    50    1
    54    27    51    1
    55    28    52    1
