@<TRIPOS>MOLECULE
*****
 55 59 0 0 0
SMALL
GASTEIGER

@<TRIPOS>ATOM
      1 C           9.5433   -0.1385    2.5907 C.3     1  UNL1        0.0302
      2 N           8.1532    0.0832    2.2082 N.ar    1  UNL1       -0.2739
      3 C           7.6264   -0.1466    0.9750 C.ar    1  UNL1        0.0329
      4 C           6.2766    0.1755    0.9750 C.ar    1  UNL1        0.0210
      5 C           5.3756    0.0618   -0.1665 C.ar    1  UNL1        0.0039
      6 C           5.8066    0.2433   -1.4681 C.ar    1  UNL1        0.0361
      7 N           5.0019    0.1457   -2.5397 N.ar    1  UNL1       -0.2543
      8 C           3.7056   -0.1441   -2.3359 C.ar    1  UNL1        0.0747
      9 C           2.9670   -0.2205   -3.5096 C.ar    1  UNL1       -0.0350
     10 C           1.6127   -0.1011   -3.7323 C.ar    1  UNL1       -0.0519
     11 C           0.5998   -0.2623   -2.8311 C.ar    1  UNL1       -0.0141
     12 C          -0.6707   -0.1590   -3.4054 C.ar    1  UNL1       -0.0536
     13 C          -1.7817   -0.3013   -2.6038 C.ar    1  UNL1       -0.0564
     14 C          -1.6660   -0.5445   -1.2414 C.ar    1  UNL1       -0.0243
     15 C          -2.9055   -0.6848   -0.4333 C.3     1  UNL1        0.1067
     16 S          -3.3215    0.9493    0.1431 S.O2    1  UNL1        0.0338
     17 O          -2.1667    1.4802    0.9408 O.2     1  UNL1       -0.1579
     18 O          -3.5326    1.8743   -1.0186 O.2     1  UNL1       -0.1579
     19 N          -4.7587    0.8652    1.0934 N.3     1  UNL1       -0.1884
     20 C          -5.8489    0.3740    0.2587 C.3     1  UNL1        0.0592
     21 C          -7.1123    0.2773    1.0104 C.ar    1  UNL1        0.0567
     22 C          -7.5085   -0.8524    1.6919 C.ar    1  UNL1       -0.0391
     23 C          -8.6953   -0.9357    2.3949 C.ar    1  UNL1       -0.0586
     24 C          -9.5182    0.1625    2.4137 C.ar    1  UNL1       -0.0436
     25 C          -9.1233    1.3077    1.7267 C.ar    1  UNL1        0.0279
     26 N          -7.9590    1.3446    1.0549 N.ar    1  UNL1       -0.2585
     27 C          -0.4048   -0.6423   -0.6989 C.ar    1  UNL1       -0.0456
     28 C           0.7250   -0.5055   -1.4697 C.ar    1  UNL1        0.0298
     29 C           1.8769   -0.6459   -0.6871 C.ar    1  UNL1        0.1958
     30 O           1.7513   -1.0886    0.4748 O.2     1  UNL1       -0.2866
     31 C           3.1810   -0.3438   -1.0558 C.ar    1  UNL1        0.0482
     32 C           4.0436   -0.2350    0.0276 C.ar    1  UNL1       -0.0396
     33 C           6.0226    0.6070    2.2621 C.ar    1  UNL1        0.0571
     34 N           7.1666    0.5337    2.9548 N.ar    1  UNL1       -0.1793
     35 H           9.8436   -1.1932    2.4592 H       1  UNL1        0.0473
     36 H           9.6775    0.2300    3.6270 H       1  UNL1        0.0473
     37 H          10.1950    0.4477    1.8855 H       1  UNL1        0.0473
     38 H           8.1696   -0.5178    0.1361 H       1  UNL1        0.0832
     39 H           6.8409    0.4733   -1.6103 H       1  UNL1        0.0836
     40 H           3.5735   -0.4057   -4.3871 H       1  UNL1        0.0639
     41 H           1.2858    0.1476   -4.7248 H       1  UNL1        0.0624
     42 H          -0.7345    0.0311   -4.4655 H       1  UNL1        0.0624
     43 H          -2.7394   -0.2165   -3.0728 H       1  UNL1        0.0621
     44 H          -2.7105   -1.3267    0.4479 H       1  UNL1        0.0565
     45 H          -3.7111   -1.0599   -1.0731 H       1  UNL1        0.0565
     46 H          -4.9611    1.8316    1.4161 H       1  UNL1        0.1480
     47 H          -5.5532   -0.6045   -0.1970 H       1  UNL1        0.0506
     48 H          -5.9767    1.0794   -0.5931 H       1  UNL1        0.0506
     49 H          -6.8571   -1.7208    1.6756 H       1  UNL1        0.0636
     50 H          -8.9955   -1.8283    2.9261 H       1  UNL1        0.0619
     51 H         -10.4678    0.2071    2.9299 H       1  UNL1        0.0633
     52 H          -9.7661    2.1696    1.7405 H       1  UNL1        0.0829
     53 H          -0.2967   -0.8331    0.3753 H       1  UNL1        0.0628
     54 H           3.6532   -0.3856    1.0178 H       1  UNL1        0.0632
     55 H           5.0682    0.9413    2.6330 H       1  UNL1        0.0854
@<TRIPOS>BOND
     1     1     2    1
     2     2     3   ar
     3     3     4   ar
     4     4     5    1
     5     5     6   ar
     6     6     7   ar
     7     7     8   ar
     8     8     9   ar
     9     9    10   ar
    10    10    11   ar
    11    11    12   ar
    12    12    13   ar
    13    13    14   ar
    14    14    15    1
    15    15    16    1
    16    16    17    2
    17    16    18    2
    18    16    19    1
    19    19    20    1
    20    20    21    1
    21    21    22   ar
    22    22    23   ar
    23    23    24   ar
    24    24    25   ar
    25    25    26   ar
    26    14    27   ar
    27    27    28   ar
    28    28    29   ar
    29    29    30    2
    30    29    31   ar
    31    31    32   ar
    32     4    33   ar
    33    33    34   ar
    34    34     2   ar
    35    32     5   ar
    36    31     8   ar
    37    28    11   ar
    38    26    21   ar
    39     1    35    1
    40     1    36    1
    41     1    37    1
    42     3    38    1
    43     6    39    1
    44     9    40    1
    45    10    41    1
    46    12    42    1
    47    13    43    1
    48    15    44    1
    49    15    45    1
    50    19    46    1
    51    20    47    1
    52    20    48    1
    53    22    49    1
    54    23    50    1
    55    24    51    1
    56    25    52    1
    57    27    53    1
    58    32    54    1
    59    33    55    1
