
     RDKit          3D

 55 59  0  0  0  0  0  0  0  0999 V2000
    9.5433   -0.1385    2.5907 C   0  0  0  0  0  0  0  0  0  0  0  0
    8.1532    0.0832    2.2082 N   0  0  0  0  0  0  0  0  0  0  0  0
    7.6264   -0.1466    0.9750 C   0  0  0  0  0  0  0  0  0  0  0  0
    6.2766    0.1755    0.9750 C   0  0  0  0  0  0  0  0  0  0  0  0
    5.3756    0.0618   -0.1665 C   0  0  0  0  0  0  0  0  0  0  0  0
    5.8066    0.2433   -1.4681 C   0  0  0  0  0  0  0  0  0  0  0  0
    5.0019    0.1457   -2.5397 N   0  0  0  0  0  0  0  0  0  0  0  0
    3.7056   -0.1441   -2.3359 C   0  0  0  0  0  0  0  0  0  0  0  0
    2.9670   -0.2205   -3.5096 C   0  0  0  0  0  0  0  0  0  0  0  0
    1.6127   -0.1011   -3.7323 C   0  0  0  0  0  0  0  0  0  0  0  0
    0.5998   -0.2623   -2.8311 C   0  0  0  0  0  0  0  0  0  0  0  0
   -0.6707   -0.1590   -3.4054 C   0  0  0  0  0  0  0  0  0  0  0  0
   -1.7817   -0.3013   -2.6038 C   0  0  0  0  0  0  0  0  0  0  0  0
   -1.6660   -0.5445   -1.2414 C   0  0  0  0  0  0  0  0  0  0  0  0
   -2.9055   -0.6848   -0.4333 C   0  0  0  0  0  0  0  0  0  0  0  0
   -3.3215    0.9493    0.1431 S   0  0  0  0  0  6  0  0  0  0  0  0
   -2.1667    1.4802    0.9408 O   0  0  0  0  0  0  0  0  0  0  0  0
   -3.5326    1.8743   -1.0186 O   0  0  0  0  0  0  0  0  0  0  0  0
   -4.7587    0.8652    1.0934 N   0  0  0  0  0  0  0  0  0  0  0  0
   -5.8489    0.3740    0.2587 C   0  0  0  0  0  0  0  0  0  0  0  0
   -7.1123    0.2773    1.0104 C   0  0  0  0  0  0  0  0  0  0  0  0
   -7.5085   -0.8524    1.6919 C   0  0  0  0  0  0  0  0  0  0  0  0
   -8.6953   -0.9357    2.3949 C   0  0  0  0  0  0  0  0  0  0  0  0
   -9.5182    0.1625    2.4137 C   0  0  0  0  0  0  0  0  0  0  0  0
   -9.1233    1.3077    1.7267 C   0  0  0  0  0  0  0  0  0  0  0  0
   -7.9590    1.3446    1.0549 N   0  0  0  0  0  0  0  0  0  0  0  0
   -0.4048   -0.6423   -0.6989 C   0  0  0  0  0  0  0  0  0  0  0  0
    0.7250   -0.5055   -1.4697 C   0  0  0  0  0  0  0  0  0  0  0  0
    1.8769   -0.6459   -0.6871 C   0  0  0  0  0  0  0  0  0  0  0  0
    1.7513   -1.0886    0.4748 O   0  0  0  0  0  0  0  0  0  0  0  0
    3.1810   -0.3438   -1.0558 C   0  0  0  0  0  0  0  0  0  0  0  0
    4.0436   -0.2350    0.0276 C   0  0  0  0  0  0  0  0  0  0  0  0
    6.0226    0.6070    2.2621 C   0  0  0  0  0  0  0  0  0  0  0  0
    7.1666    0.5337    2.9548 N   0  0  0  0  0  0  0  0  0  0  0  0
    9.8436   -1.1932    2.4592 H   0  0  0  0  0  0  0  0  0  0  0  0
    9.6775    0.2300    3.6270 H   0  0  0  0  0  0  0  0  0  0  0  0
   10.1950    0.4477    1.8855 H   0  0  0  0  0  0  0  0  0  0  0  0
    8.1696   -0.5178    0.1361 H   0  0  0  0  0  0  0  0  0  0  0  0
    6.8409    0.4733   -1.6103 H   0  0  0  0  0  0  0  0  0  0  0  0
    3.5735   -0.4057   -4.3871 H   0  0  0  0  0  0  0  0  0  0  0  0
    1.2858    0.1476   -4.7248 H   0  0  0  0  0  0  0  0  0  0  0  0
   -0.7345    0.0311   -4.4655 H   0  0  0  0  0  0  0  0  0  0  0  0
   -2.7394   -0.2165   -3.0728 H   0  0  0  0  0  0  0  0  0  0  0  0
   -2.7105   -1.3267    0.4479 H   0  0  0  0  0  0  0  0  0  0  0  0
   -3.7111   -1.0599   -1.0731 H   0  0  0  0  0  0  0  0  0  0  0  0
   -4.9611    1.8316    1.4161 H   0  0  0  0  0  0  0  0  0  0  0  0
   -5.5532   -0.6045   -0.1970 H   0  0  0  0  0  0  0  0  0  0  0  0
   -5.9767    1.0794   -0.5931 H   0  0  0  0  0  0  0  0  0  0  0  0
   -6.8571   -1.7208    1.6756 H   0  0  0  0  0  0  0  0  0  0  0  0
   -8.9955   -1.8283    2.9261 H   0  0  0  0  0  0  0  0  0  0  0  0
  -10.4678    0.2071    2.9299 H   0  0  0  0  0  0  0  0  0  0  0  0
   -9.7661    2.1696    1.7405 H   0  0  0  0  0  0  0  0  0  0  0  0
   -0.2967   -0.8331    0.3753 H   0  0  0  0  0  0  0  0  0  0  0  0
    3.6532   -0.3856    1.0178 H   0  0  0  0  0  0  0  0  0  0  0  0
    5.0682    0.9413    2.6330 H   0  0  0  0  0  0  0  0  0  0  0  0
  1  2  1  0
  2  3  1  0
  3  4  2  0
  4  5  1  0
  5  6  2  0
  6  7  1  0
  7  8  2  0
  8  9  1  0
  9 10  2  0
 10 11  1  0
 11 12  2  0
 12 13  1  0
 13 14  2  0
 14 15  1  0
 15 16  1  0
 16 17  2  0
 16 18  2  0
 16 19  1  0
 19 20  1  0
 20 21  1  0
 21 22  2  0
 22 23  1  0
 23 24  2  0
 24 25  1  0
 25 26  2  0
 14 27  1  0
 27 28  2  0
 28 29  1  0
 29 30  2  0
 29 31  1  0
 31 32  2  0
  4 33  1  0
 33 34  2  0
 34  2  1  0
 32  5  1  0
 31  8  1  0
 28 11  1  0
 26 21  1  0
  1 35  1  0
  1 36  1  0
  1 37  1  0
  3 38  1  0
  6 39  1  0
  9 40  1  0
 10 41  1  0
 12 42  1  0
 13 43  1  0
 15 44  1  0
 15 45  1  0
 19 46  1  0
 20 47  1  0
 20 48  1  0
 22 49  1  0
 23 50  1  0
 24 51  1  0
 25 52  1  0
 27 53  1  0
 32 54  1  0
 33 55  1  0
M  END
$$$$
