
     RDKit          3D

 31 32  0  0  0  0  0  0  0  0999 V2000
    6.1054    0.3270    0.0626 O   0  0  0  0  0  0  0  0  0  0  0  0
    4.7468    0.0724   -0.0842 C   0  0  0  0  0  0  0  0  0  0  0  0
    4.0642   -0.5634    0.9384 C   0  0  0  0  0  0  0  0  0  0  0  0
    2.7141   -0.8514    0.8681 C   0  0  0  0  0  0  0  0  0  0  0  0
    1.9984   -0.4982   -0.2609 C   0  0  0  0  0  0  0  0  0  0  0  0
    0.5376   -0.7765   -0.4088 C   0  0  0  0  0  0  0  0  0  0  0  0
   -0.2266    0.3794    0.1208 C   0  0  0  0  0  0  0  0  0  0  0  0
   -1.6949    0.2442    0.0396 C   0  0  0  0  0  0  0  0  0  0  0  0
   -2.3680    0.6924   -1.0950 C   0  0  0  0  0  0  0  0  0  0  0  0
   -3.7403    0.5792   -1.1992 C   0  0  0  0  0  0  0  0  0  0  0  0
   -4.4066    1.0287   -2.3348 O   0  0  0  0  0  0  0  0  0  0  0  0
   -4.4862    0.0274   -0.2012 C   0  0  0  0  0  0  0  0  0  0  0  0
   -3.8529   -0.4365    0.9571 C   0  0  0  0  0  0  0  0  0  0  0  0
   -4.5732   -1.0051    1.9975 O   0  0  0  0  0  0  0  0  0  0  0  0
   -2.4825   -0.2976    1.0055 C   0  0  0  0  0  0  0  0  0  0  0  0
    2.7076    0.1333   -1.2604 C   0  0  0  0  0  0  0  0  0  0  0  0
    4.0526    0.4403   -1.2339 C   0  0  0  0  0  0  0  0  0  0  0  0
    6.4904    1.2183   -0.2407 H   0  0  0  0  0  0  0  0  0  0  0  0
    4.5977   -0.8571    1.8456 H   0  0  0  0  0  0  0  0  0  0  0  0
    2.2083   -1.3505    1.6862 H   0  0  0  0  0  0  0  0  0  0  0  0
    0.2993   -1.7522    0.0113 H   0  0  0  0  0  0  0  0  0  0  0  0
    0.2979   -0.8537   -1.5060 H   0  0  0  0  0  0  0  0  0  0  0  0
    0.0464    1.2682   -0.5079 H   0  0  0  0  0  0  0  0  0  0  0  0
    0.0801    0.5861    1.1644 H   0  0  0  0  0  0  0  0  0  0  0  0
   -1.8587    1.1448   -1.9391 H   0  0  0  0  0  0  0  0  0  0  0  0
   -4.9322    1.8888   -2.2341 H   0  0  0  0  0  0  0  0  0  0  0  0
   -5.5680   -0.0530   -0.3024 H   0  0  0  0  0  0  0  0  0  0  0  0
   -5.4757   -1.4358    1.8485 H   0  0  0  0  0  0  0  0  0  0  0  0
   -2.0258   -0.6632    1.9074 H   0  0  0  0  0  0  0  0  0  0  0  0
    2.1883    0.4311   -2.1690 H   0  0  0  0  0  0  0  0  0  0  0  0
    4.5565    0.9325   -2.0380 H   0  0  0  0  0  0  0  0  0  0  0  0
  1  2  1  0
  2  3  2  0
  3  4  1  0
  4  5  2  0
  5  6  1  0
  6  7  1  0
  7  8  1  0
  8  9  2  0
  9 10  1  0
 10 11  1  0
 10 12  2  0
 12 13  1  0
 13 14  1  0
 13 15  2  0
  5 16  1  0
 16 17  2  0
 17  2  1  0
 15  8  1  0
  1 18  1  0
  3 19  1  0
  4 20  1  0
  6 21  1  0
  6 22  1  0
  7 23  1  0
  7 24  1  0
  9 25  1  0
 11 26  1  0
 12 27  1  0
 14 28  1  0
 15 29  1  0
 16 30  1  0
 17 31  1  0
M  END
$$$$
