@<TRIPOS>MOLECULE
*****
 31 32 0 0 0
SMALL
GASTEIGER

@<TRIPOS>ATOM
      1 O           6.1054    0.3270    0.0626 O.3     1  UNL1       -0.5068
      2 C           4.7468    0.0724   -0.0842 C.ar    1  UNL1        0.1169
      3 C           4.0642   -0.5634    0.9384 C.ar    1  UNL1       -0.0199
      4 C           2.7141   -0.8514    0.8681 C.ar    1  UNL1       -0.0551
      5 C           1.9984   -0.4982   -0.2609 C.ar    1  UNL1       -0.0468
      6 C           0.5376   -0.7765   -0.4088 C.3     1  UNL1       -0.0237
      7 C          -0.2266    0.3794    0.1208 C.3     1  UNL1       -0.0235
      8 C          -1.6949    0.2442    0.0396 C.ar    1  UNL1       -0.0402
      9 C          -2.3680    0.6924   -1.0950 C.ar    1  UNL1       -0.0168
     10 C          -3.7403    0.5792   -1.1992 C.ar    1  UNL1        0.1206
     11 O          -4.4066    1.0287   -2.3348 O.3     1  UNL1       -0.5066
     12 C          -4.4862    0.0274   -0.2012 C.ar    1  UNL1        0.0213
     13 C          -3.8529   -0.4365    0.9571 C.ar    1  UNL1        0.1206
     14 O          -4.5732   -1.0051    1.9975 O.3     1  UNL1       -0.5066
     15 C          -2.4825   -0.2976    1.0055 C.ar    1  UNL1       -0.0168
     16 C           2.7076    0.1333   -1.2604 C.ar    1  UNL1       -0.0551
     17 C           4.0526    0.4403   -1.2339 C.ar    1  UNL1       -0.0199
     18 H           6.4904    1.2183   -0.2407 H       1  UNL1        0.2921
     19 H           4.5977   -0.8571    1.8456 H       1  UNL1        0.0654
     20 H           2.2083   -1.3505    1.6862 H       1  UNL1        0.0621
     21 H           0.2993   -1.7522    0.0113 H       1  UNL1        0.0316
     22 H           0.2979   -0.8537   -1.5060 H       1  UNL1        0.0316
     23 H           0.0464    1.2682   -0.5079 H       1  UNL1        0.0316
     24 H           0.0801    0.5861    1.1644 H       1  UNL1        0.0316
     25 H          -1.8587    1.1448   -1.9391 H       1  UNL1        0.0657
     26 H          -4.9322    1.8888   -2.2341 H       1  UNL1        0.2921
     27 H          -5.5680   -0.0530   -0.3024 H       1  UNL1        0.0691
     28 H          -5.4757   -1.4358    1.8485 H       1  UNL1        0.2921
     29 H          -2.0258   -0.6632    1.9074 H       1  UNL1        0.0657
     30 H           2.1883    0.4311   -2.1690 H       1  UNL1        0.0621
     31 H           4.5565    0.9325   -2.0380 H       1  UNL1        0.0654
@<TRIPOS>BOND
     1     1     2    1
     2     2     3   ar
     3     3     4   ar
     4     4     5   ar
     5     5     6    1
     6     6     7    1
     7     7     8    1
     8     8     9   ar
     9     9    10   ar
    10    10    11    1
    11    10    12   ar
    12    12    13   ar
    13    13    14    1
    14    13    15   ar
    15     5    16   ar
    16    16    17   ar
    17    17     2   ar
    18    15     8   ar
    19     1    18    1
    20     3    19    1
    21     4    20    1
    22     6    21    1
    23     6    22    1
    24     7    23    1
    25     7    24    1
    26     9    25    1
    27    11    26    1
    28    12    27    1
    29    14    28    1
    30    15    29    1
    31    16    30    1
    32    17    31    1
