
     RDKit          3D

 24 24  0  0  0  0  0  0  0  0999 V2000
   -1.4352    0.1607    1.7632 N   0  0  0  0  0  0  0  0  0  0  0  0
   -1.7919    0.3808    0.3688 C   0  0  1  0  0  0  0  0  0  0  0  0
   -1.0283   -0.5788   -0.5184 C   0  0  0  0  0  0  0  0  0  0  0  0
    0.4199   -0.4051   -0.3888 C   0  0  0  0  0  0  0  0  0  0  0  0
    1.2138   -1.0745    0.5198 C   0  0  0  0  0  0  0  0  0  0  0  0
    2.5788   -0.9231    0.6554 C   0  0  0  0  0  0  0  0  0  0  0  0
    3.1775   -0.0102   -0.2124 C   0  0  0  0  0  0  0  0  0  0  0  0
    4.5463    0.1989   -0.1392 O   0  0  0  0  0  0  0  0  0  0  0  0
    2.4233    0.6917   -1.1479 C   0  0  0  0  0  0  0  0  0  0  0  0
    1.0654    0.4891   -1.2257 C   0  0  0  0  0  0  0  0  0  0  0  0
   -3.2508    0.1787    0.2509 C   0  0  0  0  0  0  0  0  0  0  0  0
   -3.8456    0.3342   -1.0028 O   0  0  0  0  0  0  0  0  0  0  0  0
   -3.9790   -0.1304    1.2468 O   0  0  0  0  0  0  0  0  0  0  0  0
   -1.8131    0.8930    2.3733 H   0  0  0  0  0  0  0  0  0  0  0  0
   -1.5811   -0.8042    2.0674 H   0  0  0  0  0  0  0  0  0  0  0  0
   -1.5567    1.4088    0.0829 H   0  0  0  0  0  0  0  0  0  0  0  0
   -1.3477   -0.3661   -1.5585 H   0  0  0  0  0  0  0  0  0  0  0  0
   -1.3447   -1.6146   -0.2780 H   0  0  0  0  0  0  0  0  0  0  0  0
    0.7382   -1.7876    1.1959 H   0  0  0  0  0  0  0  0  0  0  0  0
    3.1516   -1.4752    1.3866 H   0  0  0  0  0  0  0  0  0  0  0  0
    5.1826   -0.4051   -0.6504 H   0  0  0  0  0  0  0  0  0  0  0  0
    2.8646    1.4032   -1.8297 H   0  0  0  0  0  0  0  0  0  0  0  0
    0.4725    1.0450   -1.9656 H   0  0  0  0  0  0  0  0  0  0  0  0
   -4.8604    0.5164   -0.9933 H   0  0  0  0  0  0  0  0  0  0  0  0
  1  2  1  0
  2  3  1  0
  3  4  1  0
  4  5  2  0
  5  6  1  0
  6  7  2  0
  7  8  1  0
  7  9  1  0
  9 10  2  0
  2 11  1  0
 11 12  1  0
 11 13  2  0
 10  4  1  0
  1 14  1  0
  1 15  1  0
  2 16  1  6
  3 17  1  0
  3 18  1  0
  5 19  1  0
  6 20  1  0
  8 21  1  0
  9 22  1  0
 10 23  1  0
 12 24  1  0
M  END
$$$$
