@<TRIPOS>MOLECULE
*****
 51 55 0 0 0
SMALL
GASTEIGER

@<TRIPOS>ATOM
      1 C          -4.0676    0.2333   -1.7792 C.3     1  UNL1        0.0166
      2 N          -2.8296   -0.1381   -1.1719 N.ar    1  UNL1       -0.2957
      3 C          -1.7244   -0.4379   -1.9169 C.ar    1  UNL1        0.2544
      4 O          -1.8498   -0.3703   -3.1755 O.2     1  UNL1       -0.2676
      5 C          -0.5276   -0.7974   -1.3351 C.ar    1  UNL1        0.0249
      6 C          -0.4188   -0.8639    0.0465 C.ar    1  UNL1        0.0488
      7 N           0.7713   -1.2399    0.7001 N.pl3   1  UNL1       -0.3126
      8 C           1.9053   -1.6247   -0.0422 C.ar    1  UNL1        0.0506
      9 C           3.1002   -0.8936    0.0101 C.ar    1  UNL1       -0.0270
     10 C           4.2300   -1.2464   -0.6844 C.ar    1  UNL1        0.0385
     11 C           5.4579   -0.4655   -0.6095 C.2     1  UNL1        0.2443
     12 O           6.4489   -0.8557   -1.2762 O.2     1  UNL1       -0.2702
     13 N           5.6224    0.7049    0.1599 N.am    1  UNL1       -0.3085
     14 C           6.8668    1.4590    0.2092 C.3     1  UNL1        0.0235
     15 C           7.0985    2.3095    1.4001 C.3     1  UNL1       -0.0328
     16 C           6.6896    2.9766    0.1240 C.3     1  UNL1       -0.0328
     17 C           4.1559   -2.3803   -1.4634 C.ar    1  UNL1       -0.0481
     18 C           2.9889   -3.1130   -1.5273 C.ar    1  UNL1       -0.0409
     19 C           1.8537   -2.7575   -0.8282 C.ar    1  UNL1        0.0621
     20 CL          0.4147   -3.7712   -0.9503 Cl      1  UNL1       -0.0816
     21 C          -1.5405   -0.5591    0.7963 C.ar    1  UNL1        0.0586
     22 C          -1.7208   -0.5411    2.1594 C.ar    1  UNL1        0.0608
     23 N          -2.9816   -0.1822    2.3530 N.ar    1  UNL1       -0.1722
     24 N          -3.6067    0.0275    1.1778 N.ar    1  UNL1       -0.2156
     25 C          -4.9614    0.4206    1.1007 C.ar    1  UNL1        0.0678
     26 C          -5.9214   -0.4841    0.7579 C.ar    1  UNL1       -0.0335
     27 C          -7.2761   -0.1338    0.6826 C.ar    1  UNL1       -0.0244
     28 C          -7.6124    1.1722    0.9699 C.ar    1  UNL1        0.1235
     29 F          -8.9055    1.6086    0.9237 F       1  UNL1       -0.2055
     30 C          -6.6431    2.0947    1.3183 C.ar    1  UNL1       -0.0244
     31 C          -5.2920    1.7249    1.3883 C.ar    1  UNL1       -0.0335
     32 C          -2.7277   -0.2007    0.1588 C.ar    1  UNL1        0.1485
     33 H          -4.7804   -0.6290   -1.8714 H       1  UNL1        0.0457
     34 H          -3.8634    0.5705   -2.8321 H       1  UNL1        0.0457
     35 H          -4.6122    1.0561   -1.3065 H       1  UNL1        0.0457
     36 H           0.3432   -1.0197   -1.9641 H       1  UNL1        0.0691
     37 H           0.8146   -1.2339    1.7275 H       1  UNL1        0.1522
     38 H           3.0921   -0.0206    0.6353 H       1  UNL1        0.0644
     39 H           4.8148    1.0483    0.7212 H       1  UNL1        0.1493
     40 H           7.6930    1.0637   -0.3969 H       1  UNL1        0.0498
     41 H           8.1056    2.5537    1.7683 H       1  UNL1        0.0284
     42 H           6.3427    2.2362    2.2069 H       1  UNL1        0.0284
     43 H           5.6594    3.3778    0.0979 H       1  UNL1        0.0284
     44 H           7.4126    3.5583   -0.4673 H       1  UNL1        0.0284
     45 H           5.0488   -2.6593   -2.0129 H       1  UNL1        0.0625
     46 H           2.9673   -4.0040   -2.1538 H       1  UNL1        0.0633
     47 H          -0.9493   -0.7813    2.8707 H       1  UNL1        0.0855
     48 H          -5.6482   -1.5054    0.5344 H       1  UNL1        0.0640
     49 H          -8.0353   -0.8531    0.4105 H       1  UNL1        0.0647
     50 H          -6.8760    3.1168    1.5469 H       1  UNL1        0.0647
     51 H          -4.5265    2.4493    1.6624 H       1  UNL1        0.0640
@<TRIPOS>BOND
     1     1     2    1
     2     2     3   ar
     3     3     4    2
     4     3     5   ar
     5     5     6   ar
     6     6     7    1
     7     7     8    1
     8     8     9   ar
     9     9    10   ar
    10    10    11    1
    11    11    12    2
    12    11    13   am
    13    13    14    1
    14    14    15    1
    15    15    16    1
    16    10    17   ar
    17    17    18   ar
    18    18    19   ar
    19    19    20    1
    20     6    21   ar
    21    21    22   ar
    22    22    23   ar
    23    23    24   ar
    24    24    25    1
    25    25    26   ar
    26    26    27   ar
    27    27    28   ar
    28    28    29    1
    29    28    30   ar
    30    30    31   ar
    31    24    32   ar
    32    32     2   ar
    33    19     8   ar
    34    32    21   ar
    35    16    14    1
    36    31    25   ar
    37     1    33    1
    38     1    34    1
    39     1    35    1
    40     5    36    1
    41     7    37    1
    42     9    38    1
    43    13    39    1
    44    14    40    1
    45    15    41    1
    46    15    42    1
    47    16    43    1
    48    16    44    1
    49    17    45    1
    50    18    46    1
    51    22    47    1
    52    26    48    1
    53    27    49    1
    54    30    50    1
    55    31    51    1
