
     RDKit          3D

 51 55  0  0  0  0  0  0  0  0999 V2000
   -4.0676    0.2333   -1.7792 C   0  0  0  0  0  0  0  0  0  0  0  0
   -2.8296   -0.1381   -1.1719 N   0  0  0  0  0  0  0  0  0  0  0  0
   -1.7244   -0.4379   -1.9169 C   0  0  0  0  0  0  0  0  0  0  0  0
   -1.8498   -0.3703   -3.1755 O   0  0  0  0  0  0  0  0  0  0  0  0
   -0.5276   -0.7974   -1.3351 C   0  0  0  0  0  0  0  0  0  0  0  0
   -0.4188   -0.8639    0.0465 C   0  0  0  0  0  0  0  0  0  0  0  0
    0.7713   -1.2399    0.7001 N   0  0  0  0  0  0  0  0  0  0  0  0
    1.9053   -1.6247   -0.0422 C   0  0  0  0  0  0  0  0  0  0  0  0
    3.1002   -0.8936    0.0101 C   0  0  0  0  0  0  0  0  0  0  0  0
    4.2300   -1.2464   -0.6844 C   0  0  0  0  0  0  0  0  0  0  0  0
    5.4579   -0.4655   -0.6095 C   0  0  0  0  0  0  0  0  0  0  0  0
    6.4489   -0.8557   -1.2762 O   0  0  0  0  0  0  0  0  0  0  0  0
    5.6224    0.7049    0.1599 N   0  0  0  0  0  0  0  0  0  0  0  0
    6.8668    1.4590    0.2092 C   0  0  0  0  0  0  0  0  0  0  0  0
    7.0985    2.3095    1.4001 C   0  0  0  0  0  0  0  0  0  0  0  0
    6.6896    2.9766    0.1240 C   0  0  0  0  0  0  0  0  0  0  0  0
    4.1559   -2.3803   -1.4634 C   0  0  0  0  0  0  0  0  0  0  0  0
    2.9889   -3.1130   -1.5273 C   0  0  0  0  0  0  0  0  0  0  0  0
    1.8537   -2.7575   -0.8282 C   0  0  0  0  0  0  0  0  0  0  0  0
    0.4147   -3.7712   -0.9503 Cl  0  0  0  0  0  0  0  0  0  0  0  0
   -1.5405   -0.5591    0.7963 C   0  0  0  0  0  0  0  0  0  0  0  0
   -1.7208   -0.5411    2.1594 C   0  0  0  0  0  0  0  0  0  0  0  0
   -2.9816   -0.1822    2.3530 N   0  0  0  0  0  0  0  0  0  0  0  0
   -3.6067    0.0275    1.1778 N   0  0  0  0  0  0  0  0  0  0  0  0
   -4.9614    0.4206    1.1007 C   0  0  0  0  0  0  0  0  0  0  0  0
   -5.9214   -0.4841    0.7579 C   0  0  0  0  0  0  0  0  0  0  0  0
   -7.2761   -0.1338    0.6826 C   0  0  0  0  0  0  0  0  0  0  0  0
   -7.6124    1.1722    0.9699 C   0  0  0  0  0  0  0  0  0  0  0  0
   -8.9055    1.6086    0.9237 F   0  0  0  0  0  0  0  0  0  0  0  0
   -6.6431    2.0947    1.3183 C   0  0  0  0  0  0  0  0  0  0  0  0
   -5.2920    1.7249    1.3883 C   0  0  0  0  0  0  0  0  0  0  0  0
   -2.7277   -0.2007    0.1588 C   0  0  0  0  0  0  0  0  0  0  0  0
   -4.7804   -0.6290   -1.8714 H   0  0  0  0  0  0  0  0  0  0  0  0
   -3.8634    0.5705   -2.8321 H   0  0  0  0  0  0  0  0  0  0  0  0
   -4.6122    1.0561   -1.3065 H   0  0  0  0  0  0  0  0  0  0  0  0
    0.3432   -1.0197   -1.9641 H   0  0  0  0  0  0  0  0  0  0  0  0
    0.8146   -1.2339    1.7275 H   0  0  0  0  0  0  0  0  0  0  0  0
    3.0921   -0.0206    0.6353 H   0  0  0  0  0  0  0  0  0  0  0  0
    4.8148    1.0483    0.7212 H   0  0  0  0  0  0  0  0  0  0  0  0
    7.6930    1.0637   -0.3969 H   0  0  0  0  0  0  0  0  0  0  0  0
    8.1056    2.5537    1.7683 H   0  0  0  0  0  0  0  0  0  0  0  0
    6.3427    2.2362    2.2069 H   0  0  0  0  0  0  0  0  0  0  0  0
    5.6594    3.3778    0.0979 H   0  0  0  0  0  0  0  0  0  0  0  0
    7.4126    3.5583   -0.4673 H   0  0  0  0  0  0  0  0  0  0  0  0
    5.0488   -2.6593   -2.0129 H   0  0  0  0  0  0  0  0  0  0  0  0
    2.9673   -4.0040   -2.1538 H   0  0  0  0  0  0  0  0  0  0  0  0
   -0.9493   -0.7813    2.8707 H   0  0  0  0  0  0  0  0  0  0  0  0
   -5.6482   -1.5054    0.5344 H   0  0  0  0  0  0  0  0  0  0  0  0
   -8.0353   -0.8531    0.4105 H   0  0  0  0  0  0  0  0  0  0  0  0
   -6.8760    3.1168    1.5469 H   0  0  0  0  0  0  0  0  0  0  0  0
   -4.5265    2.4493    1.6624 H   0  0  0  0  0  0  0  0  0  0  0  0
  1  2  1  0
  2  3  1  0
  3  4  2  0
  3  5  1  0
  5  6  2  0
  6  7  1  0
  7  8  1  0
  8  9  2  0
  9 10  1  0
 10 11  1  0
 11 12  2  0
 11 13  1  0
 13 14  1  0
 14 15  1  0
 15 16  1  0
 10 17  2  0
 17 18  1  0
 18 19  2  0
 19 20  1  0
  6 21  1  0
 21 22  1  0
 22 23  2  0
 23 24  1  0
 24 25  1  0
 25 26  2  0
 26 27  1  0
 27 28  2  0
 28 29  1  0
 28 30  1  0
 30 31  2  0
 24 32  1  0
 32  2  1  0
 19  8  1  0
 32 21  2  0
 16 14  1  0
 31 25  1  0
  1 33  1  0
  1 34  1  0
  1 35  1  0
  5 36  1  0
  7 37  1  0
  9 38  1  0
 13 39  1  0
 14 40  1  0
 15 41  1  0
 15 42  1  0
 16 43  1  0
 16 44  1  0
 17 45  1  0
 18 46  1  0
 22 47  1  0
 26 48  1  0
 27 49  1  0
 30 50  1  0
 31 51  1  0
M  END
$$$$
