
     RDKit          3D

 30 30  0  0  0  0  0  0  0  0999 V2000
   -0.8148   -0.4249   -2.0935 O   0  0  0  0  0  0  0  0  0  0  0  0
   -1.7488   -0.8104   -0.9959 P   0  0  0  0  0  5  0  0  0  0  0  0
   -3.3267   -0.4921   -1.5642 O   0  0  0  0  0  0  0  0  0  0  0  0
   -1.6112   -2.4759   -0.7439 O   0  0  0  0  0  0  0  0  0  0  0  0
   -1.4430    0.0338    0.5639 C   0  0  0  0  0  0  0  0  0  0  0  0
   -0.4354    1.0393    0.4981 N   0  0  0  0  0  0  0  0  0  0  0  0
    0.9335    0.7818    0.1776 C   0  0  0  0  0  0  0  0  0  0  0  0
    1.8427    1.8167    0.1215 C   0  0  0  0  0  0  0  0  0  0  0  0
    3.1749    1.6393   -0.1760 C   0  0  0  0  0  0  0  0  0  0  0  0
    3.6368    0.3646   -0.4335 C   0  0  0  0  0  0  0  0  0  0  0  0
    2.7637   -0.7003   -0.3886 C   0  0  0  0  0  0  0  0  0  0  0  0
    3.2728   -2.0676   -0.6675 C   0  0  0  0  0  0  0  0  0  0  0  0
    4.4309   -1.9779   -1.4278 F   0  0  0  0  0  0  0  0  0  0  0  0
    2.3714   -2.8132   -1.3914 F   0  0  0  0  0  0  0  0  0  0  0  0
    3.6038   -2.6689    0.5385 F   0  0  0  0  0  0  0  0  0  0  0  0
    1.4272   -0.4762   -0.0841 C   0  0  0  0  0  0  0  0  0  0  0  0
   -2.9984    0.7917    1.1020 P   0  0  0  0  0  5  0  0  0  0  0  0
   -2.9894    1.0437    2.6096 O   0  0  0  0  0  0  0  0  0  0  0  0
   -3.2786    2.2676    0.3559 O   0  0  0  0  0  0  0  0  0  0  0  0
   -4.2377   -0.3133    0.8073 O   0  0  0  0  0  0  0  0  0  0  0  0
   -3.3124    0.2322   -2.2467 H   0  0  0  0  0  0  0  0  0  0  0  0
   -2.1980   -2.7871   -0.0090 H   0  0  0  0  0  0  0  0  0  0  0  0
   -1.1598   -0.6978    1.3515 H   0  0  0  0  0  0  0  0  0  0  0  0
   -0.6997    2.0288    0.6933 H   0  0  0  0  0  0  0  0  0  0  0  0
    1.4758    2.8311    0.3262 H   0  0  0  0  0  0  0  0  0  0  0  0
    3.8986    2.4415   -0.2234 H   0  0  0  0  0  0  0  0  0  0  0  0
    4.6827    0.1937   -0.6711 H   0  0  0  0  0  0  0  0  0  0  0  0
    0.7747   -1.3195   -0.0533 H   0  0  0  0  0  0  0  0  0  0  0  0
   -2.9642    2.3044   -0.5697 H   0  0  0  0  0  0  0  0  0  0  0  0
   -5.0715    0.2149    0.6899 H   0  0  0  0  0  0  0  0  0  0  0  0
  1  2  2  0
  2  3  1  0
  2  4  1  0
  2  5  1  0
  5  6  1  0
  6  7  1  0
  7  8  2  0
  8  9  1  0
  9 10  2  0
 10 11  1  0
 11 12  1  0
 12 13  1  0
 12 14  1  0
 12 15  1  0
 11 16  2  0
  5 17  1  0
 17 18  2  0
 17 19  1  0
 17 20  1  0
 16  7  1  0
  3 21  1  0
  4 22  1  0
  5 23  1  0
  6 24  1  0
  8 25  1  0
  9 26  1  0
 10 27  1  0
 16 28  1  0
 19 29  1  0
 20 30  1  0
M  END
$$$$
