@<TRIPOS>MOLECULE
*****
 30 30 0 0 0
SMALL
GASTEIGER

@<TRIPOS>ATOM
      1 O          -0.8148   -0.4249   -2.0935 O.2     1  UNL1       -0.2562
      2 P          -1.7488   -0.8104   -0.9959 P.3     1  UNL1        0.3596
      3 O          -3.3267   -0.4921   -1.5642 O.3     1  UNL1       -0.3224
      4 O          -1.6112   -2.4759   -0.7439 O.3     1  UNL1       -0.3224
      5 C          -1.4430    0.0338    0.5639 C.3     1  UNL1        0.2245
      6 N          -0.4354    1.0393    0.4981 N.pl3   1  UNL1       -0.3213
      7 C           0.9335    0.7818    0.1776 C.ar    1  UNL1        0.0287
      8 C           1.8427    1.8167    0.1215 C.ar    1  UNL1       -0.0408
      9 C           3.1749    1.6393   -0.1760 C.ar    1  UNL1       -0.0595
     10 C           3.6368    0.3646   -0.4335 C.ar    1  UNL1       -0.0500
     11 C           2.7637   -0.7003   -0.3886 C.ar    1  UNL1        0.0565
     12 C           3.2728   -2.0676   -0.6675 C.3     1  UNL1        0.4175
     13 F           4.4309   -1.9779   -1.4278 F       1  UNL1       -0.1659
     14 F           2.3714   -2.8132   -1.3914 F       1  UNL1       -0.1659
     15 F           3.6038   -2.6689    0.5385 F       1  UNL1       -0.1659
     16 C           1.4272   -0.4762   -0.0841 C.ar    1  UNL1       -0.0292
     17 P          -2.9984    0.7917    1.1020 P.3     1  UNL1        0.3596
     18 O          -2.9894    1.0437    2.6096 O.2     1  UNL1       -0.2562
     19 O          -3.2786    2.2676    0.3559 O.3     1  UNL1       -0.3224
     20 O          -4.2377   -0.3133    0.8073 O.3     1  UNL1       -0.3224
     21 H          -3.3124    0.2322   -2.2467 H       1  UNL1        0.2198
     22 H          -2.1980   -2.7871   -0.0090 H       1  UNL1        0.2198
     23 H          -1.1598   -0.6978    1.3515 H       1  UNL1        0.0754
     24 H          -0.6997    2.0288    0.6933 H       1  UNL1        0.1475
     25 H           1.4758    2.8311    0.3262 H       1  UNL1        0.0636
     26 H           3.8986    2.4415   -0.2234 H       1  UNL1        0.0618
     27 H           4.6827    0.1937   -0.6711 H       1  UNL1        0.0623
     28 H           0.7747   -1.3195   -0.0533 H       1  UNL1        0.0641
     29 H          -2.9642    2.3044   -0.5697 H       1  UNL1        0.2198
     30 H          -5.0715    0.2149    0.6899 H       1  UNL1        0.2198
@<TRIPOS>BOND
     1     1     2    2
     2     2     3    1
     3     2     4    1
     4     2     5    1
     5     5     6    1
     6     6     7    1
     7     7     8   ar
     8     8     9   ar
     9     9    10   ar
    10    10    11   ar
    11    11    12    1
    12    12    13    1
    13    12    14    1
    14    12    15    1
    15    11    16   ar
    16     5    17    1
    17    17    18    2
    18    17    19    1
    19    17    20    1
    20    16     7   ar
    21     3    21    1
    22     4    22    1
    23     5    23    1
    24     6    24    1
    25     8    25    1
    26     9    26    1
    27    10    27    1
    28    16    28    1
    29    19    29    1
    30    20    30    1
