@<TRIPOS>MOLECULE
*****
 35 36 0 0 0
SMALL
GASTEIGER

@<TRIPOS>ATOM
      1 C          -2.9157   -2.0044    0.3771 C.3     1  UNL1       -0.0526
      2 C          -1.5433   -2.2439   -0.1830 C.3     1  UNL1       -0.0064
      3 N          -1.1394   -1.2470   -1.0688 N.3     1  UNL1       -0.3094
      4 C          -0.7437    0.0419   -0.6702 C.3     1  UNL1        0.0370
      5 C          -1.6983    0.7289    0.2013 C.3     1  UNL1       -0.0109
      6 C          -1.4284    2.1576    0.5802 C.3     1  UNL1        0.0815
      7 C          -2.5217    3.1062    0.2613 C.3     1  UNL1       -0.0424
      8 S           0.0889    2.6980   -0.2411 S.O2    1  UNL1        0.0061
      9 O          -0.2408    2.9219   -1.6690 O.2     1  UNL1       -0.1686
     10 O           0.6408    3.9097    0.4103 O.2     1  UNL1       -0.1686
     11 C           1.2279    1.3461   -0.0342 C.ar    1  UNL1        0.1321
     12 S           2.8627    1.0935    0.3945 S.2     1  UNL1       -0.0499
     13 C           2.8374   -0.7072    0.2899 C.ar    1  UNL1        0.1442
     14 S           4.2395   -1.6762    0.6179 S.O2    1  UNL1        0.0623
     15 N           5.5499   -1.3110   -0.4143 N.3     1  UNL1       -0.2030
     16 O           4.6838   -1.3597    2.0326 O.2     1  UNL1       -0.1527
     17 O           3.8453   -3.0982    0.5504 O.2     1  UNL1       -0.1527
     18 C           1.5733   -0.9620   -0.0674 C.ar    1  UNL1       -0.0215
     19 C           0.6807    0.0045   -0.2564 C.ar    1  UNL1        0.0035
     20 H          -3.5636   -2.9464    0.2282 H       1  UNL1        0.0242
     21 H          -3.5159   -1.2374   -0.1274 H       1  UNL1        0.0242
     22 H          -2.8810   -1.9244    1.4802 H       1  UNL1        0.0242
     23 H          -0.8047   -2.4224    0.6656 H       1  UNL1        0.0421
     24 H          -1.5595   -3.2766   -0.6638 H       1  UNL1        0.0421
     25 H          -1.4065   -1.3743   -2.0632 H       1  UNL1        0.1225
     26 H          -0.7870    0.6556   -1.6712 H       1  UNL1        0.0511
     27 H          -2.0344    0.2095    1.1066 H       1  UNL1        0.0302
     28 H          -2.6529    0.8272   -0.4355 H       1  UNL1        0.0302
     29 H          -1.1286    2.1589    1.6702 H       1  UNL1        0.0538
     30 H          -2.3398    4.0439    0.8643 H       1  UNL1        0.0248
     31 H          -2.4988    3.3601   -0.8055 H       1  UNL1        0.0248
     32 H          -3.4929    2.6391    0.5847 H       1  UNL1        0.0248
     33 H           5.8728   -0.3292   -0.3801 H       1  UNL1        0.1443
     34 H           5.4852   -1.7244   -1.3483 H       1  UNL1        0.1443
     35 H           1.3089   -2.0578   -0.2157 H       1  UNL1        0.0646
@<TRIPOS>BOND
     1     1     2    1
     2     2     3    1
     3     3     4    1
     4     4     5    1
     5     5     6    1
     6     6     7    1
     7     6     8    1
     8     8     9    2
     9     8    10    2
    10     8    11    1
    11    11    12   ar
    12    12    13   ar
    13    13    14    1
    14    14    15    1
    15    14    16    2
    16    14    17    2
    17    13    18   ar
    18    18    19   ar
    19    19     4    1
    20    19    11   ar
    21     1    20    1
    22     1    21    1
    23     1    22    1
    24     2    23    1
    25     2    24    1
    26     3    25    1
    27     4    26    1
    28     5    27    1
    29     5    28    1
    30     6    29    1
    31     7    30    1
    32     7    31    1
    33     7    32    1
    34    15    33    1
    35    15    34    1
    36    18    35    1
