
     RDKit          3D

 35 36  0  0  0  0  0  0  0  0999 V2000
   -2.9157   -2.0044    0.3771 C   0  0  0  0  0  0  0  0  0  0  0  0
   -1.5433   -2.2439   -0.1830 C   0  0  0  0  0  0  0  0  0  0  0  0
   -1.1394   -1.2470   -1.0688 N   0  0  0  0  0  0  0  0  0  0  0  0
   -0.7437    0.0419   -0.6702 C   0  0  0  0  0  0  0  0  0  0  0  0
   -1.6983    0.7289    0.2013 C   0  0  0  0  0  0  0  0  0  0  0  0
   -1.4284    2.1576    0.5802 C   0  0  0  0  0  0  0  0  0  0  0  0
   -2.5217    3.1062    0.2613 C   0  0  0  0  0  0  0  0  0  0  0  0
    0.0889    2.6980   -0.2411 S   0  0  0  0  0  6  0  0  0  0  0  0
   -0.2408    2.9219   -1.6690 O   0  0  0  0  0  0  0  0  0  0  0  0
    0.6408    3.9097    0.4103 O   0  0  0  0  0  0  0  0  0  0  0  0
    1.2279    1.3461   -0.0342 C   0  0  0  0  0  0  0  0  0  0  0  0
    2.8627    1.0935    0.3945 S   0  0  0  0  0  0  0  0  0  0  0  0
    2.8374   -0.7072    0.2899 C   0  0  0  0  0  0  0  0  0  0  0  0
    4.2395   -1.6762    0.6179 S   0  0  0  0  0  6  0  0  0  0  0  0
    5.5499   -1.3110   -0.4143 N   0  0  0  0  0  0  0  0  0  0  0  0
    4.6838   -1.3597    2.0326 O   0  0  0  0  0  0  0  0  0  0  0  0
    3.8453   -3.0982    0.5504 O   0  0  0  0  0  0  0  0  0  0  0  0
    1.5733   -0.9620   -0.0674 C   0  0  0  0  0  0  0  0  0  0  0  0
    0.6807    0.0045   -0.2564 C   0  0  0  0  0  0  0  0  0  0  0  0
   -3.5636   -2.9464    0.2282 H   0  0  0  0  0  0  0  0  0  0  0  0
   -3.5159   -1.2374   -0.1274 H   0  0  0  0  0  0  0  0  0  0  0  0
   -2.8810   -1.9244    1.4802 H   0  0  0  0  0  0  0  0  0  0  0  0
   -0.8047   -2.4224    0.6656 H   0  0  0  0  0  0  0  0  0  0  0  0
   -1.5595   -3.2766   -0.6638 H   0  0  0  0  0  0  0  0  0  0  0  0
   -1.4065   -1.3743   -2.0632 H   0  0  0  0  0  0  0  0  0  0  0  0
   -0.7870    0.6556   -1.6712 H   0  0  0  0  0  0  0  0  0  0  0  0
   -2.0344    0.2095    1.1066 H   0  0  0  0  0  0  0  0  0  0  0  0
   -2.6529    0.8272   -0.4355 H   0  0  0  0  0  0  0  0  0  0  0  0
   -1.1286    2.1589    1.6702 H   0  0  0  0  0  0  0  0  0  0  0  0
   -2.3398    4.0439    0.8643 H   0  0  0  0  0  0  0  0  0  0  0  0
   -2.4988    3.3601   -0.8055 H   0  0  0  0  0  0  0  0  0  0  0  0
   -3.4929    2.6391    0.5847 H   0  0  0  0  0  0  0  0  0  0  0  0
    5.8728   -0.3292   -0.3801 H   0  0  0  0  0  0  0  0  0  0  0  0
    5.4852   -1.7244   -1.3483 H   0  0  0  0  0  0  0  0  0  0  0  0
    1.3089   -2.0578   -0.2157 H   0  0  0  0  0  0  0  0  0  0  0  0
  1  2  1  0
  2  3  1  0
  3  4  1  0
  4  5  1  0
  5  6  1  0
  6  7  1  0
  6  8  1  0
  8  9  2  0
  8 10  2  0
  8 11  1  0
 11 12  1  0
 12 13  1  0
 13 14  1  0
 14 15  1  0
 14 16  2  0
 14 17  2  0
 13 18  2  0
 18 19  1  0
 19  4  1  0
 19 11  2  0
  1 20  1  0
  1 21  1  0
  1 22  1  0
  2 23  1  0
  2 24  1  0
  3 25  1  0
  4 26  1  0
  5 27  1  0
  5 28  1  0
  6 29  1  0
  7 30  1  0
  7 31  1  0
  7 32  1  0
 15 33  1  0
 15 34  1  0
 18 35  1  0
M  END
$$$$
