@<TRIPOS>MOLECULE
*****
 27 26 0 0 0
SMALL
GASTEIGER

@<TRIPOS>ATOM
      1 N          -4.4799   -0.1956    0.0252 N.3     1  UNL1       -0.3299
      2 C          -3.7365   -0.9138   -0.9795 C.3     1  UNL1       -0.0058
      3 C          -2.2429   -0.8318   -0.6924 C.3     1  UNL1       -0.0281
      4 C          -1.7753    0.6021   -0.7002 C.3     1  UNL1       -0.0029
      5 N          -0.3916    0.6644   -0.4450 N.3     1  UNL1       -0.3151
      6 C           0.0747    0.3190    0.8368 C.3     1  UNL1        0.0054
      7 C           1.5633    0.5049    1.0254 C.3     1  UNL1        0.0172
      8 S           2.5854   -0.4560   -0.0789 S.3     1  UNL1       -0.0402
      9 P           4.6438   -0.0203    0.2857 P.3     1  UNL1        0.3862
     10 O           5.2610   -1.0498    1.4419 O.3     1  UNL1       -0.3163
     11 O           5.5299   -0.1646   -1.1593 O.3     1  UNL1       -0.3163
     12 O           4.7819    1.4458    0.6991 O.2     1  UNL1       -0.2462
     13 H          -5.4979   -0.4013   -0.1346 H       1  UNL1        0.1182
     14 H          -4.2129   -0.5241    0.9748 H       1  UNL1        0.1182
     15 H          -4.0247   -1.9769   -0.9557 H       1  UNL1        0.0422
     16 H          -3.9714   -0.5184   -1.9796 H       1  UNL1        0.0422
     17 H          -2.0552   -1.3494    0.2687 H       1  UNL1        0.0290
     18 H          -1.6996   -1.3770   -1.4921 H       1  UNL1        0.0290
     19 H          -2.4032    1.1851    0.0385 H       1  UNL1        0.0424
     20 H          -2.0253    1.0023   -1.7051 H       1  UNL1        0.0424
     21 H           0.2204    1.1453   -1.0966 H       1  UNL1        0.1220
     22 H          -0.4531    0.8061    1.6794 H       1  UNL1        0.0432
     23 H          -0.1035   -0.7795    0.9682 H       1  UNL1        0.0432
     24 H           1.7849    0.2538    2.0638 H       1  UNL1        0.0394
     25 H           1.7555    1.5892    0.8562 H       1  UNL1        0.0394
     26 H           5.8255   -0.5526    2.1048 H       1  UNL1        0.2205
     27 H           5.0469    0.3824   -1.8495 H       1  UNL1        0.2205
@<TRIPOS>BOND
     1     1     2    1
     2     2     3    1
     3     3     4    1
     4     4     5    1
     5     5     6    1
     6     6     7    1
     7     7     8    1
     8     8     9    1
     9     9    10    1
    10     9    11    1
    11     9    12    2
    12     1    13    1
    13     1    14    1
    14     2    15    1
    15     2    16    1
    16     3    17    1
    17     3    18    1
    18     4    19    1
    19     4    20    1
    20     5    21    1
    21     6    22    1
    22     6    23    1
    23     7    24    1
    24     7    25    1
    25    10    26    1
    26    11    27    1
