@<TRIPOS>MOLECULE
*****
 38 41 0 0 0
SMALL
GASTEIGER

@<TRIPOS>ATOM
      1 C          -4.2792    2.0580    2.0341 C.3     1  UNL1       -0.0598
      2 C          -2.9180    1.9158    1.3850 C.3     1  UNL1       -0.0131
      3 C          -2.7658    0.5644    0.7947 C.ar    1  UNL1        0.0467
      4 C          -1.5699    0.2055    0.1340 C.ar    1  UNL1       -0.0142
      5 C          -1.4125   -1.0266   -0.4107 C.ar    1  UNL1        0.0783
      6 C          -0.2468   -1.4635   -1.1478 C.ar    1  UNL1        0.0271
      7 C          -0.2701   -2.5305   -2.0718 C.ar    1  UNL1        0.0133
      8 N           0.9398   -2.7478   -2.5779 N.ar    1  UNL1       -0.3452
      9 C           1.7650   -1.8741   -2.0308 C.ar    1  UNL1        0.1388
     10 N           3.1053   -1.7305   -2.2376 N.ar    1  UNL1       -0.2369
     11 C           3.7498   -0.7794   -1.5541 C.ar    1  UNL1        0.0377
     12 C           3.1083    0.0453   -0.6615 C.ar    1  UNL1        0.0039
     13 C           3.8307    1.0837    0.0805 C.ar    1  UNL1        0.0208
     14 C           3.3249    2.2933    0.5036 C.ar    1  UNL1        0.0569
     15 N           4.3056    2.9499    1.1439 N.ar    1  UNL1       -0.1817
     16 N           5.4128    2.2216    1.1518 N.ar    1  UNL1       -0.2841
     17 C           5.1451    1.0599    0.4990 C.ar    1  UNL1        0.0301
     18 C           1.7431   -0.0952   -0.4461 C.ar    1  UNL1       -0.0412
     19 C           1.0672   -1.0656   -1.1418 C.ar    1  UNL1        0.0284
     20 N          -2.4804   -1.8771   -0.2756 N.ar    1  UNL1       -0.2146
     21 C          -3.6103   -1.5742    0.3338 C.ar    1  UNL1        0.2133
     22 N          -4.6936   -2.4866    0.4520 N.pl3   1  UNL1       -0.3275
     23 N          -3.7315   -0.3333    0.8677 N.ar    1  UNL1       -0.2196
     24 H          -4.3950    3.0312    2.5199 H       1  UNL1        0.0233
     25 H          -5.0999    1.9701    1.2884 H       1  UNL1        0.0233
     26 H          -4.4599    1.2834    2.7978 H       1  UNL1        0.0233
     27 H          -2.1409    2.1796    2.1010 H       1  UNL1        0.0326
     28 H          -2.8667    2.6340    0.5309 H       1  UNL1        0.0326
     29 H          -0.8344    0.9671    0.0728 H       1  UNL1        0.0657
     30 H          -1.2056   -3.0581   -2.2889 H       1  UNL1        0.0814
     31 H           1.1325   -3.5088   -3.2929 H       1  UNL1        0.1668
     32 H           4.8316   -0.6155   -1.6791 H       1  UNL1        0.0836
     33 H           2.3360    2.6778    0.3672 H       1  UNL1        0.0854
     34 H           6.3008    2.5369    1.5958 H       1  UNL1        0.1882
     35 H           5.8444    0.2569    0.3371 H       1  UNL1        0.0830
     36 H           1.2192    0.5156    0.2582 H       1  UNL1        0.0631
     37 H          -5.5236   -2.2872    1.0265 H       1  UNL1        0.1452
     38 H          -4.6582   -3.3961   -0.0578 H       1  UNL1        0.1452
@<TRIPOS>BOND
     1     1     2    1
     2     2     3    1
     3     3     4   ar
     4     4     5   ar
     5     5     6    1
     6     6     7   ar
     7     7     8   ar
     8     8     9   ar
     9     9    10   ar
    10    10    11   ar
    11    11    12   ar
    12    12    13    1
    13    13    14   ar
    14    14    15   ar
    15    15    16   ar
    16    16    17   ar
    17    12    18   ar
    18    18    19   ar
    19     5    20   ar
    20    20    21   ar
    21    21    22    1
    22    21    23   ar
    23    23     3   ar
    24    19     6   ar
    25    19     9   ar
    26    17    13   ar
    27     1    24    1
    28     1    25    1
    29     1    26    1
    30     2    27    1
    31     2    28    1
    32     4    29    1
    33     7    30    1
    34     8    31    1
    35    11    32    1
    36    14    33    1
    37    16    34    1
    38    17    35    1
    39    18    36    1
    40    22    37    1
    41    22    38    1
