
     RDKit          3D

 65 67  0  0  0  0  0  0  0  0999 V2000
   -9.1012   -0.5130    0.2762 C   0  0  0  0  0  0  0  0  0  0  0  0
   -7.9317    0.0440   -0.4618 C   0  0  0  0  0  0  0  0  0  0  0  0
   -6.9220    0.6336    0.5165 N   0  0  0  0  0  0  0  0  0  0  0  0
   -5.9343    1.1869   -0.3680 C   0  0  0  0  0  0  0  0  0  0  0  0
   -5.0008    2.1756    0.2482 C   0  0  0  0  0  0  0  0  0  0  0  0
   -6.4972   -0.5519    1.2107 C   0  0  0  0  0  0  0  0  0  0  0  0
   -5.5894   -0.4392    2.3614 C   0  0  0  0  0  0  0  0  0  0  0  0
   -4.3382    0.0638    2.2820 O   0  0  0  0  0  0  0  0  0  0  0  0
   -3.2072   -0.3503    1.6239 C   0  0  0  0  0  0  0  0  0  0  0  0
   -3.0749   -1.4520    0.8431 C   0  0  0  0  0  0  0  0  0  0  0  0
   -1.8786   -1.7662    0.2276 C   0  0  0  0  0  0  0  0  0  0  0  0
   -0.7625   -0.9828    0.3729 C   0  0  0  0  0  0  0  0  0  0  0  0
    0.5123   -1.2561   -0.2463 C   0  0  0  0  0  0  0  0  0  0  0  0
    1.7052   -0.6279   -0.1921 C   0  0  0  0  0  0  0  0  0  0  0  0
    2.7396   -1.1225   -0.8881 C   0  0  0  0  0  0  0  0  0  0  0  0
    4.0847   -0.4782   -0.8632 C   0  0  0  0  0  0  0  0  0  0  0  0
    5.0432   -0.9614   -1.5093 O   0  0  0  0  0  0  0  0  0  0  0  0
    4.3551    0.6952   -0.1237 N   0  0  0  0  0  0  0  0  0  0  0  0
    5.6392    1.3384   -0.0757 C   0  0  0  0  0  0  0  0  0  0  0  0
    6.2188    1.4403    1.3069 C   0  0  0  0  0  0  0  0  0  0  0  0
    7.6974    1.8171    1.1425 C   0  0  0  0  0  0  0  0  0  0  0  0
    7.7695    3.1358    0.5217 N   0  0  0  0  0  0  0  0  0  0  0  0
    7.1625    3.0894   -0.7916 C   0  0  0  0  0  0  0  0  0  0  0  0
    5.6835    2.6919   -0.7229 C   0  0  0  0  0  0  0  0  0  0  0  0
    2.5444   -2.2450   -1.6267 C   0  0  0  0  0  0  0  0  0  0  0  0
    3.4402   -2.9685   -2.4567 N   0  0  0  0  0  0  0  0  0  0  0  0
    4.2536   -4.0233   -2.0266 C   0  0  0  0  0  0  0  0  0  0  0  0
    5.1483   -4.7371   -2.8731 N   0  0  0  0  0  0  0  0  0  0  0  0
    4.1813   -4.3538   -0.8088 O   0  0  0  0  0  0  0  0  0  0  0  0
    0.8244   -2.6646   -1.3567 S   0  0  0  0  0  0  0  0  0  0  0  0
   -0.8929    0.1323    1.1617 C   0  0  0  0  0  0  0  0  0  0  0  0
   -2.0820    0.4592    1.7835 C   0  0  0  0  0  0  0  0  0  0  0  0
   -9.1019   -0.1623    1.3354 H   0  0  0  0  0  0  0  0  0  0  0  0
  -10.0521   -0.1577   -0.2199 H   0  0  0  0  0  0  0  0  0  0  0  0
   -9.0934   -1.6198    0.1823 H   0  0  0  0  0  0  0  0  0  0  0  0
   -8.2730    0.8653   -1.1223 H   0  0  0  0  0  0  0  0  0  0  0  0
   -7.4314   -0.7212   -1.0583 H   0  0  0  0  0  0  0  0  0  0  0  0
   -5.3429    0.3231   -0.7962 H   0  0  0  0  0  0  0  0  0  0  0  0
   -6.4262    1.6464   -1.2637 H   0  0  0  0  0  0  0  0  0  0  0  0
   -5.1034    3.1865   -0.3048 H   0  0  0  0  0  0  0  0  0  0  0  0
   -5.1738    2.3872    1.3069 H   0  0  0  0  0  0  0  0  0  0  0  0
   -3.9618    1.8511    0.0983 H   0  0  0  0  0  0  0  0  0  0  0  0
   -6.0021   -1.2065    0.4449 H   0  0  0  0  0  0  0  0  0  0  0  0
   -7.4195   -1.1659    1.4875 H   0  0  0  0  0  0  0  0  0  0  0  0
   -6.1675    0.1751    3.1642 H   0  0  0  0  0  0  0  0  0  0  0  0
   -5.5734   -1.4606    2.9061 H   0  0  0  0  0  0  0  0  0  0  0  0
   -3.9062   -2.1140    0.6971 H   0  0  0  0  0  0  0  0  0  0  0  0
   -1.7828   -2.6440   -0.3892 H   0  0  0  0  0  0  0  0  0  0  0  0
    1.7620    0.3030    0.4575 H   0  0  0  0  0  0  0  0  0  0  0  0
    3.5976    1.1320    0.4244 H   0  0  0  0  0  0  0  0  0  0  0  0
    6.3369    0.6924   -0.6797 H   0  0  0  0  0  0  0  0  0  0  0  0
    5.7495    2.2554    1.9024 H   0  0  0  0  0  0  0  0  0  0  0  0
    6.1754    0.4653    1.8008 H   0  0  0  0  0  0  0  0  0  0  0  0
    8.2101    1.1170    0.4514 H   0  0  0  0  0  0  0  0  0  0  0  0
    8.2359    1.8232    2.1114 H   0  0  0  0  0  0  0  0  0  0  0  0
    7.2187    3.8206    1.1055 H   0  0  0  0  0  0  0  0  0  0  0  0
    7.3071    4.0132   -1.3503 H   0  0  0  0  0  0  0  0  0  0  0  0
    7.6907    2.2698   -1.3583 H   0  0  0  0  0  0  0  0  0  0  0  0
    5.1625    3.4846   -0.1914 H   0  0  0  0  0  0  0  0  0  0  0  0
    5.3632    2.5981   -1.8013 H   0  0  0  0  0  0  0  0  0  0  0  0
    3.4727   -2.6719   -3.4505 H   0  0  0  0  0  0  0  0  0  0  0  0
    5.1703   -4.5686   -3.8909 H   0  0  0  0  0  0  0  0  0  0  0  0
    5.7983   -5.4447   -2.4731 H   0  0  0  0  0  0  0  0  0  0  0  0
   -0.0528    0.7908    1.3163 H   0  0  0  0  0  0  0  0  0  0  0  0
   -2.1769    1.3275    2.3977 H   0  0  0  0  0  0  0  0  0  0  0  0
  1  2  1  0
  2  3  1  0
  3  4  1  0
  4  5  1  0
  3  6  1  0
  6  7  1  0
  7  8  1  0
  8  9  1  0
  9 10  2  0
 10 11  1  0
 11 12  2  0
 12 13  1  0
 13 14  2  0
 14 15  1  0
 15 16  1  0
 16 17  2  0
 16 18  1  0
 18 19  1  0
 19 20  1  0
 20 21  1  0
 21 22  1  0
 22 23  1  0
 23 24  1  0
 15 25  2  0
 25 26  1  0
 26 27  1  0
 27 28  1  0
 27 29  2  0
 25 30  1  0
 12 31  1  0
 31 32  2  0
 32  9  1  0
 30 13  1  0
 24 19  1  0
  1 33  1  0
  1 34  1  0
  1 35  1  0
  2 36  1  0
  2 37  1  0
  4 38  1  0
  4 39  1  0
  5 40  1  0
  5 41  1  0
  5 42  1  0
  6 43  1  0
  6 44  1  0
  7 45  1  0
  7 46  1  0
 10 47  1  0
 11 48  1  0
 14 49  1  0
 18 50  1  0
 19 51  1  0
 20 52  1  0
 20 53  1  0
 21 54  1  0
 21 55  1  0
 22 56  1  0
 23 57  1  0
 23 58  1  0
 24 59  1  0
 24 60  1  0
 26 61  1  0
 28 62  1  0
 28 63  1  0
 31 64  1  0
 32 65  1  0
M  END
$$$$
