@<TRIPOS>MOLECULE
*****
 65 67 0 0 0
SMALL
GASTEIGER

@<TRIPOS>ATOM
      1 C          -9.1012   -0.5130    0.2762 C.3     1  UNL1       -0.0524
      2 C          -7.9317    0.0440   -0.4618 C.3     1  UNL1       -0.0038
      3 N          -6.9220    0.6336    0.5165 N.3     1  UNL1       -0.2996
      4 C          -5.9343    1.1869   -0.3680 C.3     1  UNL1       -0.0038
      5 C          -5.0008    2.1756    0.2482 C.3     1  UNL1       -0.0524
      6 C          -6.4972   -0.5519    1.2107 C.3     1  UNL1        0.0331
      7 C          -5.5894   -0.4392    2.3614 C.3     1  UNL1        0.1022
      8 O          -4.3382    0.0638    2.2820 O.3     1  UNL1       -0.4907
      9 C          -3.2072   -0.3503    1.6239 C.ar    1  UNL1        0.1206
     10 C          -3.0749   -1.4520    0.8431 C.ar    1  UNL1       -0.0194
     11 C          -1.8786   -1.7662    0.2276 C.ar    1  UNL1       -0.0501
     12 C          -0.7625   -0.9828    0.3729 C.ar    1  UNL1       -0.0110
     13 C           0.5123   -1.2561   -0.2463 C.ar    1  UNL1        0.0219
     14 C           1.7052   -0.6279   -0.1921 C.ar    1  UNL1       -0.0329
     15 C           2.7396   -1.1225   -0.8881 C.ar    1  UNL1        0.0658
     16 C           4.0847   -0.4782   -0.8632 C.2     1  UNL1        0.2466
     17 O           5.0432   -0.9614   -1.5093 O.2     1  UNL1       -0.2701
     18 N           4.3551    0.6952   -0.1237 N.am    1  UNL1       -0.3083
     19 C           5.6392    1.3384   -0.0757 C.3     1  UNL1        0.0257
     20 C           6.2188    1.4403    1.3069 C.3     1  UNL1       -0.0219
     21 C           7.6974    1.8171    1.1425 C.3     1  UNL1       -0.0024
     22 N           7.7695    3.1358    0.5217 N.3     1  UNL1       -0.3159
     23 C           7.1625    3.0894   -0.7916 C.3     1  UNL1       -0.0024
     24 C           5.6835    2.6919   -0.7229 C.3     1  UNL1       -0.0219
     25 C           2.5444   -2.2450   -1.6267 C.ar    1  UNL1        0.0856
     26 N           3.4402   -2.9685   -2.4567 N.am    1  UNL1       -0.2633
     27 C           4.2536   -4.0233   -2.0266 C.2     1  UNL1        0.3017
     28 N           5.1483   -4.7371   -2.8731 N.am    1  UNL1       -0.3131
     29 O           4.1813   -4.3538   -0.8088 O.2     1  UNL1       -0.2527
     30 S           0.8244   -2.6646   -1.3567 S.2     1  UNL1       -0.0727
     31 C          -0.8929    0.1323    1.1617 C.ar    1  UNL1       -0.0501
     32 C          -2.0820    0.4592    1.7835 C.ar    1  UNL1       -0.0194
     33 H          -9.1019   -0.1623    1.3354 H       1  UNL1        0.0242
     34 H         -10.0521   -0.1577   -0.2199 H       1  UNL1        0.0242
     35 H          -9.0934   -1.6198    0.1823 H       1  UNL1        0.0242
     36 H          -8.2730    0.8653   -1.1223 H       1  UNL1        0.0424
     37 H          -7.4314   -0.7212   -1.0583 H       1  UNL1        0.0424
     38 H          -5.3429    0.3231   -0.7962 H       1  UNL1        0.0424
     39 H          -6.4262    1.6464   -1.2637 H       1  UNL1        0.0424
     40 H          -5.1034    3.1865   -0.3048 H       1  UNL1        0.0242
     41 H          -5.1738    2.3872    1.3069 H       1  UNL1        0.0242
     42 H          -3.9618    1.8511    0.0983 H       1  UNL1        0.0242
     43 H          -6.0021   -1.2065    0.4449 H       1  UNL1        0.0460
     44 H          -7.4195   -1.1659    1.4875 H       1  UNL1        0.0460
     45 H          -6.1675    0.1751    3.1642 H       1  UNL1        0.0709
     46 H          -5.5734   -1.4606    2.9061 H       1  UNL1        0.0709
     47 H          -3.9062   -2.1140    0.6971 H       1  UNL1        0.0654
     48 H          -1.7828   -2.6440   -0.3892 H       1  UNL1        0.0625
     49 H           1.7620    0.3030    0.4575 H       1  UNL1        0.0637
     50 H           3.5976    1.1320    0.4244 H       1  UNL1        0.1493
     51 H           6.3369    0.6924   -0.6797 H       1  UNL1        0.0499
     52 H           5.7495    2.2554    1.9024 H       1  UNL1        0.0295
     53 H           6.1754    0.4653    1.8008 H       1  UNL1        0.0295
     54 H           8.2101    1.1170    0.4514 H       1  UNL1        0.0425
     55 H           8.2359    1.8232    2.1114 H       1  UNL1        0.0425
     56 H           7.2187    3.8206    1.1055 H       1  UNL1        0.1219
     57 H           7.3071    4.0132   -1.3503 H       1  UNL1        0.0425
     58 H           7.6907    2.2698   -1.3583 H       1  UNL1        0.0425
     59 H           5.1625    3.4846   -0.1914 H       1  UNL1        0.0295
     60 H           5.3632    2.5981   -1.8013 H       1  UNL1        0.0295
     61 H           3.4727   -2.6719   -3.4505 H       1  UNL1        0.1569
     62 H           5.1703   -4.5686   -3.8909 H       1  UNL1        0.1465
     63 H           5.7983   -5.4447   -2.4731 H       1  UNL1        0.1465
     64 H          -0.0528    0.7908    1.3163 H       1  UNL1        0.0625
     65 H          -2.1769    1.3275    2.3977 H       1  UNL1        0.0654
@<TRIPOS>BOND
     1     1     2    1
     2     2     3    1
     3     3     4    1
     4     4     5    1
     5     3     6    1
     6     6     7    1
     7     7     8    1
     8     8     9    1
     9     9    10   ar
    10    10    11   ar
    11    11    12   ar
    12    12    13    1
    13    13    14   ar
    14    14    15   ar
    15    15    16    1
    16    16    17    2
    17    16    18   am
    18    18    19    1
    19    19    20    1
    20    20    21    1
    21    21    22    1
    22    22    23    1
    23    23    24    1
    24    15    25   ar
    25    25    26    1
    26    26    27   am
    27    27    28   am
    28    27    29    2
    29    25    30   ar
    30    12    31   ar
    31    31    32   ar
    32    32     9   ar
    33    30    13   ar
    34    24    19    1
    35     1    33    1
    36     1    34    1
    37     1    35    1
    38     2    36    1
    39     2    37    1
    40     4    38    1
    41     4    39    1
    42     5    40    1
    43     5    41    1
    44     5    42    1
    45     6    43    1
    46     6    44    1
    47     7    45    1
    48     7    46    1
    49    10    47    1
    50    11    48    1
    51    14    49    1
    52    18    50    1
    53    19    51    1
    54    20    52    1
    55    20    53    1
    56    21    54    1
    57    21    55    1
    58    22    56    1
    59    23    57    1
    60    23    58    1
    61    24    59    1
    62    24    60    1
    63    26    61    1
    64    28    62    1
    65    28    63    1
    66    31    64    1
    67    32    65    1
