@<TRIPOS>MOLECULE
*****
 29 31 0 0 0
SMALL
GASTEIGER

@<TRIPOS>ATOM
      1 N           0.6202    2.4041    0.4015 N.pl3   1  UNL1       -0.3572
      2 C           0.5205    1.0023    0.2322 C.ar    1  UNL1        0.0388
      3 C          -0.7224    0.3847    0.3433 C.ar    1  UNL1       -0.0049
      4 C          -0.7829   -0.9829    0.1724 C.ar    1  UNL1        0.0469
      5 N           0.3452   -1.6964   -0.0964 N.ar    1  UNL1       -0.2512
      6 C           1.5530   -1.1089   -0.2060 C.ar    1  UNL1        0.0730
      7 C           2.6732   -1.8897   -0.4824 C.ar    1  UNL1       -0.0357
      8 C           3.8915   -1.2820   -0.5910 C.ar    1  UNL1       -0.0597
      9 C           4.0508    0.0832   -0.4357 C.ar    1  UNL1       -0.0610
     10 C           2.9053    0.8210   -0.1611 C.ar    1  UNL1       -0.0508
     11 C           1.6621    0.2617   -0.0423 C.ar    1  UNL1        0.0213
     12 C          -2.1084   -1.6464    0.2902 C.3     1  UNL1       -0.0101
     13 C          -3.1940   -0.7589   -0.1970 C.3     1  UNL1       -0.0473
     14 C          -3.2037    0.6050    0.3935 C.3     1  UNL1       -0.0486
     15 C          -1.8835    1.2205    0.6333 C.3     1  UNL1       -0.0242
     16 H           0.0380    2.9265    1.1021 H       1  UNL1        0.1423
     17 H           1.2800    2.9848   -0.1649 H       1  UNL1        0.1423
     18 H           2.5210   -2.9581   -0.5996 H       1  UNL1        0.0639
     19 H           4.7650   -1.8994   -0.8076 H       1  UNL1        0.0618
     20 H           5.0242    0.5521   -0.5247 H       1  UNL1        0.0618
     21 H           3.0001    1.8798   -0.0362 H       1  UNL1        0.0625
     22 H          -2.3183   -1.9441    1.3395 H       1  UNL1        0.0328
     23 H          -2.0659   -2.5495   -0.3524 H       1  UNL1        0.0328
     24 H          -4.1756   -1.2650    0.0393 H       1  UNL1        0.0269
     25 H          -3.1694   -0.7093   -1.3225 H       1  UNL1        0.0269
     26 H          -3.8792    1.2449   -0.2458 H       1  UNL1        0.0269
     27 H          -3.7440    0.5418    1.3832 H       1  UNL1        0.0269
     28 H          -1.8055    2.1337   -0.0277 H       1  UNL1        0.0314
     29 H          -1.7975    1.6445    1.6753 H       1  UNL1        0.0314
@<TRIPOS>BOND
     1     1     2    1
     2     2     3   ar
     3     3     4   ar
     4     4     5   ar
     5     5     6   ar
     6     6     7   ar
     7     7     8   ar
     8     8     9   ar
     9     9    10   ar
    10    10    11   ar
    11     4    12    1
    12    12    13    1
    13    13    14    1
    14    14    15    1
    15    11     2   ar
    16    15     3    1
    17    11     6   ar
    18     1    16    1
    19     1    17    1
    20     7    18    1
    21     8    19    1
    22     9    20    1
    23    10    21    1
    24    12    22    1
    25    12    23    1
    26    13    24    1
    27    13    25    1
    28    14    26    1
    29    14    27    1
    30    15    28    1
    31    15    29    1
