@<TRIPOS>MOLECULE
*****
 57 62 0 0 0
SMALL
GASTEIGER

@<TRIPOS>ATOM
      1 F          -9.0303    0.1972    0.2514 F       1  UNL1       -0.2051
      2 C          -8.0562   -0.2012   -0.6081 C.ar    1  UNL1        0.1300
      3 C          -8.4004   -0.9908   -1.7047 C.ar    1  UNL1       -0.0259
      4 C          -7.4601   -1.4205   -2.6020 C.ar    1  UNL1       -0.0556
      5 C          -6.1240   -1.0506   -2.4016 C.ar    1  UNL1       -0.0195
      6 C          -5.7917   -0.2749   -1.3227 C.ar    1  UNL1        0.1272
      7 C          -6.7393    0.1518   -0.4279 C.ar    1  UNL1        0.0295
      8 C          -6.3556    0.9741    0.7079 C.3     1  UNL1       -0.0179
      9 C          -4.9556    0.8190    1.1802 C.3     1  UNL1       -0.0086
     10 C          -3.9424    0.4829    0.1393 C.3     1  UNL1        0.1138
     11 C          -3.1460   -0.7518    0.5899 C.3     1  UNL1        0.0029
     12 C          -2.2498   -0.4459    1.7363 C.3     1  UNL1        0.0172
     13 N          -1.3133    0.6093    1.2951 N.pl3   1  UNL1       -0.3135
     14 C           0.0813    0.3666    1.2914 C.ar    1  UNL1        0.1438
     15 C           1.0054    1.3415    1.0156 C.ar    1  UNL1       -0.0177
     16 C           2.3664    1.0205    1.0267 C.ar    1  UNL1       -0.0259
     17 C           2.8127   -0.2533    1.3080 C.ar    1  UNL1        0.1495
     18 C           4.2155   -0.6323    1.3304 C.ar    1  UNL1        0.2684
     19 N           4.6773   -1.8587    1.6007 N.ar    1  UNL1       -0.1056
     20 N           6.0039   -1.8314    1.5298 N.ar    1  UNL1       -0.1117
     21 C           6.3772   -0.5782    1.2125 C.ar    1  UNL1        0.2221
     22 C           7.7819   -0.1143    1.0336 C.3     1  UNL1        0.0521
     23 C           8.1793   -0.2885   -0.3937 C.ar    1  UNL1       -0.0204
     24 C           8.7548   -1.4654   -0.8036 C.ar    1  UNL1       -0.0552
     25 C           9.1101   -1.5937   -2.1282 C.ar    1  UNL1       -0.0433
     26 C           8.9076   -0.5890   -3.0413 C.ar    1  UNL1        0.0276
     27 N           8.3433    0.5359   -2.5877 N.ar    1  UNL1       -0.2630
     28 C           7.9765    0.7173   -1.3081 C.ar    1  UNL1        0.0312
     29 O           5.2713    0.1213    1.0992 O.2     1  UNL1       -0.4185
     30 N           1.8603   -1.1641    1.5701 N.ar    1  UNL1       -0.1426
     31 N           0.5759   -0.8703    1.5618 N.ar    1  UNL1       -0.1335
     32 C          -1.9369    1.8358    0.8904 C.3     1  UNL1        0.0172
     33 C          -3.0350    1.6446   -0.1280 C.3     1  UNL1        0.0029
     34 O          -4.5020    0.0999   -1.1027 O.3     1  UNL1       -0.4852
     35 H          -9.4272   -1.2662   -1.8454 H       1  UNL1        0.0646
     36 H          -7.6609   -2.0247   -3.4577 H       1  UNL1        0.0620
     37 H          -5.3558   -1.3731   -3.0918 H       1  UNL1        0.0654
     38 H          -7.0630    0.7282    1.5526 H       1  UNL1        0.0316
     39 H          -6.5761    2.0390    0.4640 H       1  UNL1        0.0316
     40 H          -4.9486    0.0511    1.9837 H       1  UNL1        0.0307
     41 H          -4.6432    1.7670    1.6674 H       1  UNL1        0.0307
     42 H          -2.5632   -1.1463   -0.2608 H       1  UNL1        0.0319
     43 H          -3.8989   -1.5106    0.8893 H       1  UNL1        0.0319
     44 H          -1.7097   -1.3486    2.0181 H       1  UNL1        0.0465
     45 H          -2.8352   -0.0485    2.5948 H       1  UNL1        0.0465
     46 H           0.6940    2.3615    0.7917 H       1  UNL1        0.0653
     47 H           3.0851    1.7939    0.8084 H       1  UNL1        0.0642
     48 H           8.4844   -0.6624    1.6898 H       1  UNL1        0.0409
     49 H           7.7814    0.9831    1.2245 H       1  UNL1        0.0409
     50 H           8.9295   -2.2898   -0.0917 H       1  UNL1        0.0621
     51 H           9.5686   -2.5220   -2.4714 H       1  UNL1        0.0633
     52 H           9.1910   -0.6928   -4.0953 H       1  UNL1        0.0829
     53 H           7.5158    1.6631   -0.9869 H       1  UNL1        0.0832
     54 H          -1.2190    2.5343    0.4406 H       1  UNL1        0.0465
     55 H          -2.4296    2.2730    1.8004 H       1  UNL1        0.0465
     56 H          -2.5400    1.5750   -1.1233 H       1  UNL1        0.0319
     57 H          -3.6417    2.5732   -0.1270 H       1  UNL1        0.0319
@<TRIPOS>BOND
     1     1     2    1
     2     2     3   ar
     3     3     4   ar
     4     4     5   ar
     5     5     6   ar
     6     6     7   ar
     7     7     8    1
     8     8     9    1
     9     9    10    1
    10    10    11    1
    11    11    12    1
    12    12    13    1
    13    13    14    1
    14    14    15   ar
    15    15    16   ar
    16    16    17   ar
    17    17    18    1
    18    18    19   ar
    19    19    20   ar
    20    20    21   ar
    21    21    22    1
    22    22    23    1
    23    23    24   ar
    24    24    25   ar
    25    25    26   ar
    26    26    27   ar
    27    27    28   ar
    28    21    29   ar
    29    17    30   ar
    30    30    31   ar
    31    13    32    1
    32    32    33    1
    33    10    34    1
    34     7     2   ar
    35    33    10    1
    36    34     6    1
    37    31    14   ar
    38    29    18   ar
    39    28    23   ar
    40     3    35    1
    41     4    36    1
    42     5    37    1
    43     8    38    1
    44     8    39    1
    45     9    40    1
    46     9    41    1
    47    11    42    1
    48    11    43    1
    49    12    44    1
    50    12    45    1
    51    15    46    1
    52    16    47    1
    53    22    48    1
    54    22    49    1
    55    24    50    1
    56    25    51    1
    57    26    52    1
    58    28    53    1
    59    32    54    1
    60    32    55    1
    61    33    56    1
    62    33    57    1
