
     RDKit          3D

 49 51  0  0  0  0  0  0  0  0999 V2000
   -0.1428    0.9310    1.4738 C   0  0  1  0  0  0  0  0  0  0  0  0
    0.8486    0.6809    0.3482 C   0  0  0  0  0  0  0  0  0  0  0  0
    0.8044    1.7079   -0.5656 O   0  0  0  0  0  0  0  0  0  0  0  0
    1.9024    1.4073   -1.7906 P   0  0  0  0  0  0  0  0  0  0  0  0
    1.2278    1.8807   -3.2770 O   0  0  0  0  0  0  0  0  0  0  0  0
    3.1451    2.2361   -1.5711 O   0  0  0  0  0  0  0  0  0  0  0  0
    2.2622   -0.2420   -1.8053 O   0  0  0  0  0  0  0  0  0  0  0  0
    3.9339   -0.4590   -1.8509 P   0  0  0  0  0  0  0  0  0  0  0  0
    4.7136    0.9488   -2.3411 O   0  0  0  0  0  0  0  0  0  0  0  0
    4.2121   -1.5278   -2.8829 O   0  0  0  0  0  0  0  0  0  0  0  0
    4.4958   -0.9753   -0.2110 C   0  0  0  0  0  0  0  0  0  0  0  0
    5.7702    0.1099    0.4570 P   0  0  0  0  0  0  0  0  0  0  0  0
    5.4042    0.5783    2.0570 O   0  0  0  0  0  0  0  0  0  0  0  0
    7.2430   -0.7143    0.5277 O   0  0  0  0  0  0  0  0  0  0  0  0
    5.8694    1.3346   -0.3961 O   0  0  0  0  0  0  0  0  0  0  0  0
   -1.3966    1.0105    0.9321 O   0  0  0  0  0  0  0  0  0  0  0  0
   -2.2477    0.2075    1.6812 C   0  0  1  0  0  0  0  0  0  0  0  0
   -3.4406   -0.1242    0.9610 N   0  0  0  0  0  0  0  0  0  0  0  0
   -4.3601   -0.9996    1.3943 C   0  0  0  0  0  0  0  0  0  0  0  0
   -5.3701   -1.1198    0.5285 N   0  0  0  0  0  0  0  0  0  0  0  0
   -5.1209   -0.3039   -0.5117 C   0  0  0  0  0  0  0  0  0  0  0  0
   -5.7391    0.0350   -1.6994 C   0  0  0  0  0  0  0  0  0  0  0  0
   -6.9765   -0.5978   -1.9859 N   0  0  0  0  0  0  0  0  0  0  0  0
   -5.1535    0.9290   -2.5119 N   0  0  0  0  0  0  0  0  0  0  0  0
   -3.9823    1.5312   -2.2461 C   0  0  0  0  0  0  0  0  0  0  0  0
   -3.3751    1.2042   -1.0888 N   0  0  0  0  0  0  0  0  0  0  0  0
   -3.9212    0.3053   -0.2271 C   0  0  0  0  0  0  0  0  0  0  0  0
   -1.3571   -1.0220    1.8503 C   0  0  2  0  0  0  0  0  0  0  0  0
   -1.8855   -1.9270    2.7397 O   0  0  0  0  0  0  0  0  0  0  0  0
   -0.1023   -0.3300    2.3444 C   0  0  2  0  0  0  0  0  0  0  0  0
   -0.3090    0.0206    3.6699 O   0  0  0  0  0  0  0  0  0  0  0  0
    0.0837    1.8277    2.0442 H   0  0  0  0  0  0  0  0  0  0  0  0
    1.8982    0.6090    0.7594 H   0  0  0  0  0  0  0  0  0  0  0  0
    0.6531   -0.2824   -0.1420 H   0  0  0  0  0  0  0  0  0  0  0  0
    1.9559    1.8654   -3.9483 H   0  0  0  0  0  0  0  0  0  0  0  0
    5.6212    0.7834   -2.6644 H   0  0  0  0  0  0  0  0  0  0  0  0
    3.6576   -1.0261    0.5046 H   0  0  0  0  0  0  0  0  0  0  0  0
    4.9010   -2.0181   -0.3008 H   0  0  0  0  0  0  0  0  0  0  0  0
    4.7276   -0.0749    2.3902 H   0  0  0  0  0  0  0  0  0  0  0  0
    7.2265   -1.6059    0.1312 H   0  0  0  0  0  0  0  0  0  0  0  0
   -2.4193    0.6709    2.6657 H   0  0  0  0  0  0  0  0  0  0  0  0
   -4.3611   -1.5820    2.3222 H   0  0  0  0  0  0  0  0  0  0  0  0
   -7.3835   -1.3594   -2.5719 H   0  0  0  0  0  0  0  0  0  0  0  0
   -7.7446   -0.1746   -1.4388 H   0  0  0  0  0  0  0  0  0  0  0  0
   -3.5785    2.2408   -2.9549 H   0  0  0  0  0  0  0  0  0  0  0  0
   -1.1017   -1.4375    0.8558 H   0  0  0  0  0  0  0  0  0  0  0  0
   -1.9367   -2.8003    2.2351 H   0  0  0  0  0  0  0  0  0  0  0  0
    0.8041   -0.9289    2.1721 H   0  0  0  0  0  0  0  0  0  0  0  0
    0.0444    0.8857    3.9381 H   0  0  0  0  0  0  0  0  0  0  0  0
  1  2  1  0
  2  3  1  0
  3  4  1  0
  4  5  1  0
  4  6  2  0
  4  7  1  0
  7  8  1  0
  8  9  1  0
  8 10  2  0
  8 11  1  0
 11 12  1  0
 12 13  1  0
 12 14  1  0
 12 15  2  0
  1 16  1  0
 16 17  1  0
 17 18  1  0
 18 19  1  0
 19 20  2  0
 20 21  1  0
 21 22  2  0
 22 23  1  0
 22 24  1  0
 24 25  2  0
 25 26  1  0
 26 27  2  0
 17 28  1  0
 28 29  1  0
 28 30  1  0
 30 31  1  0
 30  1  1  0
 27 18  1  0
 27 21  1  0
  1 32  1  1
  2 33  1  0
  2 34  1  0
  5 35  1  0
  9 36  1  0
 11 37  1  0
 11 38  1  0
 13 39  1  0
 14 40  1  0
 17 41  1  1
 19 42  1  0
 23 43  1  0
 23 44  1  0
 25 45  1  0
 28 46  1  6
 29 47  1  0
 30 48  1  1
 31 49  1  0
M  END
$$$$
