@<TRIPOS>MOLECULE
*****
 52 55 0 0 0
SMALL
GASTEIGER

@<TRIPOS>ATOM
      1 C           6.5751    4.9675    2.2639 C.3     1  UNL1        0.0736
      2 S           7.7228    3.6092    2.3308 S.O2    1  UNL1        0.0403
      3 O           8.1971    3.2296    0.9455 O.2     1  UNL1       -0.1555
      4 O           8.9489    4.0517    3.0853 O.2     1  UNL1       -0.1555
      5 N           6.9939    2.2624    3.1056 N.pl3   1  UNL1       -0.2209
      6 C           5.8351    1.6723    2.5277 C.ar    1  UNL1        0.0477
      7 C           4.7851    1.3657    3.3602 C.ar    1  UNL1       -0.0388
      8 C           3.6684    0.7997    2.8189 C.ar    1  UNL1       -0.0520
      9 C           3.5127    0.5080    1.4789 C.ar    1  UNL1       -0.0112
     10 C           2.3054   -0.0983    0.9278 C.ar    1  UNL1        0.0643
     11 C           1.6699   -1.1759    1.5237 C.ar    1  UNL1        0.1038
     12 O           0.5848   -1.7260    1.0341 O.2     1  UNL1       -0.4621
     13 C           0.0044   -1.3051   -0.0636 C.ar    1  UNL1        0.1396
     14 C          -1.1357   -1.8824   -0.5790 C.ar    1  UNL1       -0.0032
     15 C          -1.7433   -1.4363   -1.7345 C.ar    1  UNL1        0.0285
     16 C          -2.9459   -2.0670   -2.2533 C.1     1  UNL1       -0.0658
     17 C          -3.9377   -2.5997   -2.6885 C.1     1  UNL1       -0.0905
     18 C          -5.1623   -3.2365   -3.2031 C.3     1  UNL1        0.0524
     19 C          -6.2815   -3.2455   -2.2167 C.3     1  UNL1        0.0299
     20 N          -6.6952   -1.9527   -2.7096 N.am    1  UNL1       -0.2972
     21 C          -7.4427   -0.8671   -2.1971 C.2     1  UNL1        0.2411
     22 O          -7.6314    0.1564   -2.9092 O.2     1  UNL1       -0.2731
     23 C          -8.0303   -0.8631   -0.8409 C.3     1  UNL1        0.1204
     24 O          -7.7605   -2.0335   -0.1486 O.3     1  UNL1       -0.3858
     25 C          -6.0171   -2.2468   -3.9493 C.3     1  UNL1        0.0299
     26 C          -1.1617   -0.3626   -2.3821 C.ar    1  UNL1       -0.0454
     27 C          -0.0116    0.2391   -1.8848 C.ar    1  UNL1       -0.0462
     28 C           0.5767   -0.2344   -0.7174 C.ar    1  UNL1        0.0646
     29 C           1.7176    0.3758   -0.2397 C.ar    1  UNL1        0.2001
     30 O           2.2228    1.3403   -0.8393 O.2     1  UNL1       -0.2864
     31 C           4.5917    0.8290    0.6587 C.ar    1  UNL1       -0.0520
     32 C           5.7495    1.4105    1.1879 C.ar    1  UNL1       -0.0388
     33 H           5.5998    4.7110    2.7382 H       1  UNL1        0.0482
     34 H           6.4462    5.2349    1.2062 H       1  UNL1        0.0482
     35 H           6.9788    5.8406    2.8194 H       1  UNL1        0.0482
     36 H           7.4189    1.8982    3.9950 H       1  UNL1        0.1733
     37 H           4.8690    1.5828    4.4370 H       1  UNL1        0.0637
     38 H           2.8434    0.5592    3.4753 H       1  UNL1        0.0624
     39 H           2.0993   -1.5641    2.4254 H       1  UNL1        0.1037
     40 H          -1.5589   -2.7123   -0.0509 H       1  UNL1        0.0667
     41 H          -4.9806   -4.1954   -3.7301 H       1  UNL1        0.0464
     42 H          -6.0069   -3.2842   -1.1494 H       1  UNL1        0.0477
     43 H          -7.0103   -4.0796   -2.4259 H       1  UNL1        0.0477
     44 H          -7.5733   -0.0313   -0.2758 H       1  UNL1        0.0654
     45 H          -9.1214   -0.7669   -0.9517 H       1  UNL1        0.0654
     46 H          -7.5399   -1.9058    0.7935 H       1  UNL1        0.2100
     47 H          -5.4511   -1.4041   -4.3909 H       1  UNL1        0.0477
     48 H          -6.6458   -2.7160   -4.7407 H       1  UNL1        0.0477
     49 H          -1.6062    0.0055   -3.2767 H       1  UNL1        0.0630
     50 H           0.4472    1.0755   -2.3830 H       1  UNL1        0.0626
     51 H           4.5402    0.6318   -0.3831 H       1  UNL1        0.0624
     52 H           6.5466    1.6357    0.5119 H       1  UNL1        0.0637
@<TRIPOS>BOND
     1     1     2    1
     2     2     3    2
     3     2     4    2
     4     2     5    1
     5     5     6    1
     6     6     7   ar
     7     7     8   ar
     8     8     9   ar
     9     9    10    1
    10    10    11   ar
    11    11    12   ar
    12    12    13   ar
    13    13    14   ar
    14    14    15   ar
    15    15    16    1
    16    16    17    3
    17    17    18    1
    18    18    19    1
    19    19    20    1
    20    20    21   am
    21    21    22    2
    22    21    23    1
    23    23    24    1
    24    20    25    1
    25    15    26   ar
    26    26    27   ar
    27    27    28   ar
    28    28    29   ar
    29    29    30    2
    30     9    31   ar
    31    31    32   ar
    32    32     6   ar
    33    29    10   ar
    34    28    13   ar
    35    25    18    1
    36     1    33    1
    37     1    34    1
    38     1    35    1
    39     5    36    1
    40     7    37    1
    41     8    38    1
    42    11    39    1
    43    14    40    1
    44    18    41    1
    45    19    42    1
    46    19    43    1
    47    23    44    1
    48    23    45    1
    49    24    46    1
    50    25    47    1
    51    25    48    1
    52    26    49    1
    53    27    50    1
    54    31    51    1
    55    32    52    1
