
     RDKit          3D

 52 55  0  0  0  0  0  0  0  0999 V2000
    6.5751    4.9675    2.2639 C   0  0  0  0  0  0  0  0  0  0  0  0
    7.7228    3.6092    2.3308 S   0  0  0  0  0  6  0  0  0  0  0  0
    8.1971    3.2296    0.9455 O   0  0  0  0  0  0  0  0  0  0  0  0
    8.9489    4.0517    3.0853 O   0  0  0  0  0  0  0  0  0  0  0  0
    6.9939    2.2624    3.1056 N   0  0  0  0  0  0  0  0  0  0  0  0
    5.8351    1.6723    2.5277 C   0  0  0  0  0  0  0  0  0  0  0  0
    4.7851    1.3657    3.3602 C   0  0  0  0  0  0  0  0  0  0  0  0
    3.6684    0.7997    2.8189 C   0  0  0  0  0  0  0  0  0  0  0  0
    3.5127    0.5080    1.4789 C   0  0  0  0  0  0  0  0  0  0  0  0
    2.3054   -0.0983    0.9278 C   0  0  0  0  0  0  0  0  0  0  0  0
    1.6699   -1.1759    1.5237 C   0  0  0  0  0  0  0  0  0  0  0  0
    0.5848   -1.7260    1.0341 O   0  0  0  0  0  0  0  0  0  0  0  0
    0.0044   -1.3051   -0.0636 C   0  0  0  0  0  0  0  0  0  0  0  0
   -1.1357   -1.8824   -0.5790 C   0  0  0  0  0  0  0  0  0  0  0  0
   -1.7433   -1.4363   -1.7345 C   0  0  0  0  0  0  0  0  0  0  0  0
   -2.9459   -2.0670   -2.2533 C   0  0  0  0  0  0  0  0  0  0  0  0
   -3.9377   -2.5997   -2.6885 C   0  0  0  0  0  0  0  0  0  0  0  0
   -5.1623   -3.2365   -3.2031 C   0  0  0  0  0  0  0  0  0  0  0  0
   -6.2815   -3.2455   -2.2167 C   0  0  0  0  0  0  0  0  0  0  0  0
   -6.6952   -1.9527   -2.7096 N   0  0  0  0  0  0  0  0  0  0  0  0
   -7.4427   -0.8671   -2.1971 C   0  0  0  0  0  0  0  0  0  0  0  0
   -7.6314    0.1564   -2.9092 O   0  0  0  0  0  0  0  0  0  0  0  0
   -8.0303   -0.8631   -0.8409 C   0  0  0  0  0  0  0  0  0  0  0  0
   -7.7605   -2.0335   -0.1486 O   0  0  0  0  0  0  0  0  0  0  0  0
   -6.0171   -2.2468   -3.9493 C   0  0  0  0  0  0  0  0  0  0  0  0
   -1.1617   -0.3626   -2.3821 C   0  0  0  0  0  0  0  0  0  0  0  0
   -0.0116    0.2391   -1.8848 C   0  0  0  0  0  0  0  0  0  0  0  0
    0.5767   -0.2344   -0.7174 C   0  0  0  0  0  0  0  0  0  0  0  0
    1.7176    0.3758   -0.2397 C   0  0  0  0  0  0  0  0  0  0  0  0
    2.2228    1.3403   -0.8393 O   0  0  0  0  0  0  0  0  0  0  0  0
    4.5917    0.8290    0.6587 C   0  0  0  0  0  0  0  0  0  0  0  0
    5.7495    1.4105    1.1879 C   0  0  0  0  0  0  0  0  0  0  0  0
    5.5998    4.7110    2.7382 H   0  0  0  0  0  0  0  0  0  0  0  0
    6.4462    5.2349    1.2062 H   0  0  0  0  0  0  0  0  0  0  0  0
    6.9788    5.8406    2.8194 H   0  0  0  0  0  0  0  0  0  0  0  0
    7.4189    1.8982    3.9950 H   0  0  0  0  0  0  0  0  0  0  0  0
    4.8690    1.5828    4.4370 H   0  0  0  0  0  0  0  0  0  0  0  0
    2.8434    0.5592    3.4753 H   0  0  0  0  0  0  0  0  0  0  0  0
    2.0993   -1.5641    2.4254 H   0  0  0  0  0  0  0  0  0  0  0  0
   -1.5589   -2.7123   -0.0509 H   0  0  0  0  0  0  0  0  0  0  0  0
   -4.9806   -4.1954   -3.7301 H   0  0  0  0  0  0  0  0  0  0  0  0
   -6.0069   -3.2842   -1.1494 H   0  0  0  0  0  0  0  0  0  0  0  0
   -7.0103   -4.0796   -2.4259 H   0  0  0  0  0  0  0  0  0  0  0  0
   -7.5733   -0.0313   -0.2758 H   0  0  0  0  0  0  0  0  0  0  0  0
   -9.1214   -0.7669   -0.9517 H   0  0  0  0  0  0  0  0  0  0  0  0
   -7.5399   -1.9058    0.7935 H   0  0  0  0  0  0  0  0  0  0  0  0
   -5.4511   -1.4041   -4.3909 H   0  0  0  0  0  0  0  0  0  0  0  0
   -6.6458   -2.7160   -4.7407 H   0  0  0  0  0  0  0  0  0  0  0  0
   -1.6062    0.0055   -3.2767 H   0  0  0  0  0  0  0  0  0  0  0  0
    0.4472    1.0755   -2.3830 H   0  0  0  0  0  0  0  0  0  0  0  0
    4.5402    0.6318   -0.3831 H   0  0  0  0  0  0  0  0  0  0  0  0
    6.5466    1.6357    0.5119 H   0  0  0  0  0  0  0  0  0  0  0  0
  1  2  1  0
  2  3  2  0
  2  4  2  0
  2  5  1  0
  5  6  1  0
  6  7  2  0
  7  8  1  0
  8  9  2  0
  9 10  1  0
 10 11  2  0
 11 12  1  0
 12 13  1  0
 13 14  2  0
 14 15  1  0
 15 16  1  0
 16 17  3  0
 17 18  1  0
 18 19  1  0
 19 20  1  0
 20 21  1  0
 21 22  2  0
 21 23  1  0
 23 24  1  0
 20 25  1  0
 15 26  2  0
 26 27  1  0
 27 28  2  0
 28 29  1  0
 29 30  2  0
  9 31  1  0
 31 32  2  0
 32  6  1  0
 29 10  1  0
 28 13  1  0
 25 18  1  0
  1 33  1  0
  1 34  1  0
  1 35  1  0
  5 36  1  0
  7 37  1  0
  8 38  1  0
 11 39  1  0
 14 40  1  0
 18 41  1  0
 19 42  1  0
 19 43  1  0
 23 44  1  0
 23 45  1  0
 24 46  1  0
 25 47  1  0
 25 48  1  0
 26 49  1  0
 27 50  1  0
 31 51  1  0
 32 52  1  0
M  END
$$$$
