@<TRIPOS>MOLECULE
*****
 36 38 0 0 0
SMALL
GASTEIGER

@<TRIPOS>ATOM
      1 C          -0.8953   -3.8457    0.3465 C.3     1  UNL1       -0.0222
      2 C          -0.9677   -2.4192   -0.1148 C.ar    1  UNL1        0.0426
      3 C          -2.1390   -1.8562   -0.5600 C.ar    1  UNL1        0.0018
      4 C          -2.1613   -0.5248   -0.9802 C.ar    1  UNL1        0.1324
      5 O          -3.3532    0.0262   -1.4264 O.3     1  UNL1       -0.4529
      6 C          -4.2242    0.6565   -0.5480 C.ar    1  UNL1        0.1644
      7 C          -5.3811    1.1768   -1.0583 C.ar    1  UNL1        0.0730
      8 N          -6.2437    1.7966   -0.2114 N.ar    1  UNL1       -0.2401
      9 C          -5.9880    1.9074    1.0965 C.ar    1  UNL1        0.1161
     10 N          -4.8457    1.3882    1.5714 N.ar    1  UNL1       -0.2401
     11 C          -3.9448    0.7615    0.7964 C.ar    1  UNL1        0.0730
     12 C          -0.9804    0.1800   -0.9280 C.ar    1  UNL1        0.0112
     13 C           0.1934   -0.3850   -0.4816 C.ar    1  UNL1        0.1295
     14 C           1.4335    0.3805   -0.4347 C.2     1  UNL1        0.2678
     15 O           1.4535    1.5652   -0.7994 O.2     1  UNL1       -0.2681
     16 N           2.6125   -0.2752    0.0411 N.am    1  UNL1       -0.2651
     17 C           3.8513    0.4217    0.1091 C.ar    1  UNL1        0.1253
     18 C           4.7255    0.4228   -0.9688 C.ar    1  UNL1       -0.0188
     19 C           5.9277    1.0967   -0.9084 C.ar    1  UNL1       -0.0217
     20 C           6.2937    1.7897    0.2296 C.ar    1  UNL1        0.1415
     21 F           7.4733    2.4634    0.3178 F       1  UNL1       -0.2039
     22 C           5.4041    1.7703    1.2848 C.ar    1  UNL1        0.0649
     23 N           4.2379    1.1056    1.2008 N.ar    1  UNL1       -0.2373
     24 N           0.1439   -1.6834   -0.0883 N.ar    1  UNL1       -0.2470
     25 H          -0.0667   -4.3560   -0.1961 H       1  UNL1        0.0293
     26 H          -0.6772   -3.8328    1.4339 H       1  UNL1        0.0293
     27 H          -1.8154   -4.3776    0.0907 H       1  UNL1        0.0293
     28 H          -3.0176   -2.4766   -0.5689 H       1  UNL1        0.0672
     29 H          -5.6789    1.1410   -2.0881 H       1  UNL1        0.0868
     30 H          -6.6419    2.3901    1.8066 H       1  UNL1        0.1047
     31 H          -3.0433    0.3607    1.2190 H       1  UNL1        0.0868
     32 H          -0.9823    1.2083   -1.2490 H       1  UNL1        0.0677
     33 H           2.5367   -1.2810    0.3372 H       1  UNL1        0.1566
     34 H           4.4307   -0.1191   -1.8482 H       1  UNL1        0.0653
     35 H           6.6229    1.1024   -1.7545 H       1  UNL1        0.0648
     36 H           5.7073    2.3206    2.1729 H       1  UNL1        0.0859
@<TRIPOS>BOND
     1     1     2    1
     2     2     3   ar
     3     3     4   ar
     4     4     5    1
     5     5     6    1
     6     6     7   ar
     7     7     8   ar
     8     8     9   ar
     9     9    10   ar
    10    10    11   ar
    11     4    12   ar
    12    12    13   ar
    13    13    14    1
    14    14    15    2
    15    14    16   am
    16    16    17    1
    17    17    18   ar
    18    18    19   ar
    19    19    20   ar
    20    20    21    1
    21    20    22   ar
    22    22    23   ar
    23    13    24   ar
    24    24     2   ar
    25    11     6   ar
    26    23    17   ar
    27     1    25    1
    28     1    26    1
    29     1    27    1
    30     3    28    1
    31     7    29    1
    32     9    30    1
    33    11    31    1
    34    12    32    1
    35    16    33    1
    36    18    34    1
    37    19    35    1
    38    22    36    1
