
     RDKit          3D

 53 56  0  0  0  0  0  0  0  0999 V2000
   -7.3216    0.0428    2.0770 N   0  0  0  0  0  0  0  0  0  0  0  0
   -6.4489    0.0276    0.9401 C   0  0  0  0  0  0  0  0  0  0  0  0
   -5.2021   -0.2436    1.0640 N   0  0  0  0  0  0  0  0  0  0  0  0
   -4.2398   -0.2897    0.0162 C   0  0  2  0  0  0  0  0  0  0  0  0
   -3.6878   -1.7242    0.0217 C   0  0  0  0  0  0  0  0  0  0  0  0
   -3.1120   -2.0457    1.2115 F   0  0  0  0  0  0  0  0  0  0  0  0
   -3.1562    0.6812    0.3591 C   0  0  0  0  0  0  0  0  0  0  0  0
   -1.8477    0.3815    0.5253 C   0  0  0  0  0  0  0  0  0  0  0  0
   -0.8908    1.3391    0.8384 C   0  0  0  0  0  0  0  0  0  0  0  0
    0.4840    0.9504    1.0013 N   0  0  0  0  0  0  0  0  0  0  0  0
    1.3897    0.9419   -0.0979 C   0  0  0  0  0  0  0  0  0  0  0  0
    0.9685    1.2821   -1.2252 O   0  0  0  0  0  0  0  0  0  0  0  0
    2.7886    0.5486    0.0576 C   0  0  0  0  0  0  0  0  0  0  0  0
    3.6343    0.5533   -1.0302 C   0  0  0  0  0  0  0  0  0  0  0  0
    4.9650    0.1815   -0.8944 C   0  0  0  0  0  0  0  0  0  0  0  0
    5.3927   -0.1909    0.3819 C   0  0  0  0  0  0  0  0  0  0  0  0
    6.7671   -0.5878    0.5849 C   0  0  0  0  0  0  0  0  0  0  0  0
    7.9121   -0.9380    0.7544 C   0  0  0  0  0  0  0  0  0  0  0  0
    9.3076   -1.3382    0.9613 C   0  0  0  0  0  0  0  0  0  0  0  0
   10.3225   -0.7628    0.0718 C   0  0  0  0  0  0  0  0  0  0  0  0
    9.9676   -2.1826   -0.1415 C   0  0  0  0  0  0  0  0  0  0  0  0
    4.5095   -0.1803    1.4425 C   0  0  0  0  0  0  0  0  0  0  0  0
    3.2179    0.1890    1.2693 N   0  0  0  0  0  0  0  0  0  0  0  0
   -1.3015    2.6388    0.9821 C   0  0  0  0  0  0  0  0  0  0  0  0
   -2.6198    3.0075    0.8252 C   0  0  0  0  0  0  0  0  0  0  0  0
   -3.5285    2.0196    0.5152 C   0  0  0  0  0  0  0  0  0  0  0  0
   -4.8186    2.4025    0.3653 F   0  0  0  0  0  0  0  0  0  0  0  0
   -4.7361    0.0435   -1.3494 C   0  0  0  0  0  0  0  0  0  0  0  0
   -6.2006    0.1899   -1.4962 C   0  0  1  0  0  0  0  0  0  0  0  0
   -6.8409   -0.9377   -2.3129 C   0  0  0  0  0  0  0  0  0  0  0  0
   -8.2072   -0.6427   -2.3502 F   0  0  0  0  0  0  0  0  0  0  0  0
   -6.3912   -0.9238   -3.6087 F   0  0  0  0  0  0  0  0  0  0  0  0
   -6.7207   -2.1527   -1.7089 F   0  0  0  0  0  0  0  0  0  0  0  0
   -6.9221    0.3034   -0.3182 O   0  0  0  0  0  0  0  0  0  0  0  0
   -7.1848    0.6510    2.9058 H   0  0  0  0  0  0  0  0  0  0  0  0
   -8.1349   -0.6008    2.0518 H   0  0  0  0  0  0  0  0  0  0  0  0
   -4.5421   -2.3965   -0.1382 H   0  0  0  0  0  0  0  0  0  0  0  0
   -3.0022   -1.8467   -0.8396 H   0  0  0  0  0  0  0  0  0  0  0  0
   -1.5298   -0.6554    0.4042 H   0  0  0  0  0  0  0  0  0  0  0  0
    0.8255    0.6688    1.9439 H   0  0  0  0  0  0  0  0  0  0  0  0
    3.2749    0.8477   -2.0122 H   0  0  0  0  0  0  0  0  0  0  0  0
    5.6664    0.1663   -1.7033 H   0  0  0  0  0  0  0  0  0  0  0  0
    9.6159   -1.6494    1.9884 H   0  0  0  0  0  0  0  0  0  0  0  0
   11.3352   -0.5689    0.5317 H   0  0  0  0  0  0  0  0  0  0  0  0
   10.0646   -0.0552   -0.7298 H   0  0  0  0  0  0  0  0  0  0  0  0
   10.6161   -3.0123    0.1639 H   0  0  0  0  0  0  0  0  0  0  0  0
    9.2835   -2.4053   -0.9944 H   0  0  0  0  0  0  0  0  0  0  0  0
    4.7971   -0.4610    2.4479 H   0  0  0  0  0  0  0  0  0  0  0  0
   -0.5396    3.3728    1.2267 H   0  0  0  0  0  0  0  0  0  0  0  0
   -2.9267    4.0549    0.9448 H   0  0  0  0  0  0  0  0  0  0  0  0
   -4.2153    0.9571   -1.7638 H   0  0  0  0  0  0  0  0  0  0  0  0
   -4.4084   -0.7684   -2.0560 H   0  0  0  0  0  0  0  0  0  0  0  0
   -6.4287    1.1178   -2.1013 H   0  0  0  0  0  0  0  0  0  0  0  0
  1  2  1  0
  2  3  2  0
  3  4  1  0
  4  5  1  6
  5  6  1  0
  4  7  1  0
  7  8  2  0
  8  9  1  0
  9 10  1  0
 10 11  1  0
 11 12  2  0
 11 13  1  0
 13 14  2  0
 14 15  1  0
 15 16  2  0
 16 17  1  0
 17 18  3  0
 18 19  1  0
 19 20  1  0
 20 21  1  0
 16 22  1  0
 22 23  2  0
  9 24  2  0
 24 25  1  0
 25 26  2  0
 26 27  1  0
  4 28  1  0
 28 29  1  0
 29 30  1  0
 30 31  1  0
 30 32  1  0
 30 33  1  0
 29 34  1  0
 34  2  1  0
 26  7  1  0
 23 13  1  0
 21 19  1  0
  1 35  1  0
  1 36  1  0
  5 37  1  0
  5 38  1  0
  8 39  1  0
 10 40  1  0
 14 41  1  0
 15 42  1  0
 19 43  1  0
 20 44  1  0
 20 45  1  0
 21 46  1  0
 21 47  1  0
 22 48  1  0
 24 49  1  0
 25 50  1  0
 28 51  1  0
 28 52  1  0
 29 53  1  6
M  END
$$$$
