@<TRIPOS>MOLECULE
*****
 53 56 0 0 0
SMALL
GASTEIGER

@<TRIPOS>ATOM
      1 N          -7.3216    0.0428    2.0770 N.pl3   1  UNL1       -0.3134
      2 C          -6.4489    0.0276    0.9401 C.2     1  UNL1        0.2766
      3 N          -5.2021   -0.2436    1.0640 N.2     1  UNL1       -0.2228
      4 C          -4.2398   -0.2897    0.0162 C.3     1  UNL1        0.1258
      5 C          -3.6878   -1.7242    0.0217 C.3     1  UNL1        0.1196
      6 F          -3.1120   -2.0457    1.2115 F       1  UNL1       -0.2462
      7 C          -3.1562    0.6812    0.3591 C.ar    1  UNL1        0.0196
      8 C          -1.8477    0.3815    0.5253 C.ar    1  UNL1       -0.0322
      9 C          -0.8908    1.3391    0.8384 C.ar    1  UNL1        0.0342
     10 N           0.4840    0.9504    1.0013 N.am    1  UNL1       -0.2802
     11 C           1.3897    0.9419   -0.0979 C.2     1  UNL1        0.2666
     12 O           0.9685    1.2821   -1.2252 O.2     1  UNL1       -0.2682
     13 C           2.7886    0.5486    0.0576 C.ar    1  UNL1        0.1257
     14 C           3.6343    0.5533   -1.0302 C.ar    1  UNL1       -0.0300
     15 C           4.9650    0.1815   -0.8944 C.ar    1  UNL1       -0.0427
     16 C           5.3927   -0.1909    0.3819 C.ar    1  UNL1        0.0430
     17 C           6.7671   -0.5878    0.5849 C.1     1  UNL1       -0.0645
     18 C           7.9121   -0.9380    0.7544 C.1     1  UNL1       -0.0936
     19 C           9.3076   -1.3382    0.9613 C.3     1  UNL1        0.0211
     20 C          10.3225   -0.7628    0.0718 C.3     1  UNL1       -0.0382
     21 C           9.9676   -2.1826   -0.1415 C.3     1  UNL1       -0.0382
     22 C           4.5095   -0.1803    1.4425 C.ar    1  UNL1        0.0438
     23 N           3.2179    0.1890    1.2693 N.ar    1  UNL1       -0.2491
     24 C          -1.3015    2.6388    0.9821 C.ar    1  UNL1       -0.0377
     25 C          -2.6198    3.0075    0.8252 C.ar    1  UNL1       -0.0243
     26 C          -3.5285    2.0196    0.5152 C.ar    1  UNL1        0.1291
     27 F          -4.8186    2.4025    0.3653 F       1  UNL1       -0.2051
     28 C          -4.7361    0.0435   -1.3494 C.3     1  UNL1        0.0251
     29 C          -6.2006    0.1899   -1.4962 C.3     1  UNL1        0.1998
     30 C          -6.8409   -0.9377   -2.3129 C.3     1  UNL1        0.4266
     31 F          -8.2072   -0.6427   -2.3502 F       1  UNL1       -0.1669
     32 F          -6.3912   -0.9238   -3.6087 F       1  UNL1       -0.1669
     33 F          -6.7207   -2.1527   -1.7089 F       1  UNL1       -0.1669
     34 O          -6.9221    0.3034   -0.3182 O.2     1  UNL1       -0.4534
     35 H          -7.1848    0.6510    2.9058 H       1  UNL1        0.1466
     36 H          -8.1349   -0.6008    2.0518 H       1  UNL1        0.1466
     37 H          -4.5421   -2.3965   -0.1382 H       1  UNL1        0.0643
     38 H          -3.0022   -1.8467   -0.8396 H       1  UNL1        0.0643
     39 H          -1.5298   -0.6554    0.4042 H       1  UNL1        0.0640
     40 H           0.8255    0.6688    1.9439 H       1  UNL1        0.1552
     41 H           3.2749    0.8477   -2.0122 H       1  UNL1        0.0641
     42 H           5.6664    0.1663   -1.7033 H       1  UNL1        0.0631
     43 H           9.6159   -1.6494    1.9884 H       1  UNL1        0.0433
     44 H          11.3352   -0.5689    0.5317 H       1  UNL1        0.0277
     45 H          10.0646   -0.0552   -0.7298 H       1  UNL1        0.0277
     46 H          10.6161   -3.0123    0.1639 H       1  UNL1        0.0277
     47 H           9.2835   -2.4053   -0.9944 H       1  UNL1        0.0277
     48 H           4.7971   -0.4610    2.4479 H       1  UNL1        0.0842
     49 H          -0.5396    3.3728    1.2267 H       1  UNL1        0.0637
     50 H          -2.9267    4.0549    0.9448 H       1  UNL1        0.0647
     51 H          -4.2153    0.9571   -1.7638 H       1  UNL1        0.0331
     52 H          -4.4084   -0.7684   -2.0560 H       1  UNL1        0.0331
     53 H          -6.4287    1.1178   -2.1013 H       1  UNL1        0.0826
@<TRIPOS>BOND
     1     1     2    1
     2     2     3    2
     3     3     4    1
     4     4     5    1
     5     5     6    1
     6     4     7    1
     7     7     8   ar
     8     8     9   ar
     9     9    10    1
    10    10    11   am
    11    11    12    2
    12    11    13    1
    13    13    14   ar
    14    14    15   ar
    15    15    16   ar
    16    16    17    1
    17    17    18    3
    18    18    19    1
    19    19    20    1
    20    20    21    1
    21    16    22   ar
    22    22    23   ar
    23     9    24   ar
    24    24    25   ar
    25    25    26   ar
    26    26    27    1
    27     4    28    1
    28    28    29    1
    29    29    30    1
    30    30    31    1
    31    30    32    1
    32    30    33    1
    33    29    34    1
    34    34     2    1
    35    26     7   ar
    36    23    13   ar
    37    21    19    1
    38     1    35    1
    39     1    36    1
    40     5    37    1
    41     5    38    1
    42     8    39    1
    43    10    40    1
    44    14    41    1
    45    15    42    1
    46    19    43    1
    47    20    44    1
    48    20    45    1
    49    21    46    1
    50    21    47    1
    51    22    48    1
    52    24    49    1
    53    25    50    1
    54    28    51    1
    55    28    52    1
    56    29    53    1
