@<TRIPOS>MOLECULE
*****
 61 65 0 0 0
SMALL
GASTEIGER

@<TRIPOS>ATOM
      1 C           3.3977   -0.2493    1.4986 C.3     1  UNL1        0.1024
      2 C           3.7892   -1.4549    2.2978 C.3     1  UNL1       -0.0243
      3 C           2.6145   -1.7900    3.1893 C.3     1  UNL1       -0.0350
      4 C           1.4178   -1.4703    2.3189 C.3     1  UNL1        0.0155
      5 N           1.9318   -0.3743    1.5153 N.am    1  UNL1       -0.2899
      6 C           1.1815    0.5889    0.7450 C.2     1  UNL1        0.2179
      7 O           1.6516    1.5482    0.0427 O.2     1  UNL1       -0.2755
      8 C          -0.3077    0.4542    0.7681 C.3     1  UNL1        0.0422
      9 C          -0.9821    1.5312   -0.0840 C.3     1  UNL1        0.0351
     10 N          -2.4252    1.4126   -0.0705 N.ar    1  UNL1       -0.3045
     11 C          -3.0471    0.6547   -1.0200 C.ar    1  UNL1        0.2779
     12 O          -2.3363    0.0720   -1.8948 O.2     1  UNL1       -0.2653
     13 C          -4.4121    0.4866   -1.0810 C.ar    1  UNL1        0.1360
     14 N          -5.1997    1.0737   -0.1908 N.ar    1  UNL1       -0.2398
     15 C          -4.6358    1.8278    0.7609 C.ar    1  UNL1        0.0882
     16 C          -5.4374    2.4474    1.7011 C.ar    1  UNL1       -0.0343
     17 C          -4.8764    3.2327    2.6999 C.ar    1  UNL1       -0.0596
     18 C          -3.4953    3.3833    2.7359 C.ar    1  UNL1       -0.0597
     19 C          -2.7156    2.7591    1.7921 C.ar    1  UNL1       -0.0360
     20 C          -3.2734    1.9805    0.8015 C.ar    1  UNL1        0.0703
     21 C          -5.0602   -0.3248   -2.0997 C.ar    1  UNL1        0.0057
     22 C          -6.1850    0.2155   -2.7108 C.ar    1  UNL1       -0.0524
     23 C          -6.8195   -0.5361   -3.6831 C.ar    1  UNL1       -0.0611
     24 C          -6.3880   -1.8025   -4.0779 C.ar    1  UNL1       -0.0617
     25 C          -5.2695   -2.3214   -3.4593 C.ar    1  UNL1       -0.0611
     26 C          -4.6208   -1.5735   -2.4774 C.ar    1  UNL1       -0.0524
     27 C           3.7688   -0.3857    0.0549 C.2     1  UNL1        0.2361
     28 O           3.2150   -0.5664   -1.0634 O.2     1  UNL1       -0.2736
     29 N           5.1512   -0.2981   -0.2491 N.am    1  UNL1       -0.2999
     30 C           5.6683   -0.4111   -1.6019 C.3     1  UNL1        0.0148
     31 C           6.5850   -1.6271   -1.4598 C.3     1  UNL1       -0.0357
     32 C           7.2751   -1.2696   -0.1396 C.3     1  UNL1       -0.0357
     33 C           6.4443   -0.1047    0.4120 C.3     1  UNL1        0.0148
     34 H           3.7343    0.7133    1.9056 H       1  UNL1        0.0597
     35 H           4.0194   -2.3397    1.6927 H       1  UNL1        0.0288
     36 H           4.7170   -1.2734    2.9111 H       1  UNL1        0.0288
     37 H           2.6510   -1.1251    4.0831 H       1  UNL1        0.0281
     38 H           2.6190   -2.8653    3.4870 H       1  UNL1        0.0281
     39 H           0.5375   -1.1665    2.9179 H       1  UNL1        0.0465
     40 H           1.2182   -2.3443    1.6764 H       1  UNL1        0.0465
     41 H          -0.5851   -0.5509    0.3926 H       1  UNL1        0.0376
     42 H          -0.6693    0.5421    1.8018 H       1  UNL1        0.0376
     43 H          -0.6787    2.5490    0.1912 H       1  UNL1        0.0497
     44 H          -0.6363    1.2778   -1.1361 H       1  UNL1        0.0497
     45 H          -6.4987    2.3028    1.6343 H       1  UNL1        0.0639
     46 H          -5.5811    3.6763    3.3891 H       1  UNL1        0.0618
     47 H          -3.0868    4.0032    3.5286 H       1  UNL1        0.0618
     48 H          -1.6618    2.9188    1.8853 H       1  UNL1        0.0639
     49 H          -6.6099    1.1863   -2.4861 H       1  UNL1        0.0624
     50 H          -7.6832   -0.1515   -4.1705 H       1  UNL1        0.0618
     51 H          -6.9526   -2.3314   -4.8602 H       1  UNL1        0.0618
     52 H          -4.9205   -3.3082   -3.7564 H       1  UNL1        0.0618
     53 H          -3.7306   -1.9925   -1.9885 H       1  UNL1        0.0624
     54 H           4.8768   -0.6086   -2.3541 H       1  UNL1        0.0464
     55 H           6.3252    0.4327   -1.8919 H       1  UNL1        0.0464
     56 H           5.9465   -2.5337   -1.3632 H       1  UNL1        0.0281
     57 H           7.3235   -1.7002   -2.2558 H       1  UNL1        0.0281
     58 H           8.3184   -0.9942   -0.3169 H       1  UNL1        0.0281
     59 H           7.1248   -2.1059    0.5720 H       1  UNL1        0.0281
     60 H           6.9110    0.8212    0.0074 H       1  UNL1        0.0464
     61 H           6.3674   -0.1406    1.4977 H       1  UNL1        0.0464
@<TRIPOS>BOND
     1     1     2    1
     2     2     3    1
     3     3     4    1
     4     4     5    1
     5     5     6   am
     6     6     7    2
     7     6     8    1
     8     8     9    1
     9     9    10    1
    10    10    11   ar
    11    11    12    2
    12    11    13   ar
    13    13    14   ar
    14    14    15   ar
    15    15    16   ar
    16    16    17   ar
    17    17    18   ar
    18    18    19   ar
    19    19    20   ar
    20    13    21    1
    21    21    22   ar
    22    22    23   ar
    23    23    24   ar
    24    24    25   ar
    25    25    26   ar
    26     1    27    1
    27    27    28    2
    28    27    29   am
    29    29    30    1
    30    30    31    1
    31    31    32    1
    32    32    33    1
    33     5     1    1
    34    20    10   ar
    35    26    21   ar
    36    33    29    1
    37    20    15   ar
    38     1    34    1
    39     2    35    1
    40     2    36    1
    41     3    37    1
    42     3    38    1
    43     4    39    1
    44     4    40    1
    45     8    41    1
    46     8    42    1
    47     9    43    1
    48     9    44    1
    49    16    45    1
    50    17    46    1
    51    18    47    1
    52    19    48    1
    53    22    49    1
    54    23    50    1
    55    24    51    1
    56    25    52    1
    57    26    53    1
    58    30    54    1
    59    30    55    1
    60    31    56    1
    61    31    57    1
    62    32    58    1
    63    32    59    1
    64    33    60    1
    65    33    61    1
