@<TRIPOS>MOLECULE
*****
 28 29 0 0 0
SMALL
GASTEIGER

@<TRIPOS>ATOM
      1 C          -0.5926   -2.1969   -0.3417 C.3     1  UNL1       -0.0386
      2 C          -0.2626   -0.7746   -0.0566 C.ar    1  UNL1       -0.0298
      3 C          -1.2324    0.1398    0.3466 C.ar    1  UNL1        0.0427
      4 C          -2.6187   -0.3477    0.4976 C.3     1  UNL1        0.0026
      5 C          -3.6488    0.7329    0.6531 C.3     1  UNL1        0.0484
      6 O          -3.6518    1.5576   -0.4691 O.3     1  UNL1       -0.3947
      7 C          -0.7494    1.4097    0.5639 C.ar    1  UNL1        0.3408
      8 O          -1.5817    2.2781    0.9308 O.2     1  UNL1       -0.2449
      9 O           0.5058    1.7556    0.4127 O.2     1  UNL1       -0.4218
     10 C           1.4437    0.9223    0.0352 C.ar    1  UNL1        0.1428
     11 C           2.7557    1.3364   -0.1099 C.ar    1  UNL1        0.0229
     12 C           3.7474    0.4391   -0.5129 C.ar    1  UNL1        0.1204
     13 O           5.0216    0.9832   -0.6190 O.3     1  UNL1       -0.5066
     14 C           3.3614   -0.8604   -0.7555 C.ar    1  UNL1       -0.0194
     15 C           2.0477   -1.2547   -0.6052 C.ar    1  UNL1       -0.0474
     16 C           1.0604   -0.3805   -0.2085 C.ar    1  UNL1        0.0210
     17 H           0.1354   -2.9048    0.1536 H       1  UNL1        0.0278
     18 H          -1.5705   -2.4410    0.1424 H       1  UNL1        0.0278
     19 H          -0.7009   -2.4032   -1.4140 H       1  UNL1        0.0278
     20 H          -2.9395   -0.9968   -0.3692 H       1  UNL1        0.0338
     21 H          -2.6055   -1.0261    1.3902 H       1  UNL1        0.0338
     22 H          -3.5975    1.2994    1.5841 H       1  UNL1        0.0560
     23 H          -4.6398    0.2250    0.6486 H       1  UNL1        0.0560
     24 H          -4.0388    2.4311   -0.2833 H       1  UNL1        0.2094
     25 H           2.9403    2.3715    0.1065 H       1  UNL1        0.0691
     26 H           5.4253    1.5249    0.1602 H       1  UNL1        0.2921
     27 H           4.1656   -1.5248   -1.0658 H       1  UNL1        0.0654
     28 H           1.8205   -2.2952   -0.8148 H       1  UNL1        0.0626
@<TRIPOS>BOND
     1     1     2    1
     2     2     3   ar
     3     3     4    1
     4     4     5    1
     5     5     6    1
     6     3     7   ar
     7     7     8    2
     8     7     9   ar
     9     9    10   ar
    10    10    11   ar
    11    11    12   ar
    12    12    13    1
    13    12    14   ar
    14    14    15   ar
    15    15    16   ar
    16    16     2   ar
    17    16    10   ar
    18     1    17    1
    19     1    18    1
    20     1    19    1
    21     4    20    1
    22     4    21    1
    23     5    22    1
    24     5    23    1
    25     6    24    1
    26    11    25    1
    27    13    26    1
    28    14    27    1
    29    15    28    1
