@<TRIPOS>MOLECULE
*****
 56 60 0 0 0
SMALL
GASTEIGER

@<TRIPOS>ATOM
      1 C          -2.4919    0.8007    4.3180 C.3     1  UNL1        0.0789
      2 O          -2.8336   -0.4779    3.8173 O.3     1  UNL1       -0.4936
      3 C          -2.8860   -0.6358    2.4424 C.ar    1  UNL1        0.1392
      4 C          -2.6202    0.3966    1.5518 C.ar    1  UNL1       -0.0043
      5 C          -2.6813    0.2056    0.1880 C.ar    1  UNL1        0.0675
      6 C          -2.4213    1.3067   -0.7088 C.2     1  UNL1        0.2492
      7 O          -3.5034    1.9992   -0.9694 O.2     1  UNL1       -0.2699
      8 N          -1.2331    1.7041   -1.2980 N.am    1  UNL1       -0.2897
      9 C          -1.2397    2.8921   -2.1763 C.3     1  UNL1        0.0388
     10 C           0.1211    3.5433   -1.8626 C.3     1  UNL1        0.0635
     11 O           0.4815    3.3346   -0.5511 O.3     1  UNL1       -0.3764
     12 C           0.8482    2.0325   -0.2424 C.3     1  UNL1        0.0666
     13 C           0.0304    1.0922   -1.1578 C.3     1  UNL1        0.0537
     14 C           0.1041   -0.3143   -0.6903 C.3     1  UNL1       -0.0068
     15 C           1.5795   -0.6626   -0.6613 C.ar    1  UNL1       -0.0435
     16 C           2.1661   -1.1918   -1.7712 C.ar    1  UNL1       -0.0584
     17 C           3.5177   -1.5354   -1.8146 C.ar    1  UNL1       -0.0594
     18 C           4.2566   -1.3103   -0.6528 C.ar    1  UNL1       -0.0345
     19 C           3.6994   -0.7775    0.4881 C.ar    1  UNL1        0.0864
     20 N           4.5412   -0.5897    1.6145 N.ar    1  UNL1       -0.1503
     21 N           4.5774    0.4922    2.3850 N.ar    1  UNL1       -0.1556
     22 C           5.4867    0.3413    3.3638 C.ar    1  UNL1        0.0697
     23 C           6.0466   -0.9050    3.1910 C.ar    1  UNL1        0.0697
     24 N           5.4406   -1.4331    2.1159 N.ar    1  UNL1       -0.1556
     25 C           2.3556   -0.4610    0.4588 C.ar    1  UNL1       -0.0313
     26 C          -3.0156   -1.0452   -0.2702 C.ar    1  UNL1        0.0998
     27 N          -3.1068   -1.3095   -1.6801 N.ar    1  UNL1       -0.1495
     28 N          -2.7482   -2.4144   -2.3022 N.ar    1  UNL1       -0.1556
     29 C          -2.9747   -2.3076   -3.6096 C.ar    1  UNL1        0.0697
     30 C          -3.5067   -1.0539   -3.7945 C.ar    1  UNL1        0.0697
     31 N          -3.5687   -0.4813   -2.5890 N.ar    1  UNL1       -0.1556
     32 C          -3.2855   -2.0932    0.6031 C.ar    1  UNL1       -0.0119
     33 C          -3.2199   -1.8854    1.9533 C.ar    1  UNL1        0.0846
     34 CL         -3.5596   -3.2053    3.0788 Cl      1  UNL1       -0.0797
     35 H          -1.4144    1.0273    4.1916 H       1  UNL1        0.0660
     36 H          -3.0808    1.6131    3.8407 H       1  UNL1        0.0660
     37 H          -2.7438    0.8540    5.4156 H       1  UNL1        0.0660
     38 H          -2.3667    1.3448    1.9488 H       1  UNL1        0.0663
     39 H          -1.2666    2.5110   -3.2170 H       1  UNL1        0.0487
     40 H          -2.0419    3.5773   -1.9130 H       1  UNL1        0.0487
     41 H           0.8936    3.1743   -2.5519 H       1  UNL1        0.0575
     42 H           0.0233    4.6237   -2.0217 H       1  UNL1        0.0575
     43 H           0.5512    1.8473    0.8094 H       1  UNL1        0.0578
     44 H           1.9304    1.8406   -0.3456 H       1  UNL1        0.0578
     45 H           0.6111    1.1841   -2.1449 H       1  UNL1        0.0526
     46 H          -0.3654   -0.9845   -1.4393 H       1  UNL1        0.0332
     47 H          -0.2563   -0.4438    0.3265 H       1  UNL1        0.0332
     48 H           1.5972   -1.3665   -2.6697 H       1  UNL1        0.0620
     49 H           3.9876   -1.9555   -2.6926 H       1  UNL1        0.0618
     50 H           5.3070   -1.5733   -0.6748 H       1  UNL1        0.0639
     51 H           5.7149    1.0883    4.1372 H       1  UNL1        0.0864
     52 H           6.8144   -1.3401    3.8107 H       1  UNL1        0.0864
     53 H           1.9219   -0.0449    1.3515 H       1  UNL1        0.0642
     54 H          -2.7985   -3.0231   -4.4118 H       1  UNL1        0.0864
     55 H          -3.8304   -0.5752   -4.7242 H       1  UNL1        0.0864
     56 H          -3.5439   -3.0599    0.2069 H       1  UNL1        0.0655
@<TRIPOS>BOND
     1     1     2    1
     2     2     3    1
     3     3     4   ar
     4     4     5   ar
     5     5     6    1
     6     6     7    2
     7     6     8   am
     8     8     9    1
     9     9    10    1
    10    10    11    1
    11    11    12    1
    12    12    13    1
    13    13    14    1
    14    14    15    1
    15    15    16   ar
    16    16    17   ar
    17    17    18   ar
    18    18    19   ar
    19    19    20    1
    20    20    21   ar
    21    21    22   ar
    22    22    23   ar
    23    23    24   ar
    24    19    25   ar
    25     5    26   ar
    26    26    27    1
    27    27    28   ar
    28    28    29   ar
    29    29    30   ar
    30    30    31   ar
    31    26    32   ar
    32    32    33   ar
    33    33    34    1
    34    33     3   ar
    35    13     8    1
    36    25    15   ar
    37    31    27   ar
    38    24    20   ar
    39     1    35    1
    40     1    36    1
    41     1    37    1
    42     4    38    1
    43     9    39    1
    44     9    40    1
    45    10    41    1
    46    10    42    1
    47    12    43    1
    48    12    44    1
    49    13    45    1
    50    14    46    1
    51    14    47    1
    52    16    48    1
    53    17    49    1
    54    18    50    1
    55    22    51    1
    56    23    52    1
    57    25    53    1
    58    29    54    1
    59    30    55    1
    60    32    56    1
