
     RDKit          3D

 56 60  0  0  0  0  0  0  0  0999 V2000
   -2.4919    0.8007    4.3180 C   0  0  0  0  0  0  0  0  0  0  0  0
   -2.8336   -0.4779    3.8173 O   0  0  0  0  0  0  0  0  0  0  0  0
   -2.8860   -0.6358    2.4424 C   0  0  0  0  0  0  0  0  0  0  0  0
   -2.6202    0.3966    1.5518 C   0  0  0  0  0  0  0  0  0  0  0  0
   -2.6813    0.2056    0.1880 C   0  0  0  0  0  0  0  0  0  0  0  0
   -2.4213    1.3067   -0.7088 C   0  0  0  0  0  0  0  0  0  0  0  0
   -3.5034    1.9992   -0.9694 O   0  0  0  0  0  0  0  0  0  0  0  0
   -1.2331    1.7041   -1.2980 N   0  0  0  0  0  0  0  0  0  0  0  0
   -1.2397    2.8921   -2.1763 C   0  0  0  0  0  0  0  0  0  0  0  0
    0.1211    3.5433   -1.8626 C   0  0  0  0  0  0  0  0  0  0  0  0
    0.4815    3.3346   -0.5511 O   0  0  0  0  0  0  0  0  0  0  0  0
    0.8482    2.0325   -0.2424 C   0  0  0  0  0  0  0  0  0  0  0  0
    0.0304    1.0922   -1.1578 C   0  0  1  0  0  0  0  0  0  0  0  0
    0.1041   -0.3143   -0.6903 C   0  0  0  0  0  0  0  0  0  0  0  0
    1.5795   -0.6626   -0.6613 C   0  0  0  0  0  0  0  0  0  0  0  0
    2.1661   -1.1918   -1.7712 C   0  0  0  0  0  0  0  0  0  0  0  0
    3.5177   -1.5354   -1.8146 C   0  0  0  0  0  0  0  0  0  0  0  0
    4.2566   -1.3103   -0.6528 C   0  0  0  0  0  0  0  0  0  0  0  0
    3.6994   -0.7775    0.4881 C   0  0  0  0  0  0  0  0  0  0  0  0
    4.5412   -0.5897    1.6145 N   0  0  0  0  0  0  0  0  0  0  0  0
    4.5774    0.4922    2.3850 N   0  0  0  0  0  0  0  0  0  0  0  0
    5.4867    0.3413    3.3638 C   0  0  0  0  0  0  0  0  0  0  0  0
    6.0466   -0.9050    3.1910 C   0  0  0  0  0  0  0  0  0  0  0  0
    5.4406   -1.4331    2.1159 N   0  0  0  0  0  0  0  0  0  0  0  0
    2.3556   -0.4610    0.4588 C   0  0  0  0  0  0  0  0  0  0  0  0
   -3.0156   -1.0452   -0.2702 C   0  0  0  0  0  0  0  0  0  0  0  0
   -3.1068   -1.3095   -1.6801 N   0  0  0  0  0  0  0  0  0  0  0  0
   -2.7482   -2.4144   -2.3022 N   0  0  0  0  0  0  0  0  0  0  0  0
   -2.9747   -2.3076   -3.6096 C   0  0  0  0  0  0  0  0  0  0  0  0
   -3.5067   -1.0539   -3.7945 C   0  0  0  0  0  0  0  0  0  0  0  0
   -3.5687   -0.4813   -2.5890 N   0  0  0  0  0  0  0  0  0  0  0  0
   -3.2855   -2.0932    0.6031 C   0  0  0  0  0  0  0  0  0  0  0  0
   -3.2199   -1.8854    1.9533 C   0  0  0  0  0  0  0  0  0  0  0  0
   -3.5596   -3.2053    3.0788 Cl  0  0  0  0  0  0  0  0  0  0  0  0
   -1.4144    1.0273    4.1916 H   0  0  0  0  0  0  0  0  0  0  0  0
   -3.0808    1.6131    3.8407 H   0  0  0  0  0  0  0  0  0  0  0  0
   -2.7438    0.8540    5.4156 H   0  0  0  0  0  0  0  0  0  0  0  0
   -2.3667    1.3448    1.9488 H   0  0  0  0  0  0  0  0  0  0  0  0
   -1.2666    2.5110   -3.2170 H   0  0  0  0  0  0  0  0  0  0  0  0
   -2.0419    3.5773   -1.9130 H   0  0  0  0  0  0  0  0  0  0  0  0
    0.8936    3.1743   -2.5519 H   0  0  0  0  0  0  0  0  0  0  0  0
    0.0233    4.6237   -2.0217 H   0  0  0  0  0  0  0  0  0  0  0  0
    0.5512    1.8473    0.8094 H   0  0  0  0  0  0  0  0  0  0  0  0
    1.9304    1.8406   -0.3456 H   0  0  0  0  0  0  0  0  0  0  0  0
    0.6111    1.1841   -2.1449 H   0  0  0  0  0  0  0  0  0  0  0  0
   -0.3654   -0.9845   -1.4393 H   0  0  0  0  0  0  0  0  0  0  0  0
   -0.2563   -0.4438    0.3265 H   0  0  0  0  0  0  0  0  0  0  0  0
    1.5972   -1.3665   -2.6697 H   0  0  0  0  0  0  0  0  0  0  0  0
    3.9876   -1.9555   -2.6926 H   0  0  0  0  0  0  0  0  0  0  0  0
    5.3070   -1.5733   -0.6748 H   0  0  0  0  0  0  0  0  0  0  0  0
    5.7149    1.0883    4.1372 H   0  0  0  0  0  0  0  0  0  0  0  0
    6.8144   -1.3401    3.8107 H   0  0  0  0  0  0  0  0  0  0  0  0
    1.9219   -0.0449    1.3515 H   0  0  0  0  0  0  0  0  0  0  0  0
   -2.7985   -3.0231   -4.4118 H   0  0  0  0  0  0  0  0  0  0  0  0
   -3.8304   -0.5752   -4.7242 H   0  0  0  0  0  0  0  0  0  0  0  0
   -3.5439   -3.0599    0.2069 H   0  0  0  0  0  0  0  0  0  0  0  0
  1  2  1  0
  2  3  1  0
  3  4  2  0
  4  5  1  0
  5  6  1  0
  6  7  2  0
  6  8  1  0
  8  9  1  0
  9 10  1  0
 10 11  1  0
 11 12  1  0
 12 13  1  0
 13 14  1  0
 14 15  1  0
 15 16  2  0
 16 17  1  0
 17 18  2  0
 18 19  1  0
 19 20  1  0
 20 21  1  0
 21 22  2  0
 22 23  1  0
 23 24  2  0
 19 25  2  0
  5 26  2  0
 26 27  1  0
 27 28  1  0
 28 29  2  0
 29 30  1  0
 30 31  2  0
 26 32  1  0
 32 33  2  0
 33 34  1  0
 33  3  1  0
 13  8  1  0
 25 15  1  0
 31 27  1  0
 24 20  1  0
  1 35  1  0
  1 36  1  0
  1 37  1  0
  4 38  1  0
  9 39  1  0
  9 40  1  0
 10 41  1  0
 10 42  1  0
 12 43  1  0
 12 44  1  0
 13 45  1  6
 14 46  1  0
 14 47  1  0
 16 48  1  0
 17 49  1  0
 18 50  1  0
 22 51  1  0
 23 52  1  0
 25 53  1  0
 29 54  1  0
 30 55  1  0
 32 56  1  0
M  END
$$$$
