
     RDKit          3D

 57 57  0  0  0  0  0  0  0  0999 V2000
   -3.9299    1.8943    0.2545 C   0  0  0  0  0  0  0  0  0  0  0  0
   -5.4069    1.7853    0.2237 C   0  0  0  0  0  0  0  0  0  0  0  0
   -6.0120    0.4794   -0.1633 C   0  0  0  0  0  0  0  0  0  0  0  0
   -5.6980   -0.6957    0.6791 C   0  0  0  0  0  0  0  0  0  0  0  0
   -4.2843   -1.1505    0.7393 C   0  0  0  0  0  0  0  0  0  0  0  0
   -3.7655   -1.5987   -0.6206 C   0  0  2  0  0  0  0  0  0  0  0  0
   -4.5491   -2.6667   -1.0711 O   0  0  0  0  0  0  0  0  0  0  0  0
   -2.3538   -2.0518   -0.5522 C   0  0  0  0  0  0  0  0  0  0  0  0
   -1.4508   -1.2713    0.0213 C   0  0  0  0  0  0  0  0  0  0  0  0
    0.0048   -1.4307    0.2444 C   0  0  1  0  0  0  0  0  0  0  0  0
    0.5833   -2.6810   -0.3798 C   0  0  2  0  0  0  0  0  0  0  0  0
    1.8513   -2.8924    0.1643 O   0  0  0  0  0  0  0  0  0  0  0  0
    0.8503   -2.1658   -1.7976 C   0  0  0  0  0  0  0  0  0  0  0  0
    1.6483   -0.9372   -1.4218 C   0  0  0  0  0  0  0  0  0  0  0  0
    2.7599   -0.7334   -1.8869 O   0  0  0  0  0  0  0  0  0  0  0  0
    0.7064   -0.2724   -0.4785 C   0  0  2  0  0  0  0  0  0  0  0  0
    1.3764    0.6580    0.4921 C   0  0  0  0  0  0  0  0  0  0  0  0
    2.4015    0.0097    1.3148 C   0  0  0  0  0  0  0  0  0  0  0  0
    3.7137    0.3182    1.3821 C   0  0  0  0  0  0  0  0  0  0  0  0
    4.4716    1.3900    0.6470 C   0  0  0  0  0  0  0  0  0  0  0  0
    5.5697    0.8414   -0.2047 C   0  0  0  0  0  0  0  0  0  0  0  0
    6.2565    2.0231   -0.8948 C   0  0  0  0  0  0  0  0  0  0  0  0
    6.7983    2.9186    0.1496 C   0  0  0  0  0  0  0  0  0  0  0  0
    6.9599    3.1368    1.5085 O   0  0  0  0  0  0  0  0  0  0  0  0
    7.3865    3.9637   -0.2905 O   0  0  0  0  0  0  0  0  0  0  0  0
   -3.6076    1.8552    1.3389 H   0  0  0  0  0  0  0  0  0  0  0  0
   -3.5888    2.9424   -0.0542 H   0  0  0  0  0  0  0  0  0  0  0  0
   -3.3569    1.2318   -0.3809 H   0  0  0  0  0  0  0  0  0  0  0  0
   -5.8738    2.1448    1.1964 H   0  0  0  0  0  0  0  0  0  0  0  0
   -5.7687    2.5799   -0.5062 H   0  0  0  0  0  0  0  0  0  0  0  0
   -7.1369    0.6238   -0.0945 H   0  0  0  0  0  0  0  0  0  0  0  0
   -5.8545    0.2905   -1.2571 H   0  0  0  0  0  0  0  0  0  0  0  0
   -6.0864   -0.5046    1.7126 H   0  0  0  0  0  0  0  0  0  0  0  0
   -6.3012   -1.5873    0.3189 H   0  0  0  0  0  0  0  0  0  0  0  0
   -4.2812   -2.1080    1.3540 H   0  0  0  0  0  0  0  0  0  0  0  0
   -3.5717   -0.5017    1.2397 H   0  0  0  0  0  0  0  0  0  0  0  0
   -3.8939   -0.8073   -1.3812 H   0  0  0  0  0  0  0  0  0  0  0  0
   -4.3138   -2.8962   -1.9989 H   0  0  0  0  0  0  0  0  0  0  0  0
   -1.9068   -2.9652   -0.9121 H   0  0  0  0  0  0  0  0  0  0  0  0
   -1.7029   -0.2899    0.4542 H   0  0  0  0  0  0  0  0  0  0  0  0
    0.2334   -1.3976    1.3398 H   0  0  0  0  0  0  0  0  0  0  0  0
   -0.0538   -3.5578   -0.3423 H   0  0  0  0  0  0  0  0  0  0  0  0
    1.8549   -3.6125    0.8358 H   0  0  0  0  0  0  0  0  0  0  0  0
   -0.0648   -1.7929   -2.2661 H   0  0  0  0  0  0  0  0  0  0  0  0
    1.4238   -2.8762   -2.4030 H   0  0  0  0  0  0  0  0  0  0  0  0
   -0.0102    0.2926   -1.1081 H   0  0  0  0  0  0  0  0  0  0  0  0
    1.7495    1.5257   -0.0883 H   0  0  0  0  0  0  0  0  0  0  0  0
    0.5674    1.0692    1.1344 H   0  0  0  0  0  0  0  0  0  0  0  0
    2.0891   -0.8130    1.9478 H   0  0  0  0  0  0  0  0  0  0  0  0
    4.3748   -0.2456    2.0388 H   0  0  0  0  0  0  0  0  0  0  0  0
    4.9154    2.0184    1.4406 H   0  0  0  0  0  0  0  0  0  0  0  0
    3.7428    1.9367    0.0278 H   0  0  0  0  0  0  0  0  0  0  0  0
    5.2010    0.1699   -1.0030 H   0  0  0  0  0  0  0  0  0  0  0  0
    6.3298    0.3046    0.3910 H   0  0  0  0  0  0  0  0  0  0  0  0
    7.0639    1.6510   -1.5759 H   0  0  0  0  0  0  0  0  0  0  0  0
    5.5017    2.5998   -1.4700 H   0  0  0  0  0  0  0  0  0  0  0  0
    6.4382    3.8485    2.0123 H   0  0  0  0  0  0  0  0  0  0  0  0
  1  2  1  0
  2  3  1  0
  3  4  1  0
  4  5  1  0
  5  6  1  0
  6  7  1  0
  6  8  1  0
  8  9  2  0
  9 10  1  0
 10 11  1  0
 11 12  1  0
 11 13  1  0
 13 14  1  0
 14 15  2  0
 14 16  1  0
 16 17  1  0
 17 18  1  0
 18 19  2  0
 19 20  1  0
 20 21  1  0
 21 22  1  0
 22 23  1  0
 23 24  1  0
 23 25  2  0
 16 10  1  0
  1 26  1  0
  1 27  1  0
  1 28  1  0
  2 29  1  0
  2 30  1  0
  3 31  1  0
  3 32  1  0
  4 33  1  0
  4 34  1  0
  5 35  1  0
  5 36  1  0
  6 37  1  6
  7 38  1  0
  8 39  1  0
  9 40  1  0
 10 41  1  1
 11 42  1  6
 12 43  1  0
 13 44  1  0
 13 45  1  0
 16 46  1  6
 17 47  1  0
 17 48  1  0
 18 49  1  0
 19 50  1  0
 20 51  1  0
 20 52  1  0
 21 53  1  0
 21 54  1  0
 22 55  1  0
 22 56  1  0
 24 57  1  0
M  END
$$$$
