@<TRIPOS>MOLECULE
*****
 105 111 0 0 0
SMALL
GASTEIGER

@<TRIPOS>ATOM
      1 C           6.1291   -4.7307   -3.1349 C.1     1  UNL1       -0.1139
      2 C           6.0683   -3.6200   -2.4282 C.1     1  UNL1       -0.0696
      3 C           6.0076   -2.4039   -1.6456 C.ar    1  UNL1        0.0271
      4 C           4.8352   -2.2016   -0.9077 C.ar    1  UNL1       -0.0250
      5 C           4.7232   -1.0664   -0.1542 C.ar    1  UNL1        0.0354
      6 N           3.4348   -0.7320    0.4402 N.pl3   1  UNL1       -0.2835
      7 C           2.7094    0.1523   -0.4163 C.ar    1  UNL1        0.2226
      8 N           3.1343    1.0148   -1.1725 N.ar    1  UNL1       -0.2225
      9 C           2.7324    1.8281   -2.1143 C.ar    1  UNL1        0.0362
     10 C           1.3040    1.6362   -2.2972 C.ar    1  UNL1        0.0186
     11 C           0.6077    0.6531   -1.4706 C.ar    1  UNL1        0.2249
     12 O          -0.6655    0.5687   -1.7614 O.3     1  UNL1       -0.4373
     13 C          -1.6797   -0.1688   -1.1562 C.ar    1  UNL1        0.1381
     14 C          -2.4669   -0.8962   -1.9200 C.ar    1  UNL1       -0.0169
     15 C          -3.5279   -1.7150   -1.6497 C.ar    1  UNL1       -0.0363
     16 C          -3.7845   -1.7434   -0.1744 C.ar    1  UNL1        0.0427
     17 N          -5.0888   -2.3052    0.1057 N.am    1  UNL1       -0.2686
     18 C          -6.1589   -1.3642   -0.1192 C.2     1  UNL1        0.3092
     19 O          -5.8785   -0.1927   -0.5625 O.2     1  UNL1       -0.2521
     20 N          -7.5255   -1.6319    0.1186 N.am    1  UNL1       -0.2538
     21 C          -8.4608   -0.6067   -0.1408 C.ar    1  UNL1        0.1299
     22 C          -8.4129    0.2564   -1.2653 C.ar    1  UNL1        0.0021
     23 C          -9.4752    1.1038   -1.2363 C.ar    1  UNL1        0.0706
     24 C          -9.8634    2.1657   -2.2225 C.3     1  UNL1        0.0063
     25 C         -11.3594    2.1153   -2.4792 C.3     1  UNL1       -0.0546
     26 C          -9.5153    3.5606   -1.7432 C.3     1  UNL1       -0.0546
     27 C          -9.1994    1.9402   -3.5571 C.3     1  UNL1       -0.0546
     28 N         -10.1524    0.7730   -0.1298 N.ar    1  UNL1       -0.1691
     29 N          -9.5587   -0.2385    0.5160 N.ar    1  UNL1       -0.2181
     30 C         -10.0105   -0.7591    1.7834 C.ar    1  UNL1        0.0674
     31 C          -9.3900   -1.2023    2.7961 C.ar    1  UNL1       -0.0359
     32 C          -9.8023   -1.6282    4.0761 C.ar    1  UNL1       -0.0568
     33 C         -11.2657   -1.4890    4.1718 C.ar    1  UNL1       -0.0503
     34 C         -11.9384   -1.7963    5.4242 C.3     1  UNL1       -0.0397
     35 C         -11.9316   -1.0349    3.1181 C.ar    1  UNL1       -0.0568
     36 C         -11.4769   -0.6443    1.9020 C.ar    1  UNL1       -0.0359
     37 C          -2.9994   -1.0335    0.5687 C.ar    1  UNL1        0.0069
     38 C          -3.2285   -1.1588    2.0146 C.ar    1  UNL1       -0.0521
     39 C          -2.3963   -0.4725    2.8189 C.ar    1  UNL1       -0.0611
     40 C          -1.3552    0.3324    2.5288 C.ar    1  UNL1       -0.0611
     41 C          -1.1135    0.4810    1.0269 C.ar    1  UNL1       -0.0505
     42 C          -1.9063   -0.1896    0.2991 C.ar    1  UNL1        0.0262
     43 N           1.3102   -0.0369   -0.5788 N.ar    1  UNL1       -0.1789
     44 C           5.7554   -0.1479   -0.1127 C.ar    1  UNL1       -0.0283
     45 C           6.9041   -0.3296   -0.8177 C.ar    1  UNL1        0.0396
     46 C           8.1177    0.4973   -0.7023 C.2     1  UNL1        0.2444
     47 O           8.5328    1.2783   -1.5866 O.2     1  UNL1       -0.2702
     48 N           8.8392    0.3438    0.5032 N.am    1  UNL1       -0.3075
     49 C          10.1199    1.0039    0.7589 C.3     1  UNL1        0.0333
     50 C          10.6005    0.7228    2.1362 C.3     1  UNL1       -0.0454
     51 C          11.1062    0.2976   -0.2422 C.3     1  UNL1        0.0172
     52 N          12.4002    0.7253   -0.0495 N.3     1  UNL1       -0.2963
     53 C          13.3860   -0.0516   -0.8017 C.3     1  UNL1        0.0225
     54 C          14.6070   -0.1220    0.0800 C.3     1  UNL1        0.0604
     55 O          14.3709    0.4992    1.3297 O.3     1  UNL1       -0.3772
     56 C          14.1174    1.8862    1.0661 C.3     1  UNL1        0.0604
     57 C          12.7748    2.0161    0.3060 C.3     1  UNL1        0.0225
     58 C           7.0352   -1.4892   -1.6175 C.ar    1  UNL1       -0.0341
     59 H           6.1848   -5.5177   -3.6451 H       1  UNL1        0.1232
     60 H           4.0946   -2.9735   -0.9511 H       1  UNL1        0.0648
     61 H           3.1662   -1.1225    1.3256 H       1  UNL1        0.1550
     62 H           3.1924    2.5740   -2.6979 H       1  UNL1        0.0832
     63 H           0.7969    2.1739   -3.0287 H       1  UNL1        0.0686
     64 H          -2.1951   -0.9179   -3.0321 H       1  UNL1        0.0655
     65 H          -4.1528   -2.2922   -2.2329 H       1  UNL1        0.0637
     66 H          -5.2711   -3.2354    0.3912 H       1  UNL1        0.1564
     67 H          -7.7820   -2.5991    0.4963 H       1  UNL1        0.1578
     68 H          -7.6085    0.2287   -1.9996 H       1  UNL1        0.0671
     69 H         -11.6122    1.4304   -3.2946 H       1  UNL1        0.0239
     70 H         -11.9499    1.9408   -1.5517 H       1  UNL1        0.0239
     71 H         -11.6287    3.1566   -2.8478 H       1  UNL1        0.0239
     72 H          -8.3988    3.7539   -1.7928 H       1  UNL1        0.0239
     73 H          -9.9529    4.3300   -2.4467 H       1  UNL1        0.0239
     74 H          -9.8307    3.7518   -0.7149 H       1  UNL1        0.0239
     75 H          -9.0557    2.9355   -4.0836 H       1  UNL1        0.0239
     76 H          -9.7225    1.1912   -4.1339 H       1  UNL1        0.0239
     77 H          -8.1317    1.6391   -3.2998 H       1  UNL1        0.0239
     78 H          -8.2392   -1.2985    2.6772 H       1  UNL1        0.0639
     79 H          -9.2267   -1.9641    4.8386 H       1  UNL1        0.0621
     80 H         -12.7604   -0.9990    5.5621 H       1  UNL1        0.0278
     81 H         -11.3705   -1.7551    6.3417 H       1  UNL1        0.0278
     82 H         -12.5666   -2.7430    5.3887 H       1  UNL1        0.0278
     83 H         -13.0759   -0.9838    3.2101 H       1  UNL1        0.0621
     84 H         -12.0017   -0.2976    1.0821 H       1  UNL1        0.0639
     85 H          -4.0655   -1.7904    2.2804 H       1  UNL1        0.0624
     86 H          -2.6243   -0.5668    3.9250 H       1  UNL1        0.0618
     87 H          -0.7310    0.8364    3.1705 H       1  UNL1        0.0618
     88 H          -0.3277    1.1529    0.8658 H       1  UNL1        0.0625
     89 H           5.6165    0.7244    0.5261 H       1  UNL1        0.0644
     90 H           8.4297   -0.2600    1.2642 H       1  UNL1        0.1493
     91 H          10.0956    2.0678    0.4953 H       1  UNL1        0.0508
     92 H          10.0025   -0.1207    2.5908 H       1  UNL1        0.0248
     93 H          11.6780    0.3462    2.0770 H       1  UNL1        0.0248
     94 H          10.6012    1.6175    2.7731 H       1  UNL1        0.0248
     95 H          10.8969   -0.7613   -0.3084 H       1  UNL1        0.0445
     96 H          10.6858    0.7465   -1.2443 H       1  UNL1        0.0445
     97 H          13.6376    0.3944   -1.7741 H       1  UNL1        0.0449
     98 H          12.8931   -1.0721   -0.9078 H       1  UNL1        0.0449
     99 H          14.9562   -1.1210    0.3080 H       1  UNL1        0.0572
    100 H          15.4365    0.5024   -0.3608 H       1  UNL1        0.0572
    101 H          14.9614    2.2523    0.4827 H       1  UNL1        0.0572
    102 H          13.9807    2.3637    2.0465 H       1  UNL1        0.0572
    103 H          12.0111    2.4920    0.9487 H       1  UNL1        0.0449
    104 H          12.9532    2.7116   -0.5673 H       1  UNL1        0.0449
    105 H           7.9360   -1.5710   -2.2284 H       1  UNL1        0.0637
@<TRIPOS>BOND
     1     1     2    3
     2     2     3    1
     3     3     4   ar
     4     4     5   ar
     5     5     6    1
     6     6     7    1
     7     7     8   ar
     8     8     9   ar
     9     9    10   ar
    10    10    11   ar
    11    11    12    1
    12    12    13    1
    13    13    14   ar
    14    14    15   ar
    15    15    16   ar
    16    16    17    1
    17    17    18   am
    18    18    19    2
    19    18    20   am
    20    20    21    1
    21    21    22   ar
    22    22    23   ar
    23    23    24    1
    24    24    25    1
    25    24    26    1
    26    24    27    1
    27    23    28   ar
    28    28    29   ar
    29    29    30    1
    30    30    31   ar
    31    31    32   ar
    32    32    33   ar
    33    33    34    1
    34    33    35   ar
    35    35    36   ar
    36    16    37   ar
    37    37    38   ar
    38    38    39   ar
    39    39    40   ar
    40    40    41   ar
    41    41    42   ar
    42    11    43   ar
    43     5    44   ar
    44    44    45   ar
    45    45    46    1
    46    46    47    2
    47    46    48   am
    48    48    49    1
    49    49    50    1
    50    49    51    1
    51    51    52    1
    52    52    53    1
    53    53    54    1
    54    54    55    1
    55    55    56    1
    56    56    57    1
    57    45    58   ar
    58    58     3   ar
    59    43     7   ar
    60    57    52    1
    61    42    13   ar
    62    29    21   ar
    63    36    30   ar
    64    42    37   ar
    65     1    59    1
    66     4    60    1
    67     6    61    1
    68     9    62    1
    69    10    63    1
    70    14    64    1
    71    15    65    1
    72    17    66    1
    73    20    67    1
    74    22    68    1
    75    25    69    1
    76    25    70    1
    77    25    71    1
    78    26    72    1
    79    26    73    1
    80    26    74    1
    81    27    75    1
    82    27    76    1
    83    27    77    1
    84    31    78    1
    85    32    79    1
    86    34    80    1
    87    34    81    1
    88    34    82    1
    89    35    83    1
    90    36    84    1
    91    38    85    1
    92    39    86    1
    93    40    87    1
    94    41    88    1
    95    44    89    1
    96    48    90    1
    97    49    91    1
    98    50    92    1
    99    50    93    1
   100    50    94    1
   101    51    95    1
   102    51    96    1
   103    53    97    1
   104    53    98    1
   105    54    99    1
   106    54   100    1
   107    56   101    1
   108    56   102    1
   109    57   103    1
   110    57   104    1
   111    58   105    1
