
     RDKit          3D

105111  0  0  0  0  0  0  0  0999 V2000
    6.1291   -4.7307   -3.1349 C   0  0  0  0  0  0  0  0  0  0  0  0
    6.0683   -3.6200   -2.4282 C   0  0  0  0  0  0  0  0  0  0  0  0
    6.0076   -2.4039   -1.6456 C   0  0  0  0  0  0  0  0  0  0  0  0
    4.8352   -2.2016   -0.9077 C   0  0  0  0  0  0  0  0  0  0  0  0
    4.7232   -1.0664   -0.1542 C   0  0  0  0  0  0  0  0  0  0  0  0
    3.4348   -0.7320    0.4402 N   0  0  0  0  0  0  0  0  0  0  0  0
    2.7094    0.1523   -0.4163 C   0  0  0  0  0  0  0  0  0  0  0  0
    3.1343    1.0148   -1.1725 N   0  0  0  0  0  0  0  0  0  0  0  0
    2.7324    1.8281   -2.1143 C   0  0  0  0  0  0  0  0  0  0  0  0
    1.3040    1.6362   -2.2972 C   0  0  0  0  0  0  0  0  0  0  0  0
    0.6077    0.6531   -1.4706 C   0  0  0  0  0  0  0  0  0  0  0  0
   -0.6655    0.5687   -1.7614 O   0  0  0  0  0  0  0  0  0  0  0  0
   -1.6797   -0.1688   -1.1562 C   0  0  0  0  0  0  0  0  0  0  0  0
   -2.4669   -0.8962   -1.9200 C   0  0  0  0  0  0  0  0  0  0  0  0
   -3.5279   -1.7150   -1.6497 C   0  0  0  0  0  0  0  0  0  0  0  0
   -3.7845   -1.7434   -0.1744 C   0  0  0  0  0  0  0  0  0  0  0  0
   -5.0888   -2.3052    0.1057 N   0  0  0  0  0  0  0  0  0  0  0  0
   -6.1589   -1.3642   -0.1192 C   0  0  0  0  0  0  0  0  0  0  0  0
   -5.8785   -0.1927   -0.5625 O   0  0  0  0  0  0  0  0  0  0  0  0
   -7.5255   -1.6319    0.1186 N   0  0  0  0  0  0  0  0  0  0  0  0
   -8.4608   -0.6067   -0.1408 C   0  0  0  0  0  0  0  0  0  0  0  0
   -8.4129    0.2564   -1.2653 C   0  0  0  0  0  0  0  0  0  0  0  0
   -9.4752    1.1038   -1.2363 C   0  0  0  0  0  0  0  0  0  0  0  0
   -9.8634    2.1657   -2.2225 C   0  0  0  0  0  0  0  0  0  0  0  0
  -11.3594    2.1153   -2.4792 C   0  0  0  0  0  0  0  0  0  0  0  0
   -9.5153    3.5606   -1.7432 C   0  0  0  0  0  0  0  0  0  0  0  0
   -9.1994    1.9402   -3.5571 C   0  0  0  0  0  0  0  0  0  0  0  0
  -10.1524    0.7730   -0.1298 N   0  0  0  0  0  0  0  0  0  0  0  0
   -9.5587   -0.2385    0.5160 N   0  0  0  0  0  0  0  0  0  0  0  0
  -10.0105   -0.7591    1.7834 C   0  0  0  0  0  0  0  0  0  0  0  0
   -9.3900   -1.2023    2.7961 C   0  0  0  0  0  0  0  0  0  0  0  0
   -9.8023   -1.6282    4.0761 C   0  0  0  0  0  0  0  0  0  0  0  0
  -11.2657   -1.4890    4.1718 C   0  0  0  0  0  0  0  0  0  0  0  0
  -11.9384   -1.7963    5.4242 C   0  0  0  0  0  0  0  0  0  0  0  0
  -11.9316   -1.0349    3.1181 C   0  0  0  0  0  0  0  0  0  0  0  0
  -11.4769   -0.6443    1.9020 C   0  0  0  0  0  0  0  0  0  0  0  0
   -2.9994   -1.0335    0.5687 C   0  0  0  0  0  0  0  0  0  0  0  0
   -3.2285   -1.1588    2.0146 C   0  0  0  0  0  0  0  0  0  0  0  0
   -2.3963   -0.4725    2.8189 C   0  0  0  0  0  0  0  0  0  0  0  0
   -1.3552    0.3324    2.5288 C   0  0  0  0  0  0  0  0  0  0  0  0
   -1.1135    0.4810    1.0269 C   0  0  0  0  0  0  0  0  0  0  0  0
   -1.9063   -0.1896    0.2991 C   0  0  0  0  0  0  0  0  0  0  0  0
    1.3102   -0.0369   -0.5788 N   0  0  0  0  0  0  0  0  0  0  0  0
    5.7554   -0.1479   -0.1127 C   0  0  0  0  0  0  0  0  0  0  0  0
    6.9041   -0.3296   -0.8177 C   0  0  0  0  0  0  0  0  0  0  0  0
    8.1177    0.4973   -0.7023 C   0  0  0  0  0  0  0  0  0  0  0  0
    8.5328    1.2783   -1.5866 O   0  0  0  0  0  0  0  0  0  0  0  0
    8.8392    0.3438    0.5032 N   0  0  0  0  0  0  0  0  0  0  0  0
   10.1199    1.0039    0.7589 C   0  0  1  0  0  0  0  0  0  0  0  0
   10.6005    0.7228    2.1362 C   0  0  0  0  0  0  0  0  0  0  0  0
   11.1062    0.2976   -0.2422 C   0  0  0  0  0  0  0  0  0  0  0  0
   12.4002    0.7253   -0.0495 N   0  0  0  0  0  0  0  0  0  0  0  0
   13.3860   -0.0516   -0.8017 C   0  0  0  0  0  0  0  0  0  0  0  0
   14.6070   -0.1220    0.0800 C   0  0  0  0  0  0  0  0  0  0  0  0
   14.3709    0.4992    1.3297 O   0  0  0  0  0  0  0  0  0  0  0  0
   14.1174    1.8862    1.0661 C   0  0  0  0  0  0  0  0  0  0  0  0
   12.7748    2.0161    0.3060 C   0  0  0  0  0  0  0  0  0  0  0  0
    7.0352   -1.4892   -1.6175 C   0  0  0  0  0  0  0  0  0  0  0  0
    6.1848   -5.5177   -3.6451 H   0  0  0  0  0  0  0  0  0  0  0  0
    4.0946   -2.9735   -0.9511 H   0  0  0  0  0  0  0  0  0  0  0  0
    3.1662   -1.1225    1.3256 H   0  0  0  0  0  0  0  0  0  0  0  0
    3.1924    2.5740   -2.6979 H   0  0  0  0  0  0  0  0  0  0  0  0
    0.7969    2.1739   -3.0287 H   0  0  0  0  0  0  0  0  0  0  0  0
   -2.1951   -0.9179   -3.0321 H   0  0  0  0  0  0  0  0  0  0  0  0
   -4.1528   -2.2922   -2.2329 H   0  0  0  0  0  0  0  0  0  0  0  0
   -5.2711   -3.2354    0.3912 H   0  0  0  0  0  0  0  0  0  0  0  0
   -7.7820   -2.5991    0.4963 H   0  0  0  0  0  0  0  0  0  0  0  0
   -7.6085    0.2287   -1.9996 H   0  0  0  0  0  0  0  0  0  0  0  0
  -11.6122    1.4304   -3.2946 H   0  0  0  0  0  0  0  0  0  0  0  0
  -11.9499    1.9408   -1.5517 H   0  0  0  0  0  0  0  0  0  0  0  0
  -11.6287    3.1566   -2.8478 H   0  0  0  0  0  0  0  0  0  0  0  0
   -8.3988    3.7539   -1.7928 H   0  0  0  0  0  0  0  0  0  0  0  0
   -9.9529    4.3300   -2.4467 H   0  0  0  0  0  0  0  0  0  0  0  0
   -9.8307    3.7518   -0.7149 H   0  0  0  0  0  0  0  0  0  0  0  0
   -9.0557    2.9355   -4.0836 H   0  0  0  0  0  0  0  0  0  0  0  0
   -9.7225    1.1912   -4.1339 H   0  0  0  0  0  0  0  0  0  0  0  0
   -8.1317    1.6391   -3.2998 H   0  0  0  0  0  0  0  0  0  0  0  0
   -8.2392   -1.2985    2.6772 H   0  0  0  0  0  0  0  0  0  0  0  0
   -9.2267   -1.9641    4.8386 H   0  0  0  0  0  0  0  0  0  0  0  0
  -12.7604   -0.9990    5.5621 H   0  0  0  0  0  0  0  0  0  0  0  0
  -11.3705   -1.7551    6.3417 H   0  0  0  0  0  0  0  0  0  0  0  0
  -12.5666   -2.7430    5.3887 H   0  0  0  0  0  0  0  0  0  0  0  0
  -13.0759   -0.9838    3.2101 H   0  0  0  0  0  0  0  0  0  0  0  0
  -12.0017   -0.2976    1.0821 H   0  0  0  0  0  0  0  0  0  0  0  0
   -4.0655   -1.7904    2.2804 H   0  0  0  0  0  0  0  0  0  0  0  0
   -2.6243   -0.5668    3.9250 H   0  0  0  0  0  0  0  0  0  0  0  0
   -0.7310    0.8364    3.1705 H   0  0  0  0  0  0  0  0  0  0  0  0
   -0.3277    1.1529    0.8658 H   0  0  0  0  0  0  0  0  0  0  0  0
    5.6165    0.7244    0.5261 H   0  0  0  0  0  0  0  0  0  0  0  0
    8.4297   -0.2600    1.2642 H   0  0  0  0  0  0  0  0  0  0  0  0
   10.0956    2.0678    0.4953 H   0  0  0  0  0  0  0  0  0  0  0  0
   10.0025   -0.1207    2.5908 H   0  0  0  0  0  0  0  0  0  0  0  0
   11.6780    0.3462    2.0770 H   0  0  0  0  0  0  0  0  0  0  0  0
   10.6012    1.6175    2.7731 H   0  0  0  0  0  0  0  0  0  0  0  0
   10.8969   -0.7613   -0.3084 H   0  0  0  0  0  0  0  0  0  0  0  0
   10.6858    0.7465   -1.2443 H   0  0  0  0  0  0  0  0  0  0  0  0
   13.6376    0.3944   -1.7741 H   0  0  0  0  0  0  0  0  0  0  0  0
   12.8931   -1.0721   -0.9078 H   0  0  0  0  0  0  0  0  0  0  0  0
   14.9562   -1.1210    0.3080 H   0  0  0  0  0  0  0  0  0  0  0  0
   15.4365    0.5024   -0.3608 H   0  0  0  0  0  0  0  0  0  0  0  0
   14.9614    2.2523    0.4827 H   0  0  0  0  0  0  0  0  0  0  0  0
   13.9807    2.3637    2.0465 H   0  0  0  0  0  0  0  0  0  0  0  0
   12.0111    2.4920    0.9487 H   0  0  0  0  0  0  0  0  0  0  0  0
   12.9532    2.7116   -0.5673 H   0  0  0  0  0  0  0  0  0  0  0  0
    7.9360   -1.5710   -2.2284 H   0  0  0  0  0  0  0  0  0  0  0  0
  1  2  3  0
  2  3  1  0
  3  4  2  0
  4  5  1  0
  5  6  1  0
  6  7  1  0
  7  8  2  0
  8  9  1  0
  9 10  2  0
 10 11  1  0
 11 12  1  0
 12 13  1  0
 13 14  2  0
 14 15  1  0
 15 16  2  0
 16 17  1  0
 17 18  1  0
 18 19  2  0
 18 20  1  0
 20 21  1  0
 21 22  2  0
 22 23  1  0
 23 24  1  0
 24 25  1  0
 24 26  1  0
 24 27  1  0
 23 28  2  0
 28 29  1  0
 29 30  1  0
 30 31  2  0
 31 32  1  0
 32 33  2  0
 33 34  1  0
 33 35  1  0
 35 36  2  0
 16 37  1  0
 37 38  2  0
 38 39  1  0
 39 40  2  0
 40 41  1  0
 41 42  2  0
 11 43  2  0
  5 44  2  0
 44 45  1  0
 45 46  1  0
 46 47  2  0
 46 48  1  0
 48 49  1  0
 49 50  1  0
 49 51  1  0
 51 52  1  0
 52 53  1  0
 53 54  1  0
 54 55  1  0
 55 56  1  0
 56 57  1  0
 45 58  2  0
 58  3  1  0
 43  7  1  0
 57 52  1  0
 42 13  1  0
 29 21  1  0
 36 30  1  0
 42 37  1  0
  1 59  1  0
  4 60  1  0
  6 61  1  0
  9 62  1  0
 10 63  1  0
 14 64  1  0
 15 65  1  0
 17 66  1  0
 20 67  1  0
 22 68  1  0
 25 69  1  0
 25 70  1  0
 25 71  1  0
 26 72  1  0
 26 73  1  0
 26 74  1  0
 27 75  1  0
 27 76  1  0
 27 77  1  0
 31 78  1  0
 32 79  1  0
 34 80  1  0
 34 81  1  0
 34 82  1  0
 35 83  1  0
 36 84  1  0
 38 85  1  0
 39 86  1  0
 40 87  1  0
 41 88  1  0
 44 89  1  0
 48 90  1  0
 49 91  1  6
 50 92  1  0
 50 93  1  0
 50 94  1  0
 51 95  1  0
 51 96  1  0
 53 97  1  0
 53 98  1  0
 54 99  1  0
 54100  1  0
 56101  1  0
 56102  1  0
 57103  1  0
 57104  1  0
 58105  1  0
M  END
$$$$
