@<TRIPOS>MOLECULE
*****
 93 98 0 0 0
SMALL
GASTEIGER

@<TRIPOS>ATOM
      1 C          -9.8148    2.7591    0.3026 C.3     1  UNL1        0.0790
      2 O          -9.2864    1.4994    0.6004 O.3     1  UNL1       -0.4914
      3 C          -7.9694    1.1704    0.3244 C.ar    1  UNL1        0.1618
      4 C          -7.1562    2.1430   -0.2736 C.ar    1  UNL1       -0.0123
      5 C          -5.8471    1.8592   -0.5631 C.ar    1  UNL1       -0.0296
      6 C          -5.2889    0.6365   -0.2871 C.ar    1  UNL1       -0.0149
      7 C          -6.0702   -0.3257    0.2987 C.ar    1  UNL1       -0.0107
      8 C          -7.4113   -0.0406    0.5978 C.ar    1  UNL1        0.1626
      9 O          -8.1317   -1.0384    1.1787 O.3     1  UNL1       -0.4857
     10 C          -9.4159   -1.1870    1.6130 C.3     1  UNL1        0.0948
     11 C         -10.4482   -1.0963    0.4851 C.3     1  UNL1       -0.0281
     12 C          -9.8695   -0.3268    2.7464 C.3     1  UNL1       -0.0281
     13 C          -3.8757    0.3708   -0.6505 C.3     1  UNL1        0.0829
     14 C          -3.4169   -0.8961   -0.0252 C.ar    1  UNL1       -0.0221
     15 C          -3.3744   -2.0152   -0.8298 C.ar    1  UNL1       -0.0551
     16 C          -2.9725   -3.2298   -0.3140 C.ar    1  UNL1       -0.0431
     17 C          -2.6106   -3.3308    1.0111 C.ar    1  UNL1        0.0410
     18 CL         -2.1043   -4.8772    1.6516 Cl      1  UNL1       -0.0835
     19 C          -2.6600   -2.1969    1.8016 C.ar    1  UNL1       -0.0431
     20 C          -3.0559   -0.9742    1.3158 C.ar    1  UNL1       -0.0551
     21 N          -3.0428    1.5028   -0.3844 N.am    1  UNL1       -0.2441
     22 C          -1.6547    1.4281   -0.1818 C.ar    1  UNL1        0.1284
     23 C          -0.8361    2.4872    0.0341 C.ar    1  UNL1       -0.0195
     24 C           0.5527    2.3038    0.2260 C.ar    1  UNL1       -0.0359
     25 C           1.1035    1.0437    0.1977 C.ar    1  UNL1        0.0479
     26 N           2.5237    0.8771    0.4060 N.pl3   1  UNL1       -0.3315
     27 C           3.2770    2.1001    0.6619 C.3     1  UNL1        0.0007
     28 C           3.2044   -0.3728    0.3597 C.3     1  UNL1        0.0148
     29 C           4.0864   -0.6358   -0.8010 C.3     1  UNL1       -0.0252
     30 C           5.2332    0.2635   -1.0400 C.3     1  UNL1       -0.0474
     31 C           6.4067    0.0362   -0.0995 C.3     1  UNL1       -0.0370
     32 C           6.7932   -1.4211    0.0080 C.3     1  UNL1        0.0110
     33 N           8.1787   -1.6648   -0.0383 N.3     1  UNL1       -0.2895
     34 C           9.0171   -1.0701    0.9134 C.3     1  UNL1        0.0155
     35 C          10.1708   -0.2790    0.3571 C.3     1  UNL1        0.0272
     36 N          10.0348    0.0565   -1.0235 N.am    1  UNL1       -0.3023
     37 C          10.5081    1.3032   -1.6147 C.3     1  UNL1        0.0032
     38 C           9.4002   -0.8697   -1.8950 C.2     1  UNL1        0.2295
     39 O           9.3701   -0.6908   -3.1439 O.2     1  UNL1       -0.2742
     40 C           8.7781   -2.0538   -1.2492 C.3     1  UNL1        0.0762
     41 C           6.0219   -2.2193   -1.0325 C.3     1  UNL1       -0.0370
     42 C           4.5433   -2.0809   -0.7281 C.3     1  UNL1       -0.0474
     43 C           0.2429    0.0052   -0.0234 C.ar    1  UNL1        0.0507
     44 N          -1.0816    0.2136   -0.2033 N.ar    1  UNL1       -0.2381
     45 C          -3.6905    2.7678   -0.3503 C.2     1  UNL1        0.2260
     46 O          -3.3076    3.7559    0.2955 O.2     1  UNL1       -0.2748
     47 C          -4.9686    2.9365   -1.1714 C.3     1  UNL1        0.0501
     48 H          -9.1812    3.5791    0.6780 H       1  UNL1        0.0660
     49 H          -9.9262    2.8812   -0.7954 H       1  UNL1        0.0660
     50 H         -10.8446    2.8037    0.7206 H       1  UNL1        0.0660
     51 H          -7.5926    3.1160   -0.5003 H       1  UNL1        0.0658
     52 H          -5.6382   -1.2864    0.5186 H       1  UNL1        0.0659
     53 H          -9.5333   -2.2630    2.0025 H       1  UNL1        0.0727
     54 H          -9.8987   -0.9230   -0.4437 H       1  UNL1        0.0265
     55 H         -10.9862   -2.0794    0.3720 H       1  UNL1        0.0265
     56 H         -11.2358   -0.3777    0.7333 H       1  UNL1        0.0265
     57 H         -10.1700   -0.9503    3.6254 H       1  UNL1        0.0265
     58 H         -10.7778    0.2139    2.4571 H       1  UNL1        0.0265
     59 H          -9.0993    0.4263    3.0717 H       1  UNL1        0.0265
     60 H          -3.8666    0.2299   -1.7580 H       1  UNL1        0.0605
     61 H          -3.6531   -1.9838   -1.8880 H       1  UNL1        0.0621
     62 H          -2.9516   -4.0916   -0.9835 H       1  UNL1        0.0632
     63 H          -2.3734   -2.2986    2.8326 H       1  UNL1        0.0632
     64 H          -3.1100   -0.0673    1.8907 H       1  UNL1        0.0621
     65 H          -1.1692    3.5085    0.0656 H       1  UNL1        0.0652
     66 H           1.1843    3.1644    0.3912 H       1  UNL1        0.0638
     67 H           3.2796    2.7302   -0.2393 H       1  UNL1        0.0428
     68 H           4.2735    1.9045    1.0789 H       1  UNL1        0.0428
     69 H           2.7490    2.6610    1.5013 H       1  UNL1        0.0428
     70 H           3.8040   -0.4795    1.3302 H       1  UNL1        0.0466
     71 H           2.4646   -1.2023    0.4019 H       1  UNL1        0.0466
     72 H           3.4417   -0.5901   -1.7253 H       1  UNL1        0.0316
     73 H           5.6293    0.0182   -2.0653 H       1  UNL1        0.0269
     74 H           4.9963    1.3217   -1.0554 H       1  UNL1        0.0269
     75 H           6.1135    0.4443    0.8882 H       1  UNL1        0.0280
     76 H           7.2282    0.6753   -0.4660 H       1  UNL1        0.0280
     77 H           6.4024   -1.7819    0.9912 H       1  UNL1        0.0463
     78 H           9.4769   -1.8881    1.5436 H       1  UNL1        0.0442
     79 H           8.4791   -0.4290    1.6713 H       1  UNL1        0.0442
     80 H          11.1447   -0.8262    0.4735 H       1  UNL1        0.0477
     81 H          10.2958    0.6745    0.9286 H       1  UNL1        0.0477
     82 H          10.4847    2.1030   -0.8477 H       1  UNL1        0.0428
     83 H           9.7875    1.5889   -2.4312 H       1  UNL1        0.0428
     84 H          11.5278    1.1381   -2.0156 H       1  UNL1        0.0428
     85 H           8.1610   -2.6528   -1.9222 H       1  UNL1        0.0522
     86 H           9.6541   -2.7225   -0.9849 H       1  UNL1        0.0522
     87 H           6.2516   -3.3128   -0.8531 H       1  UNL1        0.0280
     88 H           6.2663   -1.9142   -2.0540 H       1  UNL1        0.0280
     89 H           3.9794   -2.7508   -1.4110 H       1  UNL1        0.0269
     90 H           4.3907   -2.4854    0.2911 H       1  UNL1        0.0269
     91 H           0.5852   -1.0161   -0.0657 H       1  UNL1        0.0849
     92 H          -5.3578    3.9341   -1.0226 H       1  UNL1        0.0407
     93 H          -4.7711    2.6298   -2.2100 H       1  UNL1        0.0407
@<TRIPOS>BOND
     1     1     2    1
     2     2     3    1
     3     3     4   ar
     4     4     5   ar
     5     5     6   ar
     6     6     7   ar
     7     7     8   ar
     8     8     9    1
     9     9    10    1
    10    10    11    1
    11    10    12    1
    12     6    13    1
    13    13    14    1
    14    14    15   ar
    15    15    16   ar
    16    16    17   ar
    17    17    18    1
    18    17    19   ar
    19    19    20   ar
    20    13    21    1
    21    21    22    1
    22    22    23   ar
    23    23    24   ar
    24    24    25   ar
    25    25    26    1
    26    26    27    1
    27    26    28    1
    28    28    29    1
    29    29    30    1
    30    30    31    1
    31    31    32    1
    32    32    33    1
    33    33    34    1
    34    34    35    1
    35    35    36    1
    36    36    37    1
    37    36    38   am
    38    38    39    2
    39    38    40    1
    40    32    41    1
    41    41    42    1
    42    25    43   ar
    43    43    44   ar
    44    21    45   am
    45    45    46    2
    46    45    47    1
    47     8     3   ar
    48    20    14   ar
    49    44    22   ar
    50    47     5    1
    51    42    29    1
    52    40    33    1
    53     1    48    1
    54     1    49    1
    55     1    50    1
    56     4    51    1
    57     7    52    1
    58    10    53    1
    59    11    54    1
    60    11    55    1
    61    11    56    1
    62    12    57    1
    63    12    58    1
    64    12    59    1
    65    13    60    1
    66    15    61    1
    67    16    62    1
    68    19    63    1
    69    20    64    1
    70    23    65    1
    71    24    66    1
    72    27    67    1
    73    27    68    1
    74    27    69    1
    75    28    70    1
    76    28    71    1
    77    29    72    1
    78    30    73    1
    79    30    74    1
    80    31    75    1
    81    31    76    1
    82    32    77    1
    83    34    78    1
    84    34    79    1
    85    35    80    1
    86    35    81    1
    87    37    82    1
    88    37    83    1
    89    37    84    1
    90    40    85    1
    91    40    86    1
    92    41    87    1
    93    41    88    1
    94    42    89    1
    95    42    90    1
    96    43    91    1
    97    47    92    1
    98    47    93    1
