
     RDKit          3D

 93 98  0  0  0  0  0  0  0  0999 V2000
   -9.8148    2.7591    0.3026 C   0  0  0  0  0  0  0  0  0  0  0  0
   -9.2864    1.4994    0.6004 O   0  0  0  0  0  0  0  0  0  0  0  0
   -7.9694    1.1704    0.3244 C   0  0  0  0  0  0  0  0  0  0  0  0
   -7.1562    2.1430   -0.2736 C   0  0  0  0  0  0  0  0  0  0  0  0
   -5.8471    1.8592   -0.5631 C   0  0  0  0  0  0  0  0  0  0  0  0
   -5.2889    0.6365   -0.2871 C   0  0  0  0  0  0  0  0  0  0  0  0
   -6.0702   -0.3257    0.2987 C   0  0  0  0  0  0  0  0  0  0  0  0
   -7.4113   -0.0406    0.5978 C   0  0  0  0  0  0  0  0  0  0  0  0
   -8.1317   -1.0384    1.1787 O   0  0  0  0  0  0  0  0  0  0  0  0
   -9.4159   -1.1870    1.6130 C   0  0  0  0  0  0  0  0  0  0  0  0
  -10.4482   -1.0963    0.4851 C   0  0  0  0  0  0  0  0  0  0  0  0
   -9.8695   -0.3268    2.7464 C   0  0  0  0  0  0  0  0  0  0  0  0
   -3.8757    0.3708   -0.6505 C   0  0  2  0  0  0  0  0  0  0  0  0
   -3.4169   -0.8961   -0.0252 C   0  0  0  0  0  0  0  0  0  0  0  0
   -3.3744   -2.0152   -0.8298 C   0  0  0  0  0  0  0  0  0  0  0  0
   -2.9725   -3.2298   -0.3140 C   0  0  0  0  0  0  0  0  0  0  0  0
   -2.6106   -3.3308    1.0111 C   0  0  0  0  0  0  0  0  0  0  0  0
   -2.1043   -4.8772    1.6516 Cl  0  0  0  0  0  0  0  0  0  0  0  0
   -2.6600   -2.1969    1.8016 C   0  0  0  0  0  0  0  0  0  0  0  0
   -3.0559   -0.9742    1.3158 C   0  0  0  0  0  0  0  0  0  0  0  0
   -3.0428    1.5028   -0.3844 N   0  0  0  0  0  0  0  0  0  0  0  0
   -1.6547    1.4281   -0.1818 C   0  0  0  0  0  0  0  0  0  0  0  0
   -0.8361    2.4872    0.0341 C   0  0  0  0  0  0  0  0  0  0  0  0
    0.5527    2.3038    0.2260 C   0  0  0  0  0  0  0  0  0  0  0  0
    1.1035    1.0437    0.1977 C   0  0  0  0  0  0  0  0  0  0  0  0
    2.5237    0.8771    0.4060 N   0  0  0  0  0  0  0  0  0  0  0  0
    3.2770    2.1001    0.6619 C   0  0  0  0  0  0  0  0  0  0  0  0
    3.2044   -0.3728    0.3597 C   0  0  0  0  0  0  0  0  0  0  0  0
    4.0864   -0.6358   -0.8010 C   0  0  1  0  0  0  0  0  0  0  0  0
    5.2332    0.2635   -1.0400 C   0  0  0  0  0  0  0  0  0  0  0  0
    6.4067    0.0362   -0.0995 C   0  0  0  0  0  0  0  0  0  0  0  0
    6.7932   -1.4211    0.0080 C   0  0  2  0  0  0  0  0  0  0  0  0
    8.1787   -1.6648   -0.0383 N   0  0  0  0  0  0  0  0  0  0  0  0
    9.0171   -1.0701    0.9134 C   0  0  0  0  0  0  0  0  0  0  0  0
   10.1708   -0.2790    0.3571 C   0  0  0  0  0  0  0  0  0  0  0  0
   10.0348    0.0565   -1.0235 N   0  0  0  0  0  0  0  0  0  0  0  0
   10.5081    1.3032   -1.6147 C   0  0  0  0  0  0  0  0  0  0  0  0
    9.4002   -0.8697   -1.8950 C   0  0  0  0  0  0  0  0  0  0  0  0
    9.3701   -0.6908   -3.1439 O   0  0  0  0  0  0  0  0  0  0  0  0
    8.7781   -2.0538   -1.2492 C   0  0  0  0  0  0  0  0  0  0  0  0
    6.0219   -2.2193   -1.0325 C   0  0  0  0  0  0  0  0  0  0  0  0
    4.5433   -2.0809   -0.7281 C   0  0  0  0  0  0  0  0  0  0  0  0
    0.2429    0.0052   -0.0234 C   0  0  0  0  0  0  0  0  0  0  0  0
   -1.0816    0.2136   -0.2033 N   0  0  0  0  0  0  0  0  0  0  0  0
   -3.6905    2.7678   -0.3503 C   0  0  0  0  0  0  0  0  0  0  0  0
   -3.3076    3.7559    0.2955 O   0  0  0  0  0  0  0  0  0  0  0  0
   -4.9686    2.9365   -1.1714 C   0  0  0  0  0  0  0  0  0  0  0  0
   -9.1812    3.5791    0.6780 H   0  0  0  0  0  0  0  0  0  0  0  0
   -9.9262    2.8812   -0.7954 H   0  0  0  0  0  0  0  0  0  0  0  0
  -10.8446    2.8037    0.7206 H   0  0  0  0  0  0  0  0  0  0  0  0
   -7.5926    3.1160   -0.5003 H   0  0  0  0  0  0  0  0  0  0  0  0
   -5.6382   -1.2864    0.5186 H   0  0  0  0  0  0  0  0  0  0  0  0
   -9.5333   -2.2630    2.0025 H   0  0  0  0  0  0  0  0  0  0  0  0
   -9.8987   -0.9230   -0.4437 H   0  0  0  0  0  0  0  0  0  0  0  0
  -10.9862   -2.0794    0.3720 H   0  0  0  0  0  0  0  0  0  0  0  0
  -11.2358   -0.3777    0.7333 H   0  0  0  0  0  0  0  0  0  0  0  0
  -10.1700   -0.9503    3.6254 H   0  0  0  0  0  0  0  0  0  0  0  0
  -10.7778    0.2139    2.4571 H   0  0  0  0  0  0  0  0  0  0  0  0
   -9.0993    0.4263    3.0717 H   0  0  0  0  0  0  0  0  0  0  0  0
   -3.8666    0.2299   -1.7580 H   0  0  0  0  0  0  0  0  0  0  0  0
   -3.6531   -1.9838   -1.8880 H   0  0  0  0  0  0  0  0  0  0  0  0
   -2.9516   -4.0916   -0.9835 H   0  0  0  0  0  0  0  0  0  0  0  0
   -2.3734   -2.2986    2.8326 H   0  0  0  0  0  0  0  0  0  0  0  0
   -3.1100   -0.0673    1.8907 H   0  0  0  0  0  0  0  0  0  0  0  0
   -1.1692    3.5085    0.0656 H   0  0  0  0  0  0  0  0  0  0  0  0
    1.1843    3.1644    0.3912 H   0  0  0  0  0  0  0  0  0  0  0  0
    3.2796    2.7302   -0.2393 H   0  0  0  0  0  0  0  0  0  0  0  0
    4.2735    1.9045    1.0789 H   0  0  0  0  0  0  0  0  0  0  0  0
    2.7490    2.6610    1.5013 H   0  0  0  0  0  0  0  0  0  0  0  0
    3.8040   -0.4795    1.3302 H   0  0  0  0  0  0  0  0  0  0  0  0
    2.4646   -1.2023    0.4019 H   0  0  0  0  0  0  0  0  0  0  0  0
    3.4417   -0.5901   -1.7253 H   0  0  0  0  0  0  0  0  0  0  0  0
    5.6293    0.0182   -2.0653 H   0  0  0  0  0  0  0  0  0  0  0  0
    4.9963    1.3217   -1.0554 H   0  0  0  0  0  0  0  0  0  0  0  0
    6.1135    0.4443    0.8882 H   0  0  0  0  0  0  0  0  0  0  0  0
    7.2282    0.6753   -0.4660 H   0  0  0  0  0  0  0  0  0  0  0  0
    6.4024   -1.7819    0.9912 H   0  0  0  0  0  0  0  0  0  0  0  0
    9.4769   -1.8881    1.5436 H   0  0  0  0  0  0  0  0  0  0  0  0
    8.4791   -0.4290    1.6713 H   0  0  0  0  0  0  0  0  0  0  0  0
   11.1447   -0.8262    0.4735 H   0  0  0  0  0  0  0  0  0  0  0  0
   10.2958    0.6745    0.9286 H   0  0  0  0  0  0  0  0  0  0  0  0
   10.4847    2.1030   -0.8477 H   0  0  0  0  0  0  0  0  0  0  0  0
    9.7875    1.5889   -2.4312 H   0  0  0  0  0  0  0  0  0  0  0  0
   11.5278    1.1381   -2.0156 H   0  0  0  0  0  0  0  0  0  0  0  0
    8.1610   -2.6528   -1.9222 H   0  0  0  0  0  0  0  0  0  0  0  0
    9.6541   -2.7225   -0.9849 H   0  0  0  0  0  0  0  0  0  0  0  0
    6.2516   -3.3128   -0.8531 H   0  0  0  0  0  0  0  0  0  0  0  0
    6.2663   -1.9142   -2.0540 H   0  0  0  0  0  0  0  0  0  0  0  0
    3.9794   -2.7508   -1.4110 H   0  0  0  0  0  0  0  0  0  0  0  0
    4.3907   -2.4854    0.2911 H   0  0  0  0  0  0  0  0  0  0  0  0
    0.5852   -1.0161   -0.0657 H   0  0  0  0  0  0  0  0  0  0  0  0
   -5.3578    3.9341   -1.0226 H   0  0  0  0  0  0  0  0  0  0  0  0
   -4.7711    2.6298   -2.2100 H   0  0  0  0  0  0  0  0  0  0  0  0
  1  2  1  0
  2  3  1  0
  3  4  2  0
  4  5  1  0
  5  6  2  0
  6  7  1  0
  7  8  2  0
  8  9  1  0
  9 10  1  0
 10 11  1  0
 10 12  1  0
  6 13  1  0
 13 14  1  0
 14 15  2  0
 15 16  1  0
 16 17  2  0
 17 18  1  0
 17 19  1  0
 19 20  2  0
 13 21  1  0
 21 22  1  0
 22 23  2  0
 23 24  1  0
 24 25  2  0
 25 26  1  0
 26 27  1  0
 26 28  1  0
 28 29  1  0
 29 30  1  0
 30 31  1  0
 31 32  1  0
 32 33  1  0
 33 34  1  0
 34 35  1  0
 35 36  1  0
 36 37  1  0
 36 38  1  0
 38 39  2  0
 38 40  1  0
 32 41  1  0
 41 42  1  0
 25 43  1  0
 43 44  2  0
 21 45  1  0
 45 46  2  0
 45 47  1  0
  8  3  1  0
 20 14  1  0
 44 22  1  0
 47  5  1  0
 42 29  1  0
 40 33  1  0
  1 48  1  0
  1 49  1  0
  1 50  1  0
  4 51  1  0
  7 52  1  0
 10 53  1  0
 11 54  1  0
 11 55  1  0
 11 56  1  0
 12 57  1  0
 12 58  1  0
 12 59  1  0
 13 60  1  6
 15 61  1  0
 16 62  1  0
 19 63  1  0
 20 64  1  0
 23 65  1  0
 24 66  1  0
 27 67  1  0
 27 68  1  0
 27 69  1  0
 28 70  1  0
 28 71  1  0
 29 72  1  6
 30 73  1  0
 30 74  1  0
 31 75  1  0
 31 76  1  0
 32 77  1  1
 34 78  1  0
 34 79  1  0
 35 80  1  0
 35 81  1  0
 37 82  1  0
 37 83  1  0
 37 84  1  0
 40 85  1  0
 40 86  1  0
 41 87  1  0
 41 88  1  0
 42 89  1  0
 42 90  1  0
 43 91  1  0
 47 92  1  0
 47 93  1  0
M  END
$$$$
