@<TRIPOS>MOLECULE
*****
 38 41 0 0 0
SMALL
GASTEIGER

@<TRIPOS>ATOM
      1 F          -4.0058   -4.2896    0.7880 F       1  UNL1       -0.2055
      2 C          -3.4669   -3.0744    0.4388 C.ar    1  UNL1        0.1234
      3 C          -2.7432   -2.9201   -0.7331 C.ar    1  UNL1       -0.0258
      4 C          -2.1887   -1.7050   -1.1081 C.ar    1  UNL1       -0.0498
      5 C          -2.3568   -0.6091   -0.2964 C.ar    1  UNL1        0.0026
      6 C          -1.8199    0.7073   -0.5922 C.ar    1  UNL1        0.0967
      7 N          -2.5579    1.8367   -0.8151 N.ar    1  UNL1       -0.2351
      8 C          -1.6816    2.8304   -1.0453 C.ar    1  UNL1        0.0972
      9 N          -0.4139    2.3235   -0.9664 N.ar    1  UNL1       -0.3241
     10 C           0.7532    3.1391   -1.1680 C.3     1  UNL1        0.0852
     11 C           1.2099    3.7413    0.1400 C.3     1  UNL1        0.2569
     12 F           0.2576    4.5332    0.7213 F       1  UNL1       -0.2073
     13 F           2.3275    4.5325   -0.0543 F       1  UNL1       -0.2073
     14 C          -0.4827    1.0148   -0.6876 C.ar    1  UNL1        0.0780
     15 C           0.6382    0.1273   -0.5339 C.ar    1  UNL1        0.0172
     16 C           1.0724   -0.7027   -1.5704 C.ar    1  UNL1       -0.0477
     17 C           2.1440   -1.5495   -1.4008 C.ar    1  UNL1       -0.0182
     18 C           2.8230   -1.6052   -0.2018 C.ar    1  UNL1        0.1375
     19 N           3.8942   -2.3402    0.2218 N.ar    1  UNL1       -0.2361
     20 C           4.1601   -2.0101    1.4908 C.ar    1  UNL1        0.0464
     21 C           3.2332   -1.0566    1.8449 C.ar    1  UNL1        0.0293
     22 N           2.4095   -0.8098    0.7967 N.ar    1  UNL1       -0.3060
     23 C           1.3642    0.0196    0.6392 C.ar    1  UNL1        0.0204
     24 C          -3.0860   -0.7670    0.8833 C.ar    1  UNL1       -0.0498
     25 C          -3.6356   -1.9769    1.2524 C.ar    1  UNL1       -0.0258
     26 H          -2.6104   -3.7769   -1.3681 H       1  UNL1        0.0646
     27 H          -1.6232   -1.6046   -2.0395 H       1  UNL1        0.0625
     28 H          -1.9641    3.8677   -1.2584 H       1  UNL1        0.1029
     29 H           1.6106    2.5103   -1.5361 H       1  UNL1        0.0548
     30 H           0.6118    3.9091   -1.9546 H       1  UNL1        0.0548
     31 H           1.4110    2.9072    0.8409 H       1  UNL1        0.1037
     32 H           0.5288   -0.6486   -2.5094 H       1  UNL1        0.0626
     33 H           2.4817   -2.1942   -2.2048 H       1  UNL1        0.0654
     34 H           4.9362   -2.3858    2.1534 H       1  UNL1        0.0845
     35 H           3.1456   -0.5605    2.8002 H       1  UNL1        0.0829
     36 H           1.0801    0.6365    1.4935 H       1  UNL1        0.0820
     37 H          -3.2490    0.0617    1.5580 H       1  UNL1        0.0625
     38 H          -4.2070   -2.1113    2.1711 H       1  UNL1        0.0646
@<TRIPOS>BOND
     1     1     2    1
     2     2     3   ar
     3     3     4   ar
     4     4     5   ar
     5     5     6    1
     6     6     7   ar
     7     7     8   ar
     8     8     9   ar
     9     9    10    1
    10    10    11    1
    11    11    12    1
    12    11    13    1
    13     9    14   ar
    14    14    15    1
    15    15    16   ar
    16    16    17   ar
    17    17    18   ar
    18    18    19   ar
    19    19    20   ar
    20    20    21   ar
    21    21    22   ar
    22    22    23   ar
    23     5    24   ar
    24    24    25   ar
    25    25     2   ar
    26    14     6   ar
    27    23    15   ar
    28    22    18   ar
    29     3    26    1
    30     4    27    1
    31     8    28    1
    32    10    29    1
    33    10    30    1
    34    11    31    1
    35    16    32    1
    36    17    33    1
    37    20    34    1
    38    21    35    1
    39    23    36    1
    40    24    37    1
    41    25    38    1
