
     RDKit          3D

 38 41  0  0  0  0  0  0  0  0999 V2000
   -4.0058   -4.2896    0.7880 F   0  0  0  0  0  0  0  0  0  0  0  0
   -3.4669   -3.0744    0.4388 C   0  0  0  0  0  0  0  0  0  0  0  0
   -2.7432   -2.9201   -0.7331 C   0  0  0  0  0  0  0  0  0  0  0  0
   -2.1887   -1.7050   -1.1081 C   0  0  0  0  0  0  0  0  0  0  0  0
   -2.3568   -0.6091   -0.2964 C   0  0  0  0  0  0  0  0  0  0  0  0
   -1.8199    0.7073   -0.5922 C   0  0  0  0  0  0  0  0  0  0  0  0
   -2.5579    1.8367   -0.8151 N   0  0  0  0  0  0  0  0  0  0  0  0
   -1.6816    2.8304   -1.0453 C   0  0  0  0  0  0  0  0  0  0  0  0
   -0.4139    2.3235   -0.9664 N   0  0  0  0  0  0  0  0  0  0  0  0
    0.7532    3.1391   -1.1680 C   0  0  0  0  0  0  0  0  0  0  0  0
    1.2099    3.7413    0.1400 C   0  0  0  0  0  0  0  0  0  0  0  0
    0.2576    4.5332    0.7213 F   0  0  0  0  0  0  0  0  0  0  0  0
    2.3275    4.5325   -0.0543 F   0  0  0  0  0  0  0  0  0  0  0  0
   -0.4827    1.0148   -0.6876 C   0  0  0  0  0  0  0  0  0  0  0  0
    0.6382    0.1273   -0.5339 C   0  0  0  0  0  0  0  0  0  0  0  0
    1.0724   -0.7027   -1.5704 C   0  0  0  0  0  0  0  0  0  0  0  0
    2.1440   -1.5495   -1.4008 C   0  0  0  0  0  0  0  0  0  0  0  0
    2.8230   -1.6052   -0.2018 C   0  0  0  0  0  0  0  0  0  0  0  0
    3.8942   -2.3402    0.2218 N   0  0  0  0  0  0  0  0  0  0  0  0
    4.1601   -2.0101    1.4908 C   0  0  0  0  0  0  0  0  0  0  0  0
    3.2332   -1.0566    1.8449 C   0  0  0  0  0  0  0  0  0  0  0  0
    2.4095   -0.8098    0.7967 N   0  0  0  0  0  0  0  0  0  0  0  0
    1.3642    0.0196    0.6392 C   0  0  0  0  0  0  0  0  0  0  0  0
   -3.0860   -0.7670    0.8833 C   0  0  0  0  0  0  0  0  0  0  0  0
   -3.6356   -1.9769    1.2524 C   0  0  0  0  0  0  0  0  0  0  0  0
   -2.6104   -3.7769   -1.3681 H   0  0  0  0  0  0  0  0  0  0  0  0
   -1.6232   -1.6046   -2.0395 H   0  0  0  0  0  0  0  0  0  0  0  0
   -1.9641    3.8677   -1.2584 H   0  0  0  0  0  0  0  0  0  0  0  0
    1.6106    2.5103   -1.5361 H   0  0  0  0  0  0  0  0  0  0  0  0
    0.6118    3.9091   -1.9546 H   0  0  0  0  0  0  0  0  0  0  0  0
    1.4110    2.9072    0.8409 H   0  0  0  0  0  0  0  0  0  0  0  0
    0.5288   -0.6486   -2.5094 H   0  0  0  0  0  0  0  0  0  0  0  0
    2.4817   -2.1942   -2.2048 H   0  0  0  0  0  0  0  0  0  0  0  0
    4.9362   -2.3858    2.1534 H   0  0  0  0  0  0  0  0  0  0  0  0
    3.1456   -0.5605    2.8002 H   0  0  0  0  0  0  0  0  0  0  0  0
    1.0801    0.6365    1.4935 H   0  0  0  0  0  0  0  0  0  0  0  0
   -3.2490    0.0617    1.5580 H   0  0  0  0  0  0  0  0  0  0  0  0
   -4.2070   -2.1113    2.1711 H   0  0  0  0  0  0  0  0  0  0  0  0
  1  2  1  0
  2  3  2  0
  3  4  1  0
  4  5  2  0
  5  6  1  0
  6  7  1  0
  7  8  2  0
  8  9  1  0
  9 10  1  0
 10 11  1  0
 11 12  1  0
 11 13  1  0
  9 14  1  0
 14 15  1  0
 15 16  1  0
 16 17  2  0
 17 18  1  0
 18 19  2  0
 19 20  1  0
 20 21  2  0
 21 22  1  0
 22 23  1  0
  5 24  1  0
 24 25  2  0
 25  2  1  0
 14  6  2  0
 23 15  2  0
 22 18  1  0
  3 26  1  0
  4 27  1  0
  8 28  1  0
 10 29  1  0
 10 30  1  0
 11 31  1  0
 16 32  1  0
 17 33  1  0
 20 34  1  0
 21 35  1  0
 23 36  1  0
 24 37  1  0
 25 38  1  0
M  END
$$$$
