
     RDKit          3D

 61 64  0  0  0  0  0  0  0  0999 V2000
    7.1718    1.4100    0.5641 C   0  0  0  0  0  0  0  0  0  0  0  0
    6.0568    2.2247   -0.0673 C   0  0  0  0  0  0  0  0  0  0  0  0
    6.2936    2.3932   -1.5331 C   0  0  0  0  0  0  0  0  0  0  0  0
    4.8058    1.6946    0.3137 N   0  0  0  0  0  0  0  0  0  0  0  0
    3.6319    2.2951   -0.1571 C   0  0  0  0  0  0  0  0  0  0  0  0
    2.5900    1.2930   -0.6608 C   0  0  0  0  0  0  0  0  0  0  0  0
    2.3063    0.3889    0.4944 C   0  0  0  0  0  0  0  0  0  0  0  0
    3.5600   -0.3620    0.8515 C   0  0  0  0  0  0  0  0  0  0  0  0
    4.7753    0.4659    0.9758 C   0  0  0  0  0  0  0  0  0  0  0  0
    1.2104   -0.4915    0.3052 N   0  0  0  0  0  0  0  0  0  0  0  0
   -0.0566   -0.7391    0.9301 C   0  0  0  0  0  0  0  0  0  0  0  0
   -0.2313    0.0377    1.9043 O   0  0  0  0  0  0  0  0  0  0  0  0
   -0.8965   -1.7926    0.3703 C   0  0  0  0  0  0  0  0  0  0  0  0
   -0.6365   -2.6105   -0.7096 C   0  0  0  0  0  0  0  0  0  0  0  0
   -1.7458   -3.4198   -0.8113 C   0  0  0  0  0  0  0  0  0  0  0  0
   -2.6163   -3.0594    0.1993 C   0  0  0  0  0  0  0  0  0  0  0  0
   -3.8043   -3.7618    0.2704 C   0  0  0  0  0  0  0  0  0  0  0  0
   -4.1066   -4.7603   -0.6094 C   0  0  0  0  0  0  0  0  0  0  0  0
   -3.2255   -5.1096   -1.6154 C   0  0  0  0  0  0  0  0  0  0  0  0
   -2.0334   -4.4257   -1.7096 C   0  0  0  0  0  0  0  0  0  0  0  0
   -2.0927   -2.0502    0.9344 N   0  0  0  0  0  0  0  0  0  0  0  0
   -2.7719   -1.4681    2.0526 C   0  0  0  0  0  0  0  0  0  0  0  0
   -3.6413   -0.3227    1.7124 C   0  0  0  0  0  0  0  0  0  0  0  0
   -4.2174    0.1556    2.7289 O   0  0  0  0  0  0  0  0  0  0  0  0
   -3.8094    0.1814    0.3949 N   0  0  0  0  0  0  0  0  0  0  0  0
   -4.6586    1.2948    0.0862 C   0  0  0  0  0  0  0  0  0  0  0  0
   -4.3857    2.6279    0.0425 C   0  0  0  0  0  0  0  0  0  0  0  0
   -5.3751    3.5180   -0.2828 C   0  0  0  0  0  0  0  0  0  0  0  0
   -6.6429    3.0857   -0.5665 C   0  0  0  0  0  0  0  0  0  0  0  0
   -7.8564    4.2736   -0.9735 Cl  0  0  0  0  0  0  0  0  0  0  0  0
   -6.9611    1.7354   -0.5327 C   0  0  0  0  0  0  0  0  0  0  0  0
   -5.9468    0.8367   -0.2005 C   0  0  0  0  0  0  0  0  0  0  0  0
    8.0896    2.0648    0.5509 H   0  0  0  0  0  0  0  0  0  0  0  0
    6.9549    1.1435    1.5994 H   0  0  0  0  0  0  0  0  0  0  0  0
    7.4422    0.5472   -0.0840 H   0  0  0  0  0  0  0  0  0  0  0  0
    6.1180    3.2630    0.3734 H   0  0  0  0  0  0  0  0  0  0  0  0
    5.9101    3.3665   -1.8959 H   0  0  0  0  0  0  0  0  0  0  0  0
    7.4054    2.4437   -1.6756 H   0  0  0  0  0  0  0  0  0  0  0  0
    5.9620    1.5324   -2.1363 H   0  0  0  0  0  0  0  0  0  0  0  0
    3.8499    3.0748   -0.8889 H   0  0  0  0  0  0  0  0  0  0  0  0
    3.1318    2.8127    0.7138 H   0  0  0  0  0  0  0  0  0  0  0  0
    2.8979    0.7736   -1.5668 H   0  0  0  0  0  0  0  0  0  0  0  0
    1.6611    1.8986   -0.8172 H   0  0  0  0  0  0  0  0  0  0  0  0
    2.0801    1.0494    1.3773 H   0  0  0  0  0  0  0  0  0  0  0  0
    3.7186   -1.2510    0.1921 H   0  0  0  0  0  0  0  0  0  0  0  0
    3.3409   -0.8262    1.8582 H   0  0  0  0  0  0  0  0  0  0  0  0
    5.0283    0.6556    2.0608 H   0  0  0  0  0  0  0  0  0  0  0  0
    5.6523   -0.1455    0.6166 H   0  0  0  0  0  0  0  0  0  0  0  0
    1.5423   -1.0447   -0.5353 H   0  0  0  0  0  0  0  0  0  0  0  0
    0.2701   -2.5664   -1.3028 H   0  0  0  0  0  0  0  0  0  0  0  0
   -4.5171   -3.5145    1.0457 H   0  0  0  0  0  0  0  0  0  0  0  0
   -5.0609   -5.2730   -0.4958 H   0  0  0  0  0  0  0  0  0  0  0  0
   -3.4498   -5.8929   -2.3147 H   0  0  0  0  0  0  0  0  0  0  0  0
   -1.3265   -4.6649   -2.4717 H   0  0  0  0  0  0  0  0  0  0  0  0
   -3.3392   -2.2765    2.5840 H   0  0  0  0  0  0  0  0  0  0  0  0
   -2.0563   -1.0870    2.8361 H   0  0  0  0  0  0  0  0  0  0  0  0
   -3.3052   -0.2616   -0.3871 H   0  0  0  0  0  0  0  0  0  0  0  0
   -3.3422    2.8324    0.2888 H   0  0  0  0  0  0  0  0  0  0  0  0
   -5.0729    4.5667   -0.2951 H   0  0  0  0  0  0  0  0  0  0  0  0
   -7.9691    1.4430   -0.7627 H   0  0  0  0  0  0  0  0  0  0  0  0
   -6.3061   -0.2025   -0.2034 H   0  0  0  0  0  0  0  0  0  0  0  0
  1  2  1  0
  2  3  1  0
  2  4  1  0
  4  5  1  0
  5  6  1  0
  6  7  1  0
  7  8  1  0
  8  9  1  0
  7 10  1  0
 10 11  1  0
 11 12  2  0
 11 13  1  0
 13 14  2  0
 14 15  1  0
 15 16  2  0
 16 17  1  0
 17 18  2  0
 18 19  1  0
 19 20  2  0
 16 21  1  0
 21 22  1  0
 22 23  1  0
 23 24  2  0
 23 25  1  0
 25 26  1  0
 26 27  2  0
 27 28  1  0
 28 29  2  0
 29 30  1  0
 29 31  1  0
 31 32  2  0
  9  4  1  0
 21 13  1  0
 32 26  1  0
 20 15  1  0
  1 33  1  0
  1 34  1  0
  1 35  1  0
  2 36  1  0
  3 37  1  0
  3 38  1  0
  3 39  1  0
  5 40  1  0
  5 41  1  0
  6 42  1  0
  6 43  1  0
  7 44  1  0
  8 45  1  0
  8 46  1  0
  9 47  1  0
  9 48  1  0
 10 49  1  0
 14 50  1  0
 17 51  1  0
 18 52  1  0
 19 53  1  0
 20 54  1  0
 22 55  1  0
 22 56  1  0
 25 57  1  0
 27 58  1  0
 28 59  1  0
 31 60  1  0
 32 61  1  0
M  END
$$$$
