@<TRIPOS>MOLECULE
*****
 61 64 0 0 0
SMALL
GASTEIGER

@<TRIPOS>ATOM
      1 C           7.1718    1.4100    0.5641 C.3     1  UNL1       -0.0497
      2 C           6.0568    2.2247   -0.0673 C.3     1  UNL1        0.0048
      3 C           6.2936    2.3932   -1.5331 C.3     1  UNL1       -0.0497
      4 N           4.8058    1.6946    0.3137 N.3     1  UNL1       -0.2998
      5 C           3.6319    2.2951   -0.1571 C.3     1  UNL1        0.0008
      6 C           2.5900    1.2930   -0.6608 C.3     1  UNL1       -0.0216
      7 C           2.3063    0.3889    0.4944 C.3     1  UNL1        0.0258
      8 C           3.5600   -0.3620    0.8515 C.3     1  UNL1       -0.0216
      9 C           4.7753    0.4659    0.9758 C.3     1  UNL1        0.0008
     10 N           1.2104   -0.4915    0.3052 N.am    1  UNL1       -0.3072
     11 C          -0.0566   -0.7391    0.9301 C.2     1  UNL1        0.2608
     12 O          -0.2313    0.0377    1.9043 O.2     1  UNL1       -0.2686
     13 C          -0.8965   -1.7926    0.3703 C.ar    1  UNL1        0.1058
     14 C          -0.6365   -2.6105   -0.7096 C.ar    1  UNL1       -0.0239
     15 C          -1.7458   -3.4198   -0.8113 C.ar    1  UNL1        0.0006
     16 C          -2.6163   -3.0594    0.1993 C.ar    1  UNL1        0.0501
     17 C          -3.8043   -3.7618    0.2704 C.ar    1  UNL1       -0.0376
     18 C          -4.1066   -4.7603   -0.6094 C.ar    1  UNL1       -0.0598
     19 C          -3.2255   -5.1096   -1.6154 C.ar    1  UNL1       -0.0611
     20 C          -2.0334   -4.4257   -1.7096 C.ar    1  UNL1       -0.0526
     21 N          -2.0927   -2.0502    0.9344 N.ar    1  UNL1       -0.3273
     22 C          -2.7719   -1.4681    2.0526 C.3     1  UNL1        0.1005
     23 C          -3.6413   -0.3227    1.7124 C.2     1  UNL1        0.2370
     24 O          -4.2174    0.1556    2.7289 O.2     1  UNL1       -0.2735
     25 N          -3.8094    0.1814    0.3949 N.am    1  UNL1       -0.2840
     26 C          -4.6586    1.2948    0.0862 C.ar    1  UNL1        0.0335
     27 C          -4.3857    2.6279    0.0425 C.ar    1  UNL1       -0.0391
     28 C          -5.3751    3.5180   -0.2828 C.ar    1  UNL1       -0.0416
     29 C          -6.6429    3.0857   -0.5665 C.ar    1  UNL1        0.0411
     30 CL         -7.8564    4.2736   -0.9735 Cl      1  UNL1       -0.0835
     31 C          -6.9611    1.7354   -0.5327 C.ar    1  UNL1       -0.0416
     32 C          -5.9468    0.8367   -0.2005 C.ar    1  UNL1       -0.0391
     33 H           8.0896    2.0648    0.5509 H       1  UNL1        0.0245
     34 H           6.9549    1.1435    1.5994 H       1  UNL1        0.0245
     35 H           7.4422    0.5472   -0.0840 H       1  UNL1        0.0245
     36 H           6.1180    3.2630    0.3734 H       1  UNL1        0.0457
     37 H           5.9101    3.3665   -1.8959 H       1  UNL1        0.0245
     38 H           7.4054    2.4437   -1.6756 H       1  UNL1        0.0245
     39 H           5.9620    1.5324   -2.1363 H       1  UNL1        0.0245
     40 H           3.8499    3.0748   -0.8889 H       1  UNL1        0.0427
     41 H           3.1318    2.8127    0.7138 H       1  UNL1        0.0427
     42 H           2.8979    0.7736   -1.5668 H       1  UNL1        0.0295
     43 H           1.6611    1.8986   -0.8172 H       1  UNL1        0.0295
     44 H           2.0801    1.0494    1.3773 H       1  UNL1        0.0499
     45 H           3.7186   -1.2510    0.1921 H       1  UNL1        0.0295
     46 H           3.3409   -0.8262    1.8582 H       1  UNL1        0.0295
     47 H           5.0283    0.6556    2.0608 H       1  UNL1        0.0427
     48 H           5.6523   -0.1455    0.6166 H       1  UNL1        0.0427
     49 H           1.5423   -1.0447   -0.5353 H       1  UNL1        0.1493
     50 H           0.2701   -2.5664   -1.3028 H       1  UNL1        0.0646
     51 H          -4.5171   -3.5145    1.0457 H       1  UNL1        0.0638
     52 H          -5.0609   -5.2730   -0.4958 H       1  UNL1        0.0618
     53 H          -3.4498   -5.8929   -2.3147 H       1  UNL1        0.0618
     54 H          -1.3265   -4.6649   -2.4717 H       1  UNL1        0.0624
     55 H          -3.3392   -2.2765    2.5840 H       1  UNL1        0.0588
     56 H          -2.0563   -1.0870    2.8361 H       1  UNL1        0.0588
     57 H          -3.3052   -0.2616   -0.3871 H       1  UNL1        0.1549
     58 H          -3.3422    2.8324    0.2888 H       1  UNL1        0.0636
     59 H          -5.0729    4.5667   -0.2951 H       1  UNL1        0.0633
     60 H          -7.9691    1.4430   -0.7627 H       1  UNL1        0.0633
     61 H          -6.3061   -0.2025   -0.2034 H       1  UNL1        0.0636
@<TRIPOS>BOND
     1     1     2    1
     2     2     3    1
     3     2     4    1
     4     4     5    1
     5     5     6    1
     6     6     7    1
     7     7     8    1
     8     8     9    1
     9     7    10    1
    10    10    11   am
    11    11    12    2
    12    11    13    1
    13    13    14   ar
    14    14    15   ar
    15    15    16   ar
    16    16    17   ar
    17    17    18   ar
    18    18    19   ar
    19    19    20   ar
    20    16    21   ar
    21    21    22    1
    22    22    23    1
    23    23    24    2
    24    23    25   am
    25    25    26    1
    26    26    27   ar
    27    27    28   ar
    28    28    29   ar
    29    29    30    1
    30    29    31   ar
    31    31    32   ar
    32     9     4    1
    33    21    13   ar
    34    32    26   ar
    35    20    15   ar
    36     1    33    1
    37     1    34    1
    38     1    35    1
    39     2    36    1
    40     3    37    1
    41     3    38    1
    42     3    39    1
    43     5    40    1
    44     5    41    1
    45     6    42    1
    46     6    43    1
    47     7    44    1
    48     8    45    1
    49     8    46    1
    50     9    47    1
    51     9    48    1
    52    10    49    1
    53    14    50    1
    54    17    51    1
    55    18    52    1
    56    19    53    1
    57    20    54    1
    58    22    55    1
    59    22    56    1
    60    25    57    1
    61    27    58    1
    62    28    59    1
    63    31    60    1
    64    32    61    1
