@<TRIPOS>MOLECULE
*****
 62 67 0 0 0
SMALL
GASTEIGER

@<TRIPOS>ATOM
      1 O          -4.1971   -0.9875   -0.4786 O.2     1  UNL1       -0.2702
      2 C          -4.1004    0.1048    0.1938 C.2     1  UNL1        0.2443
      3 N          -5.3498    0.6447    0.5864 N.am    1  UNL1       -0.3085
      4 C          -6.6226    0.0323    0.2655 C.3     1  UNL1        0.0236
      5 C          -7.3561   -0.4322    1.4971 C.3     1  UNL1       -0.0322
      6 C          -8.4644   -1.3569    1.0573 C.3     1  UNL1       -0.0252
      7 C          -8.7972   -1.2345   -0.3900 C.3     1  UNL1        0.0554
      8 O          -8.1160   -2.1933   -1.1529 O.3     1  UNL1       -0.3918
      9 C          -8.7265    0.1403   -0.9592 C.3     1  UNL1       -0.0252
     10 C          -7.5242    0.9200   -0.5352 C.3     1  UNL1       -0.0322
     11 C          -2.8049    0.6796    0.4900 C.ar    1  UNL1        0.0370
     12 C          -2.7225    1.8487    1.2049 C.ar    1  UNL1       -0.0490
     13 C          -1.5206    2.4401    1.5179 C.ar    1  UNL1       -0.0516
     14 C          -0.3620    1.8571    1.1108 C.ar    1  UNL1        0.0036
     15 C          -0.3735    0.6880    0.3927 C.ar    1  UNL1       -0.0331
     16 C          -1.6200    0.1124    0.0915 C.ar    1  UNL1       -0.0455
     17 C           1.0076    0.3033    0.0974 C.3     1  UNL1        0.0023
     18 C           1.8481    1.3461    0.7083 C.ar    1  UNL1        0.0099
     19 C           3.1571    1.7895    0.9311 C.ar    1  UNL1        0.0966
     20 C           4.3168    1.0727    0.4442 C.ar    1  UNL1        0.0024
     21 C           5.3942    0.8704    1.2628 C.ar    1  UNL1       -0.0519
     22 C           6.4979    0.1718    0.7481 C.ar    1  UNL1       -0.0534
     23 C           6.4897   -0.2954   -0.5488 C.ar    1  UNL1       -0.0178
     24 C           7.6617   -1.0127   -1.0319 C.ar    1  UNL1       -0.0177
     25 C           8.4443   -1.7909   -0.1839 C.ar    1  UNL1       -0.0506
     26 C           9.5508   -2.4590   -0.6742 C.ar    1  UNL1       -0.0196
     27 C           9.9243   -2.3878   -1.9990 C.ar    1  UNL1        0.1169
     28 O          11.0491   -3.0735   -2.4730 O.3     1  UNL1       -0.5068
     29 C           9.1498   -1.6173   -2.8398 C.ar    1  UNL1       -0.0196
     30 C           8.0426   -0.9476   -2.3543 C.ar    1  UNL1       -0.0506
     31 C           5.4051   -0.0848   -1.3540 C.ar    1  UNL1       -0.0534
     32 C           4.3180    0.6037   -0.8457 C.ar    1  UNL1       -0.0519
     33 N           3.0647    2.9293    1.6370 N.ar    1  UNL1       -0.1730
     34 N           1.8015    3.2253    1.8679 N.ar    1  UNL1       -0.2761
     35 C           1.0456    2.2679    1.3072 C.ar    1  UNL1        0.0701
     36 H          -5.3781    1.5242    1.1323 H       1  UNL1        0.1493
     37 H          -6.3953   -0.8697   -0.3300 H       1  UNL1        0.0498
     38 H          -7.7917    0.3974    2.0512 H       1  UNL1        0.0284
     39 H          -6.5970   -0.9589    2.1388 H       1  UNL1        0.0284
     40 H          -8.0801   -2.3999    1.2288 H       1  UNL1        0.0291
     41 H          -9.3657   -1.2672    1.6872 H       1  UNL1        0.0291
     42 H          -9.8841   -1.5456   -0.4814 H       1  UNL1        0.0593
     43 H          -8.1894   -1.9550   -2.1233 H       1  UNL1        0.2098
     44 H          -8.6717    0.0167   -2.0812 H       1  UNL1        0.0291
     45 H          -9.6547    0.7311   -0.8026 H       1  UNL1        0.0291
     46 H          -6.9181    1.2459   -1.4311 H       1  UNL1        0.0284
     47 H          -7.8061    1.8439    0.0151 H       1  UNL1        0.0284
     48 H          -3.6123    2.3528    1.5515 H       1  UNL1        0.0625
     49 H          -1.5045    3.3513    2.0766 H       1  UNL1        0.0624
     50 H          -1.6230   -0.8219   -0.4821 H       1  UNL1        0.0628
     51 H           1.2822   -0.6579    0.6146 H       1  UNL1        0.0363
     52 H           1.2046    0.1769   -0.9896 H       1  UNL1        0.0363
     53 H           5.4262    1.2195    2.2658 H       1  UNL1        0.0624
     54 H           7.3303    0.0288    1.4175 H       1  UNL1        0.0624
     55 H           8.1502   -1.8470    0.8610 H       1  UNL1        0.0625
     56 H          10.1707   -3.0723   -0.0148 H       1  UNL1        0.0654
     57 H          11.1262   -4.0713   -2.2740 H       1  UNL1        0.2921
     58 H           9.4628   -1.5744   -3.8843 H       1  UNL1        0.0654
     59 H           7.4459   -0.3433   -3.0447 H       1  UNL1        0.0625
     60 H           5.4356   -0.4657   -2.3639 H       1  UNL1        0.0624
     61 H           3.4767    0.7508   -1.5150 H       1  UNL1        0.0624
     62 H           1.4493    4.0363    2.3810 H       1  UNL1        0.1889
@<TRIPOS>BOND
     1     1     2    2
     2     2     3   am
     3     3     4    1
     4     4     5    1
     5     5     6    1
     6     6     7    1
     7     7     8    1
     8     7     9    1
     9     9    10    1
    10     2    11    1
    11    11    12   ar
    12    12    13   ar
    13    13    14   ar
    14    14    15   ar
    15    15    16   ar
    16    15    17    1
    17    17    18    1
    18    18    19   ar
    19    19    20    1
    20    20    21   ar
    21    21    22   ar
    22    22    23   ar
    23    23    24    1
    24    24    25   ar
    25    25    26   ar
    26    26    27   ar
    27    27    28    1
    28    27    29   ar
    29    29    30   ar
    30    23    31   ar
    31    31    32   ar
    32    19    33   ar
    33    33    34   ar
    34    34    35   ar
    35    10     4    1
    36    16    11   ar
    37    35    18   ar
    38    35    14    1
    39    32    20   ar
    40    30    24   ar
    41     3    36    1
    42     4    37    1
    43     5    38    1
    44     5    39    1
    45     6    40    1
    46     6    41    1
    47     7    42    1
    48     8    43    1
    49     9    44    1
    50     9    45    1
    51    10    46    1
    52    10    47    1
    53    12    48    1
    54    13    49    1
    55    16    50    1
    56    17    51    1
    57    17    52    1
    58    21    53    1
    59    22    54    1
    60    25    55    1
    61    26    56    1
    62    28    57    1
    63    29    58    1
    64    30    59    1
    65    31    60    1
    66    32    61    1
    67    34    62    1
