
     RDKit          3D

 62 67  0  0  0  0  0  0  0  0999 V2000
   -4.1971   -0.9875   -0.4786 O   0  0  0  0  0  0  0  0  0  0  0  0
   -4.1004    0.1048    0.1938 C   0  0  0  0  0  0  0  0  0  0  0  0
   -5.3498    0.6447    0.5864 N   0  0  0  0  0  0  0  0  0  0  0  0
   -6.6226    0.0323    0.2655 C   0  0  1  0  0  0  0  0  0  0  0  0
   -7.3561   -0.4322    1.4971 C   0  0  0  0  0  0  0  0  0  0  0  0
   -8.4644   -1.3569    1.0573 C   0  0  0  0  0  0  0  0  0  0  0  0
   -8.7972   -1.2345   -0.3900 C   0  0  2  0  0  0  0  0  0  0  0  0
   -8.1160   -2.1933   -1.1529 O   0  0  0  0  0  0  0  0  0  0  0  0
   -8.7265    0.1403   -0.9592 C   0  0  0  0  0  0  0  0  0  0  0  0
   -7.5242    0.9200   -0.5352 C   0  0  0  0  0  0  0  0  0  0  0  0
   -2.8049    0.6796    0.4900 C   0  0  0  0  0  0  0  0  0  0  0  0
   -2.7225    1.8487    1.2049 C   0  0  0  0  0  0  0  0  0  0  0  0
   -1.5206    2.4401    1.5179 C   0  0  0  0  0  0  0  0  0  0  0  0
   -0.3620    1.8571    1.1108 C   0  0  0  0  0  0  0  0  0  0  0  0
   -0.3735    0.6880    0.3927 C   0  0  0  0  0  0  0  0  0  0  0  0
   -1.6200    0.1124    0.0915 C   0  0  0  0  0  0  0  0  0  0  0  0
    1.0076    0.3033    0.0974 C   0  0  0  0  0  0  0  0  0  0  0  0
    1.8481    1.3461    0.7083 C   0  0  0  0  0  0  0  0  0  0  0  0
    3.1571    1.7895    0.9311 C   0  0  0  0  0  0  0  0  0  0  0  0
    4.3168    1.0727    0.4442 C   0  0  0  0  0  0  0  0  0  0  0  0
    5.3942    0.8704    1.2628 C   0  0  0  0  0  0  0  0  0  0  0  0
    6.4979    0.1718    0.7481 C   0  0  0  0  0  0  0  0  0  0  0  0
    6.4897   -0.2954   -0.5488 C   0  0  0  0  0  0  0  0  0  0  0  0
    7.6617   -1.0127   -1.0319 C   0  0  0  0  0  0  0  0  0  0  0  0
    8.4443   -1.7909   -0.1839 C   0  0  0  0  0  0  0  0  0  0  0  0
    9.5508   -2.4590   -0.6742 C   0  0  0  0  0  0  0  0  0  0  0  0
    9.9243   -2.3878   -1.9990 C   0  0  0  0  0  0  0  0  0  0  0  0
   11.0491   -3.0735   -2.4730 O   0  0  0  0  0  0  0  0  0  0  0  0
    9.1498   -1.6173   -2.8398 C   0  0  0  0  0  0  0  0  0  0  0  0
    8.0426   -0.9476   -2.3543 C   0  0  0  0  0  0  0  0  0  0  0  0
    5.4051   -0.0848   -1.3540 C   0  0  0  0  0  0  0  0  0  0  0  0
    4.3180    0.6037   -0.8457 C   0  0  0  0  0  0  0  0  0  0  0  0
    3.0647    2.9293    1.6370 N   0  0  0  0  0  0  0  0  0  0  0  0
    1.8015    3.2253    1.8679 N   0  0  0  0  0  0  0  0  0  0  0  0
    1.0456    2.2679    1.3072 C   0  0  0  0  0  0  0  0  0  0  0  0
   -5.3781    1.5242    1.1323 H   0  0  0  0  0  0  0  0  0  0  0  0
   -6.3953   -0.8697   -0.3300 H   0  0  0  0  0  0  0  0  0  0  0  0
   -7.7917    0.3974    2.0512 H   0  0  0  0  0  0  0  0  0  0  0  0
   -6.5970   -0.9589    2.1388 H   0  0  0  0  0  0  0  0  0  0  0  0
   -8.0801   -2.3999    1.2288 H   0  0  0  0  0  0  0  0  0  0  0  0
   -9.3657   -1.2672    1.6872 H   0  0  0  0  0  0  0  0  0  0  0  0
   -9.8841   -1.5456   -0.4814 H   0  0  0  0  0  0  0  0  0  0  0  0
   -8.1894   -1.9550   -2.1233 H   0  0  0  0  0  0  0  0  0  0  0  0
   -8.6717    0.0167   -2.0812 H   0  0  0  0  0  0  0  0  0  0  0  0
   -9.6547    0.7311   -0.8026 H   0  0  0  0  0  0  0  0  0  0  0  0
   -6.9181    1.2459   -1.4311 H   0  0  0  0  0  0  0  0  0  0  0  0
   -7.8061    1.8439    0.0151 H   0  0  0  0  0  0  0  0  0  0  0  0
   -3.6123    2.3528    1.5515 H   0  0  0  0  0  0  0  0  0  0  0  0
   -1.5045    3.3513    2.0766 H   0  0  0  0  0  0  0  0  0  0  0  0
   -1.6230   -0.8219   -0.4821 H   0  0  0  0  0  0  0  0  0  0  0  0
    1.2822   -0.6579    0.6146 H   0  0  0  0  0  0  0  0  0  0  0  0
    1.2046    0.1769   -0.9896 H   0  0  0  0  0  0  0  0  0  0  0  0
    5.4262    1.2195    2.2658 H   0  0  0  0  0  0  0  0  0  0  0  0
    7.3303    0.0288    1.4175 H   0  0  0  0  0  0  0  0  0  0  0  0
    8.1502   -1.8470    0.8610 H   0  0  0  0  0  0  0  0  0  0  0  0
   10.1707   -3.0723   -0.0148 H   0  0  0  0  0  0  0  0  0  0  0  0
   11.1262   -4.0713   -2.2740 H   0  0  0  0  0  0  0  0  0  0  0  0
    9.4628   -1.5744   -3.8843 H   0  0  0  0  0  0  0  0  0  0  0  0
    7.4459   -0.3433   -3.0447 H   0  0  0  0  0  0  0  0  0  0  0  0
    5.4356   -0.4657   -2.3639 H   0  0  0  0  0  0  0  0  0  0  0  0
    3.4767    0.7508   -1.5150 H   0  0  0  0  0  0  0  0  0  0  0  0
    1.4493    4.0363    2.3810 H   0  0  0  0  0  0  0  0  0  0  0  0
  1  2  2  0
  2  3  1  0
  3  4  1  0
  4  5  1  0
  5  6  1  0
  6  7  1  0
  7  8  1  0
  7  9  1  0
  9 10  1  0
  2 11  1  0
 11 12  2  0
 12 13  1  0
 13 14  2  0
 14 15  1  0
 15 16  2  0
 15 17  1  0
 17 18  1  0
 18 19  1  0
 19 20  1  0
 20 21  2  0
 21 22  1  0
 22 23  2  0
 23 24  1  0
 24 25  2  0
 25 26  1  0
 26 27  2  0
 27 28  1  0
 27 29  1  0
 29 30  2  0
 23 31  1  0
 31 32  2  0
 19 33  2  0
 33 34  1  0
 34 35  1  0
 10  4  1  0
 16 11  1  0
 35 18  2  0
 35 14  1  0
 32 20  1  0
 30 24  1  0
  3 36  1  0
  4 37  1  6
  5 38  1  0
  5 39  1  0
  6 40  1  0
  6 41  1  0
  7 42  1  1
  8 43  1  0
  9 44  1  0
  9 45  1  0
 10 46  1  0
 10 47  1  0
 12 48  1  0
 13 49  1  0
 16 50  1  0
 17 51  1  0
 17 52  1  0
 21 53  1  0
 22 54  1  0
 25 55  1  0
 26 56  1  0
 28 57  1  0
 29 58  1  0
 30 59  1  0
 31 60  1  0
 32 61  1  0
 34 62  1  0
M  END
$$$$
