@<TRIPOS>MOLECULE
*****
 29 31 0 0 0
SMALL
GASTEIGER

@<TRIPOS>ATOM
      1 BR         -1.1379    3.8718    2.2048 Br      1  UNL1       -0.0503
      2 C          -1.5818    2.3664    1.1294 C.ar    1  UNL1        0.0186
      3 C          -0.5996    1.4087    0.9059 C.ar    1  UNL1       -0.0367
      4 C          -0.9420    0.3117    0.1137 C.ar    1  UNL1        0.0243
      5 C          -2.2236    0.1657   -0.4401 C.ar    1  UNL1        0.0428
      6 N          -2.6736   -0.9442   -1.2449 N.am    1  UNL1       -0.2834
      7 C          -2.1237   -2.2642   -1.0982 C.2     1  UNL1        0.2386
      8 O          -2.7488   -3.0518   -1.8879 O.2     1  UNL1       -0.2734
      9 C          -1.0295   -2.7413   -0.2210 C.3     1  UNL1        0.1168
     10 N           0.0906   -1.8475   -0.1657 N.2     1  UNL1       -0.2718
     11 C           0.2123   -0.5722   -0.0301 C.2     1  UNL1        0.0932
     12 C           1.5362    0.0249   -0.0290 C.ar    1  UNL1        0.0893
     13 C           2.5422   -0.9395   -0.1287 C.ar    1  UNL1       -0.0342
     14 C           3.8994   -0.7065   -0.1805 C.ar    1  UNL1       -0.0583
     15 C           4.3529    0.5929   -0.1319 C.ar    1  UNL1       -0.0436
     16 C           3.3598    1.5382   -0.0339 C.ar    1  UNL1        0.0283
     17 N           2.0673    1.2343    0.0110 N.ar    1  UNL1       -0.2534
     18 C          -3.1970    1.1458   -0.1999 C.ar    1  UNL1       -0.0388
     19 C          -2.8566    2.2281    0.5807 C.ar    1  UNL1       -0.0460
     20 H           0.3818    1.4901    1.3362 H       1  UNL1        0.0636
     21 H          -3.4176   -0.6496   -1.9048 H       1  UNL1        0.1549
     22 H          -1.3868   -2.9589    0.8065 H       1  UNL1        0.0605
     23 H          -0.6761   -3.7061   -0.6416 H       1  UNL1        0.0605
     24 H           2.3557   -2.0271   -0.1783 H       1  UNL1        0.0639
     25 H           4.6590   -1.4690   -0.2570 H       1  UNL1        0.0619
     26 H           5.3683    0.9525   -0.1607 H       1  UNL1        0.0633
     27 H           3.5400    2.6235    0.0160 H       1  UNL1        0.0830
     28 H          -4.1554    0.9602   -0.6616 H       1  UNL1        0.0637
     29 H          -3.6154    2.9632    0.7500 H       1  UNL1        0.0629
@<TRIPOS>BOND
     1     1     2    1
     2     2     3   ar
     3     3     4   ar
     4     4     5   ar
     5     5     6    1
     6     6     7   am
     7     7     8    2
     8     7     9    1
     9     9    10    1
    10    10    11    2
    11    11    12    1
    12    12    13   ar
    13    13    14   ar
    14    14    15   ar
    15    15    16   ar
    16    16    17   ar
    17     5    18   ar
    18    18    19   ar
    19    19     2   ar
    20    11     4    1
    21    17    12   ar
    22     3    20    1
    23     6    21    1
    24     9    22    1
    25     9    23    1
    26    13    24    1
    27    14    25    1
    28    15    26    1
    29    16    27    1
    30    18    28    1
    31    19    29    1
