@<TRIPOS>MOLECULE
*****
 40 42 0 0 0
SMALL
GASTEIGER

@<TRIPOS>ATOM
      1 O           1.8985    1.3902   -0.1815 O.2     1  UNL1       -0.2698
      2 C           1.9835    0.1451   -0.3160 C.2     1  UNL1        0.2484
      3 N           3.2629   -0.4155   -0.5312 N.am    1  UNL1       -0.2790
      4 C           4.3779    0.4692   -0.5822 C.ar    1  UNL1        0.0736
      5 C           5.1106    0.8275    0.5150 C.ar    1  UNL1        0.0816
      6 CL          4.6561    0.1647    2.0680 Cl      1  UNL1       -0.0800
      7 C           6.1794    1.6864    0.4111 C.ar    1  UNL1        0.0478
      8 N           6.4984    2.1744   -0.7945 N.ar    1  UNL1       -0.2602
      9 C           5.8233    1.8668   -1.9198 C.ar    1  UNL1        0.0478
     10 C           4.7507    1.0036   -1.8090 C.ar    1  UNL1        0.0816
     11 CL          3.8801    0.6123   -3.2879 Cl      1  UNL1       -0.0800
     12 C           0.7728   -0.6680   -0.2460 C.ar    1  UNL1        0.0407
     13 C           0.7705   -2.0366   -0.3818 C.ar    1  UNL1       -0.0459
     14 C          -0.4201   -2.7592   -0.3053 C.ar    1  UNL1       -0.0154
     15 C          -1.6262   -2.1416   -0.0935 C.ar    1  UNL1        0.1683
     16 O          -2.8179   -2.8020   -0.0107 O.3     1  UNL1       -0.4305
     17 C          -2.9903   -4.1718   -0.1254 C.3     1  UNL1        0.3894
     18 F          -3.8383   -4.4440   -1.2065 F       1  UNL1       -0.1663
     19 F          -3.6065   -4.7019    1.0138 F       1  UNL1       -0.1663
     20 C          -1.6491   -0.7387    0.0489 C.ar    1  UNL1        0.1628
     21 O          -2.8674   -0.1093    0.2633 O.3     1  UNL1       -0.4880
     22 C          -2.8246    1.3164    0.3998 C.3     1  UNL1        0.0926
     23 C          -4.1964    1.8869    0.6276 C.3     1  UNL1       -0.0068
     24 C          -4.9957    1.4868    1.7921 C.3     1  UNL1       -0.0468
     25 C          -4.3652    2.8768    1.7175 C.3     1  UNL1       -0.0468
     26 C          -0.4552   -0.0804   -0.0345 C.ar    1  UNL1       -0.0042
     27 H           3.3989   -1.4532   -0.6514 H       1  UNL1        0.1552
     28 H           6.7611    1.9702    1.2853 H       1  UNL1        0.0845
     29 H           6.0944    2.2704   -2.8884 H       1  UNL1        0.0845
     30 H           1.7143   -2.5569   -0.5512 H       1  UNL1        0.0626
     31 H          -0.3061   -3.8235   -0.4254 H       1  UNL1        0.0655
     32 H          -2.0317   -4.6851   -0.2959 H       1  UNL1        0.1520
     33 H          -2.3448    1.6907   -0.5138 H       1  UNL1        0.0699
     34 H          -2.1952    1.5885    1.2710 H       1  UNL1        0.0699
     35 H          -4.7558    2.0846   -0.3125 H       1  UNL1        0.0334
     36 H          -4.5379    0.7531    2.4811 H       1  UNL1        0.0269
     37 H          -6.1007    1.5265    1.7405 H       1  UNL1        0.0269
     38 H          -4.9970    3.7459    1.5412 H       1  UNL1        0.0269
     39 H          -3.5629    3.0406    2.4649 H       1  UNL1        0.0269
     40 H          -0.4485    1.0098    0.0732 H       1  UNL1        0.0663
@<TRIPOS>BOND
     1     1     2    2
     2     2     3   am
     3     3     4    1
     4     4     5   ar
     5     5     6    1
     6     5     7   ar
     7     7     8   ar
     8     8     9   ar
     9     9    10   ar
    10    10    11    1
    11     2    12    1
    12    12    13   ar
    13    13    14   ar
    14    14    15   ar
    15    15    16    1
    16    16    17    1
    17    17    18    1
    18    17    19    1
    19    15    20   ar
    20    20    21    1
    21    21    22    1
    22    22    23    1
    23    23    24    1
    24    24    25    1
    25    20    26   ar
    26    10     4   ar
    27    26    12   ar
    28    25    23    1
    29     3    27    1
    30     7    28    1
    31     9    29    1
    32    13    30    1
    33    14    31    1
    34    17    32    1
    35    22    33    1
    36    22    34    1
    37    23    35    1
    38    24    36    1
    39    24    37    1
    40    25    38    1
    41    25    39    1
    42    26    40    1
