
     RDKit          3D

 40 42  0  0  0  0  0  0  0  0999 V2000
    1.8985    1.3902   -0.1815 O   0  0  0  0  0  0  0  0  0  0  0  0
    1.9835    0.1451   -0.3160 C   0  0  0  0  0  0  0  0  0  0  0  0
    3.2629   -0.4155   -0.5312 N   0  0  0  0  0  0  0  0  0  0  0  0
    4.3779    0.4692   -0.5822 C   0  0  0  0  0  0  0  0  0  0  0  0
    5.1106    0.8275    0.5150 C   0  0  0  0  0  0  0  0  0  0  0  0
    4.6561    0.1647    2.0680 Cl  0  0  0  0  0  0  0  0  0  0  0  0
    6.1794    1.6864    0.4111 C   0  0  0  0  0  0  0  0  0  0  0  0
    6.4984    2.1744   -0.7945 N   0  0  0  0  0  0  0  0  0  0  0  0
    5.8233    1.8668   -1.9198 C   0  0  0  0  0  0  0  0  0  0  0  0
    4.7507    1.0036   -1.8090 C   0  0  0  0  0  0  0  0  0  0  0  0
    3.8801    0.6123   -3.2879 Cl  0  0  0  0  0  0  0  0  0  0  0  0
    0.7728   -0.6680   -0.2460 C   0  0  0  0  0  0  0  0  0  0  0  0
    0.7705   -2.0366   -0.3818 C   0  0  0  0  0  0  0  0  0  0  0  0
   -0.4201   -2.7592   -0.3053 C   0  0  0  0  0  0  0  0  0  0  0  0
   -1.6262   -2.1416   -0.0935 C   0  0  0  0  0  0  0  0  0  0  0  0
   -2.8179   -2.8020   -0.0107 O   0  0  0  0  0  0  0  0  0  0  0  0
   -2.9903   -4.1718   -0.1254 C   0  0  0  0  0  0  0  0  0  0  0  0
   -3.8383   -4.4440   -1.2065 F   0  0  0  0  0  0  0  0  0  0  0  0
   -3.6065   -4.7019    1.0138 F   0  0  0  0  0  0  0  0  0  0  0  0
   -1.6491   -0.7387    0.0489 C   0  0  0  0  0  0  0  0  0  0  0  0
   -2.8674   -0.1093    0.2633 O   0  0  0  0  0  0  0  0  0  0  0  0
   -2.8246    1.3164    0.3998 C   0  0  0  0  0  0  0  0  0  0  0  0
   -4.1964    1.8869    0.6276 C   0  0  0  0  0  0  0  0  0  0  0  0
   -4.9957    1.4868    1.7921 C   0  0  0  0  0  0  0  0  0  0  0  0
   -4.3652    2.8768    1.7175 C   0  0  0  0  0  0  0  0  0  0  0  0
   -0.4552   -0.0804   -0.0345 C   0  0  0  0  0  0  0  0  0  0  0  0
    3.3989   -1.4532   -0.6514 H   0  0  0  0  0  0  0  0  0  0  0  0
    6.7611    1.9702    1.2853 H   0  0  0  0  0  0  0  0  0  0  0  0
    6.0944    2.2704   -2.8884 H   0  0  0  0  0  0  0  0  0  0  0  0
    1.7143   -2.5569   -0.5512 H   0  0  0  0  0  0  0  0  0  0  0  0
   -0.3061   -3.8235   -0.4254 H   0  0  0  0  0  0  0  0  0  0  0  0
   -2.0317   -4.6851   -0.2959 H   0  0  0  0  0  0  0  0  0  0  0  0
   -2.3448    1.6907   -0.5138 H   0  0  0  0  0  0  0  0  0  0  0  0
   -2.1952    1.5885    1.2710 H   0  0  0  0  0  0  0  0  0  0  0  0
   -4.7558    2.0846   -0.3125 H   0  0  0  0  0  0  0  0  0  0  0  0
   -4.5379    0.7531    2.4811 H   0  0  0  0  0  0  0  0  0  0  0  0
   -6.1007    1.5265    1.7405 H   0  0  0  0  0  0  0  0  0  0  0  0
   -4.9970    3.7459    1.5412 H   0  0  0  0  0  0  0  0  0  0  0  0
   -3.5629    3.0406    2.4649 H   0  0  0  0  0  0  0  0  0  0  0  0
   -0.4485    1.0098    0.0732 H   0  0  0  0  0  0  0  0  0  0  0  0
  1  2  2  0
  2  3  1  0
  3  4  1  0
  4  5  2  0
  5  6  1  0
  5  7  1  0
  7  8  2  0
  8  9  1  0
  9 10  2  0
 10 11  1  0
  2 12  1  0
 12 13  2  0
 13 14  1  0
 14 15  2  0
 15 16  1  0
 16 17  1  0
 17 18  1  0
 17 19  1  0
 15 20  1  0
 20 21  1  0
 21 22  1  0
 22 23  1  0
 23 24  1  0
 24 25  1  0
 20 26  2  0
 10  4  1  0
 26 12  1  0
 25 23  1  0
  3 27  1  0
  7 28  1  0
  9 29  1  0
 13 30  1  0
 14 31  1  0
 17 32  1  0
 22 33  1  0
 22 34  1  0
 23 35  1  0
 24 36  1  0
 24 37  1  0
 25 38  1  0
 25 39  1  0
 26 40  1  0
M  END
$$$$
