
     RDKit          3D

 71 72  0  0  0  0  0  0  0  0999 V2000
   -7.2081    0.3133    1.8125 C   0  0  0  0  0  0  0  0  0  0  0  0
   -6.6057    1.6302    1.3652 C   0  0  0  0  0  0  0  0  0  0  0  0
   -7.1509    1.9826   -0.0024 C   0  0  0  0  0  0  0  0  0  0  0  0
   -7.0367    2.7030    2.3334 C   0  0  0  0  0  0  0  0  0  0  0  0
   -5.1862    1.5750    1.3713 O   0  0  0  0  0  0  0  0  0  0  0  0
   -4.5459    0.6434    0.5744 C   0  0  0  0  0  0  0  0  0  0  0  0
   -5.2441   -0.1172   -0.1235 O   0  0  0  0  0  0  0  0  0  0  0  0
   -3.1349    0.5134    0.5140 N   0  0  0  0  0  0  0  0  0  0  0  0
   -2.5642   -0.5174   -0.3737 C   0  0  1  0  0  0  0  0  0  0  0  0
   -3.0228   -0.2863   -1.7973 C   0  0  0  0  0  0  0  0  0  0  0  0
   -1.0869   -0.3995   -0.4188 C   0  0  0  0  0  0  0  0  0  0  0  0
   -0.6210    0.3438    0.5239 O   0  0  0  0  0  0  0  0  0  0  0  0
   -0.2144   -0.9936   -1.3543 N   0  0  0  0  0  0  0  0  0  0  0  0
   -0.1126   -1.8270   -2.5242 C   0  0  0  0  0  0  0  0  0  0  0  0
    1.0856   -1.0744   -2.9567 C   0  0  0  0  0  0  0  0  0  0  0  0
    1.2501   -0.9243   -1.4335 C   0  0  1  0  0  0  0  0  0  0  0  0
    1.8741    0.3499   -1.0805 C   0  0  0  0  0  0  0  0  0  0  0  0
    1.3151    1.4188   -0.7821 O   0  0  0  0  0  0  0  0  0  0  0  0
    3.3163    0.3776   -1.0758 N   0  0  0  0  0  0  0  0  0  0  0  0
    4.0446    1.5844   -0.7416 C   0  0  2  0  0  0  0  0  0  0  0  0
    4.8843    2.0430   -1.8930 C   0  0  0  0  0  0  0  0  0  0  0  0
    4.9309    1.4649   -2.9513 O   0  0  0  0  0  0  0  0  0  0  0  0
    4.9682    1.3117    0.4044 C   0  0  0  0  0  0  0  0  0  0  0  0
    5.9753    0.2297    0.0779 C   0  0  0  0  0  0  0  0  0  0  0  0
    6.9011   -0.0351    1.2441 C   0  0  0  0  0  0  0  0  0  0  0  0
    7.6305    1.1631    1.5902 N   0  0  0  0  0  0  0  0  0  0  0  0
    8.9202    1.2208    1.4351 C   0  0  0  0  0  0  0  0  0  0  0  0
    9.6164    2.4063    1.7810 N   0  0  0  0  0  0  0  0  0  0  0  0
    9.6328    0.1242    0.9293 N   0  0  0  0  0  0  0  0  0  0  0  0
   -2.9085   -1.8680    0.1476 C   0  0  0  0  0  0  0  0  0  0  0  0
   -3.4516   -1.8976    1.4347 C   0  0  0  0  0  0  0  0  0  0  0  0
   -3.8272   -3.1178    1.9342 C   0  0  0  0  0  0  0  0  0  0  0  0
   -3.6918   -4.2946    1.2288 C   0  0  0  0  0  0  0  0  0  0  0  0
   -3.1529   -4.2192   -0.0337 C   0  0  0  0  0  0  0  0  0  0  0  0
   -2.7575   -3.0131   -0.5872 C   0  0  0  0  0  0  0  0  0  0  0  0
   -7.6413   -0.2146    0.9196 H   0  0  0  0  0  0  0  0  0  0  0  0
   -6.4344   -0.3025    2.2937 H   0  0  0  0  0  0  0  0  0  0  0  0
   -8.0384    0.4416    2.5242 H   0  0  0  0  0  0  0  0  0  0  0  0
   -6.3786    2.4442   -0.6401 H   0  0  0  0  0  0  0  0  0  0  0  0
   -7.4515    1.0373   -0.5255 H   0  0  0  0  0  0  0  0  0  0  0  0
   -8.0638    2.6000    0.0565 H   0  0  0  0  0  0  0  0  0  0  0  0
   -7.1117    2.2075    3.3391 H   0  0  0  0  0  0  0  0  0  0  0  0
   -6.3057    3.5160    2.3994 H   0  0  0  0  0  0  0  0  0  0  0  0
   -8.0637    3.0513    2.0651 H   0  0  0  0  0  0  0  0  0  0  0  0
   -2.5093    1.1248    1.0777 H   0  0  0  0  0  0  0  0  0  0  0  0
   -3.4914   -1.2190   -2.1679 H   0  0  0  0  0  0  0  0  0  0  0  0
   -2.2242    0.0859   -2.4718 H   0  0  0  0  0  0  0  0  0  0  0  0
   -3.8110    0.5170   -1.8556 H   0  0  0  0  0  0  0  0  0  0  0  0
   -0.9829   -1.8407   -3.1973 H   0  0  0  0  0  0  0  0  0  0  0  0
    0.1853   -2.8652   -2.1922 H   0  0  0  0  0  0  0  0  0  0  0  0
    1.9074   -1.6422   -3.4314 H   0  0  0  0  0  0  0  0  0  0  0  0
    0.8546   -0.0883   -3.4248 H   0  0  0  0  0  0  0  0  0  0  0  0
    1.7637   -1.8076   -1.0335 H   0  0  0  0  0  0  0  0  0  0  0  0
    3.8248   -0.4955   -1.3197 H   0  0  0  0  0  0  0  0  0  0  0  0
    3.3542    2.4083   -0.5118 H   0  0  0  0  0  0  0  0  0  0  0  0
    5.4708    2.9272   -1.7683 H   0  0  0  0  0  0  0  0  0  0  0  0
    4.3539    0.9796    1.2722 H   0  0  0  0  0  0  0  0  0  0  0  0
    5.4980    2.2141    0.7102 H   0  0  0  0  0  0  0  0  0  0  0  0
    5.5002   -0.7286   -0.1801 H   0  0  0  0  0  0  0  0  0  0  0  0
    6.6198    0.5761   -0.7619 H   0  0  0  0  0  0  0  0  0  0  0  0
    7.6228   -0.8155    0.8965 H   0  0  0  0  0  0  0  0  0  0  0  0
    6.3589   -0.4665    2.1141 H   0  0  0  0  0  0  0  0  0  0  0  0
    9.6472    3.2232    1.1341 H   0  0  0  0  0  0  0  0  0  0  0  0
   10.0961    2.4457    2.6932 H   0  0  0  0  0  0  0  0  0  0  0  0
    9.7533   -0.0549   -0.1072 H   0  0  0  0  0  0  0  0  0  0  0  0
   10.0653   -0.5479    1.6084 H   0  0  0  0  0  0  0  0  0  0  0  0
   -3.5690   -0.9833    2.0369 H   0  0  0  0  0  0  0  0  0  0  0  0
   -4.2528   -3.1868    2.9271 H   0  0  0  0  0  0  0  0  0  0  0  0
   -3.9941   -5.2639    1.6362 H   0  0  0  0  0  0  0  0  0  0  0  0
   -3.0181   -5.1062   -0.6433 H   0  0  0  0  0  0  0  0  0  0  0  0
   -2.3565   -2.9847   -1.6019 H   0  0  0  0  0  0  0  0  0  0  0  0
  1  2  1  0
  2  3  1  0
  2  4  1  0
  2  5  1  0
  5  6  1  0
  6  7  2  0
  6  8  1  0
  9  8  1  1
  9 10  1  0
  9 11  1  0
 11 12  2  0
 11 13  1  0
 13 14  1  0
 14 15  1  0
 15 16  1  0
 16 17  1  0
 17 18  2  0
 17 19  1  0
 19 20  1  0
 20 21  1  0
 21 22  2  0
 20 23  1  0
 23 24  1  0
 24 25  1  0
 25 26  1  0
 26 27  2  3
 27 28  1  0
 27 29  1  0
  9 30  1  0
 30 31  2  0
 31 32  1  0
 32 33  2  0
 33 34  1  0
 34 35  2  0
 16 13  1  0
 35 30  1  0
  1 36  1  0
  1 37  1  0
  1 38  1  0
  3 39  1  0
  3 40  1  0
  3 41  1  0
  4 42  1  0
  4 43  1  0
  4 44  1  0
  8 45  1  0
 10 46  1  0
 10 47  1  0
 10 48  1  0
 14 49  1  0
 14 50  1  0
 15 51  1  0
 15 52  1  0
 16 53  1  1
 19 54  1  0
 20 55  1  1
 21 56  1  0
 23 57  1  0
 23 58  1  0
 24 59  1  0
 24 60  1  0
 25 61  1  0
 25 62  1  0
 28 63  1  0
 28 64  1  0
 29 65  1  0
 29 66  1  0
 31 67  1  0
 32 68  1  0
 33 69  1  0
 34 70  1  0
 35 71  1  0
M  END
$$$$
