@<TRIPOS>MOLECULE
*****
 71 72 0 0 0
SMALL
GASTEIGER

@<TRIPOS>ATOM
      1 C          -7.2081    0.3133    1.8125 C.3     0  UNK0       -0.0253
      2 C          -6.6057    1.6302    1.3652 C.3     0  UNK0        0.1068
      3 C          -7.1509    1.9826   -0.0024 C.3     0  UNK0       -0.0253
      4 C          -7.0367    2.7030    2.3334 C.3     0  UNK0       -0.0253
      5 O          -5.1862    1.5750    1.3713 O.3     0  UNK0       -0.4446
      6 C          -4.5459    0.6434    0.5744 C.2     0  UNK0        0.4018
      7 O          -5.2441   -0.1172   -0.1235 O.2     0  UNK0       -0.2264
      8 N          -3.1349    0.5134    0.5140 N.am    0  UNK0       -0.2633
      9 C          -2.5642   -0.5174   -0.3737 C.3     0  UNK0        0.1361
     10 C          -3.0228   -0.2863   -1.7973 C.3     0  UNK0       -0.0308
     11 C          -1.0869   -0.3995   -0.4188 C.2     0  UNK0        0.2440
     12 O          -0.6210    0.3438    0.5239 O.2     0  UNK0       -0.2729
     13 N          -0.2144   -0.9936   -1.3543 N.am    0  UNK0       -0.2878
     14 C          -0.1126   -1.8270   -2.5242 C.3     0  UNK0        0.0177
     15 C           1.0856   -1.0744   -2.9567 C.3     0  UNK0       -0.0099
     16 C           1.2501   -0.9243   -1.4335 C.3     0  UNK0        0.1037
     17 C           1.8741    0.3499   -1.0805 C.2     0  UNK0        0.2342
     18 O           1.3151    1.4188   -0.7821 O.2     0  UNK0       -0.2738
     19 N           3.3163    0.3776   -1.0758 N.am    1  ARG1       -0.3044
     20 CA          4.0446    1.5844   -0.7416 C.3     1  ARG1        0.0786
     21 C           4.8843    2.0430   -1.8930 C.2     1  ARG1        0.1404
     22 O           4.9309    1.4649   -2.9513 O.2     1  ARG1       -0.2991
     23 CB          4.9682    1.3117    0.4044 C.3     1  ARG1       -0.0249
     24 CG          5.9753    0.2297    0.0779 C.3     1  ARG1       -0.0166
     25 CD          6.9011   -0.0351    1.2441 C.3     1  ARG1        0.1048
     26 NE          7.6305    1.1631    1.5902 N.pl3   1  ARG1       -0.1138
     27 CZ          8.9202    1.2208    1.4351 C.cat   1  ARG1        0.3765
     28 NH1         9.6164    2.4063    1.7810 N.pl3   1  ARG1       -0.2893
     29 NH2         9.6328    0.1242    0.9293 N.pl3   1  ARG1       -0.2893
     30 C          -2.9085   -1.8680    0.1476 C.ar    0  UNK0       -0.0155
     31 C          -3.4516   -1.8976    1.4347 C.ar    0  UNK0       -0.0561
     32 C          -3.8272   -3.1178    1.9342 C.ar    0  UNK0       -0.0614
     33 C          -3.6918   -4.2946    1.2288 C.ar    0  UNK0       -0.0617
     34 C          -3.1529   -4.2192   -0.0337 C.ar    0  UNK0       -0.0614
     35 C          -2.7575   -3.0131   -0.5872 C.ar    0  UNK0       -0.0561
     36 H          -7.6413   -0.2146    0.9196 H       0  UNK0        0.0268
     37 H          -6.4344   -0.3025    2.2937 H       0  UNK0        0.0268
     38 H          -8.0384    0.4416    2.5242 H       0  UNK0        0.0268
     39 H          -6.3786    2.4442   -0.6401 H       0  UNK0        0.0268
     40 H          -7.4515    1.0373   -0.5255 H       0  UNK0        0.0268
     41 H          -8.0638    2.6000    0.0565 H       0  UNK0        0.0268
     42 H          -7.1117    2.2075    3.3391 H       0  UNK0        0.0268
     43 H          -6.3057    3.5160    2.3994 H       0  UNK0        0.0268
     44 H          -8.0637    3.0513    2.0651 H       0  UNK0        0.0268
     45 H          -2.5093    1.1248    1.0777 H       0  UNK0        0.1534
     46 H          -3.4914   -1.2190   -2.1679 H       0  UNK0        0.0258
     47 H          -2.2242    0.0859   -2.4718 H       0  UNK0        0.0258
     48 H          -3.8110    0.5170   -1.8556 H       0  UNK0        0.0258
     49 H          -0.9829   -1.8407   -3.1973 H       0  UNK0        0.0465
     50 H           0.1853   -2.8652   -2.1922 H       0  UNK0        0.0465
     51 H           1.9074   -1.6422   -3.4314 H       0  UNK0        0.0303
     52 H           0.8546   -0.0883   -3.4248 H       0  UNK0        0.0303
     53 H           1.7637   -1.8076   -1.0335 H       0  UNK0        0.0597
     54 H           3.8248   -0.4955   -1.3197 H       1  ARG1        0.1494
     55 HA          3.3542    2.4083   -0.5118 H       1  ARG1        0.0574
     56 H           5.4708    2.9272   -1.7683 H       1  ARG1        0.1046
     57 HB1         4.3539    0.9796    1.2722 H       1  ARG1        0.0288
     58 HB2         5.4980    2.2141    0.7102 H       1  ARG1        0.0288
     59 HG1         5.5002   -0.7286   -0.1801 H       1  ARG1        0.0298
     60 HG2         6.6198    0.5761   -0.7619 H       1  ARG1        0.0298
     61 HD1         7.6228   -0.8155    0.8965 H       1  ARG1        0.0693
     62 HD2         6.3589   -0.4665    2.1141 H       1  ARG1        0.0693
     63 HH11        9.6472    3.2232    1.1341 H       1  ARG1        0.2546
     64 HH12       10.0961    2.4457    2.6932 H       1  ARG1        0.2546
     65 HH21        9.7533   -0.0549   -0.1072 H       1  ARG1        0.2546
     66 HH22       10.0653   -0.5479    1.6084 H       1  ARG1        0.2546
     67 H          -3.5690   -0.9833    2.0369 H       0  UNK0        0.0621
     68 H          -4.2528   -3.1868    2.9271 H       0  UNK0        0.0618
     69 H          -3.9941   -5.2639    1.6362 H       0  UNK0        0.0618
     70 H          -3.0181   -5.1062   -0.6433 H       0  UNK0        0.0618
     71 H          -2.3565   -2.9847   -1.6019 H       0  UNK0        0.0621
@<TRIPOS>BOND
     1     1     2    1
     2     2     3    1
     3     2     4    1
     4     2     5    1
     5     5     6    1
     6     6     7    2
     7     6     8   am
     8     9     8    1
     9     9    10    1
    10     9    11    1
    11    11    12    2
    12    11    13   am
    13    13    14    1
    14    14    15    1
    15    15    16    1
    16    16    17    1
    17    17    18    2
    18    17    19   am
    19    19    20    1
    20    20    21    1
    21    21    22    2
    22    20    23    1
    23    23    24    1
    24    24    25    1
    25    25    26    1
    26    26    27    2
    27    27    28    1
    28    27    29    1
    29     9    30    1
    30    30    31   ar
    31    31    32   ar
    32    32    33   ar
    33    33    34   ar
    34    34    35   ar
    35    16    13    1
    36    35    30   ar
    37     1    36    1
    38     1    37    1
    39     1    38    1
    40     3    39    1
    41     3    40    1
    42     3    41    1
    43     4    42    1
    44     4    43    1
    45     4    44    1
    46     8    45    1
    47    10    46    1
    48    10    47    1
    49    10    48    1
    50    14    49    1
    51    14    50    1
    52    15    51    1
    53    15    52    1
    54    16    53    1
    55    19    54    1
    56    20    55    1
    57    21    56    1
    58    23    57    1
    59    23    58    1
    60    24    59    1
    61    24    60    1
    62    25    61    1
    63    25    62    1
    64    28    63    1
    65    28    64    1
    66    29    65    1
    67    29    66    1
    68    31    67    1
    69    32    68    1
    70    33    69    1
    71    34    70    1
    72    35    71    1
