@<TRIPOS>MOLECULE
*****
 76 79 0 0 0
SMALL
GASTEIGER

@<TRIPOS>ATOM
      1 C          -0.8528   -0.5772   -3.9542 C.3     1  UNL1       -0.0573
      2 C          -0.2120   -1.2177   -2.7485 C.3     1  UNL1       -0.0054
      3 C          -0.5644   -2.6661   -2.6740 C.3     1  UNL1       -0.0573
      4 C          -0.4332   -0.4666   -1.4865 C.ar    1  UNL1        0.0345
      5 C          -1.5726   -0.4157   -0.6856 C.ar    1  UNL1        0.0662
      6 C          -2.8310   -1.0685   -1.0688 C.2     1  UNL1        0.2506
      7 O          -3.0717   -1.3264   -2.2603 O.2     1  UNL1       -0.2698
      8 N          -3.7798   -1.4150   -0.0956 N.am    1  UNL1       -0.2814
      9 C          -5.0393   -2.0396   -0.2936 C.ar    1  UNL1        0.0337
     10 C          -5.5121   -2.4181   -1.5232 C.ar    1  UNL1       -0.0405
     11 C          -6.7668   -3.0236   -1.6113 C.ar    1  UNL1       -0.0600
     12 C          -7.5288   -3.2438   -0.4907 C.ar    1  UNL1       -0.0616
     13 C          -7.0592   -2.8666    0.7411 C.ar    1  UNL1       -0.0600
     14 C          -5.8354   -2.2751    0.8341 C.ar    1  UNL1       -0.0405
     15 C          -1.3358    0.3717    0.4137 C.ar    1  UNL1        0.0200
     16 C          -2.2333    0.7316    1.4929 C.ar    1  UNL1       -0.0151
     17 C          -3.3140    1.5833    1.3048 C.ar    1  UNL1       -0.0539
     18 C          -4.1812    1.9627    2.2984 C.ar    1  UNL1       -0.0612
     19 C          -3.9796    1.4754    3.5694 C.ar    1  UNL1       -0.0617
     20 C          -2.9296    0.6292    3.8215 C.ar    1  UNL1       -0.0612
     21 C          -2.0636    0.2615    2.7867 C.ar    1  UNL1       -0.0539
     22 C          -0.0135    0.8161    0.2818 C.ar    1  UNL1        0.0578
     23 C           0.6165    1.6965    1.2689 C.ar    1  UNL1       -0.0007
     24 C           0.7551    3.0581    0.9742 C.ar    1  UNL1       -0.0499
     25 C           1.3351    3.9256    1.8577 C.ar    1  UNL1       -0.0258
     26 C           1.7964    3.4574    3.0680 C.ar    1  UNL1        0.1234
     27 F           2.3607    4.3505    3.9068 F       1  UNL1       -0.2055
     28 C           1.6656    2.1221    3.3677 C.ar    1  UNL1       -0.0258
     29 C           1.0800    1.2450    2.4758 C.ar    1  UNL1       -0.0499
     30 N           0.4913    0.3101   -0.8414 N.ar    1  UNL1       -0.3422
     31 C           1.8214    0.5271   -1.3588 C.3     1  UNL1        0.0259
     32 C           2.8361   -0.4849   -0.8894 C.3     1  UNL1       -0.0087
     33 C           4.1582   -0.1784   -1.5318 C.3     1  UNL1        0.0592
     34 O           4.0375   -0.2469   -2.9474 O.3     1  UNL1       -0.3916
     35 C           4.7695    1.1215   -1.1832 C.3     1  UNL1       -0.0002
     36 C           5.0764    1.2917    0.2640 C.3     1  UNL1        0.0676
     37 O           3.9534    1.2145    1.0565 O.3     1  UNL1       -0.3912
     38 C           6.0693    0.2947    0.8073 C.3     1  UNL1        0.0708
     39 C           7.3898    0.3268    0.1673 C.2     1  UNL1        0.3072
     40 O           7.7108    1.1274   -0.7432 O.2     1  UNL1       -0.2509
     41 O           8.3177   -0.6245    0.6451 O.3     1  UNL1       -0.4806
     42 H          -1.5246   -1.2730   -4.4936 H       1  UNL1        0.0236
     43 H          -1.4082    0.3376   -3.6227 H       1  UNL1        0.0236
     44 H          -0.1226   -0.1929   -4.7019 H       1  UNL1        0.0236
     45 H           0.9192   -1.1367   -2.9897 H       1  UNL1        0.0358
     46 H          -1.2862   -2.9029   -3.4752 H       1  UNL1        0.0236
     47 H          -0.9783   -2.8851   -1.6728 H       1  UNL1        0.0236
     48 H           0.3425   -3.3030   -2.8747 H       1  UNL1        0.0236
     49 H          -3.5437   -1.2149    0.9279 H       1  UNL1        0.1551
     50 H          -4.9507   -2.2678   -2.4377 H       1  UNL1        0.0636
     51 H          -7.1080   -3.3098   -2.6024 H       1  UNL1        0.0618
     52 H          -8.5177   -3.7221   -0.5668 H       1  UNL1        0.0618
     53 H          -7.6669   -3.0422    1.6352 H       1  UNL1        0.0618
     54 H          -5.4946   -1.9867    1.8430 H       1  UNL1        0.0636
     55 H          -3.4665    1.9608    0.3094 H       1  UNL1        0.0624
     56 H          -5.0202    2.6322    2.1222 H       1  UNL1        0.0618
     57 H          -4.6742    1.7809    4.3585 H       1  UNL1        0.0618
     58 H          -2.7854    0.2551    4.8274 H       1  UNL1        0.0618
     59 H          -1.2562   -0.4088    3.0190 H       1  UNL1        0.0624
     60 H           0.3697    3.3730   -0.0029 H       1  UNL1        0.0625
     61 H           1.4117    4.9645    1.5686 H       1  UNL1        0.0646
     62 H           2.0209    1.7404    4.3097 H       1  UNL1        0.0646
     63 H           0.9948    0.2046    2.7265 H       1  UNL1        0.0625
     64 H           2.1764    1.5340   -0.9949 H       1  UNL1        0.0493
     65 H           1.8403    0.5827   -2.4484 H       1  UNL1        0.0493
     66 H           2.5592   -1.5200   -1.2906 H       1  UNL1        0.0307
     67 H           2.9116   -0.5934    0.1937 H       1  UNL1        0.0307
     68 H           4.9165   -0.9814   -1.3090 H       1  UNL1        0.0594
     69 H           3.8132   -1.2164   -3.1109 H       1  UNL1        0.2098
     70 H           5.6849    1.2875   -1.8013 H       1  UNL1        0.0315
     71 H           4.0954    1.9925   -1.4751 H       1  UNL1        0.0315
     72 H           5.5849    2.2968    0.3636 H       1  UNL1        0.0599
     73 H           4.1433    0.7799    1.9454 H       1  UNL1        0.2098
     74 H           6.2211    0.5683    1.8849 H       1  UNL1        0.0403
     75 H           5.6150   -0.7296    0.8095 H       1  UNL1        0.0403
     76 H           9.0526   -0.9501    0.0098 H       1  UNL1        0.2951
@<TRIPOS>BOND
     1     1     2    1
     2     2     3    1
     3     2     4    1
     4     4     5   ar
     5     5     6    1
     6     6     7    2
     7     6     8   am
     8     8     9    1
     9     9    10   ar
    10    10    11   ar
    11    11    12   ar
    12    12    13   ar
    13    13    14   ar
    14     5    15   ar
    15    15    16    1
    16    16    17   ar
    17    17    18   ar
    18    18    19   ar
    19    19    20   ar
    20    20    21   ar
    21    15    22   ar
    22    22    23    1
    23    23    24   ar
    24    24    25   ar
    25    25    26   ar
    26    26    27    1
    27    26    28   ar
    28    28    29   ar
    29    22    30   ar
    30    30    31    1
    31    31    32    1
    32    32    33    1
    33    33    34    1
    34    33    35    1
    35    35    36    1
    36    36    37    1
    37    36    38    1
    38    38    39    1
    39    39    40    2
    40    39    41    1
    41    30     4   ar
    42    14     9   ar
    43    21    16   ar
    44    29    23   ar
    45     1    42    1
    46     1    43    1
    47     1    44    1
    48     2    45    1
    49     3    46    1
    50     3    47    1
    51     3    48    1
    52     8    49    1
    53    10    50    1
    54    11    51    1
    55    12    52    1
    56    13    53    1
    57    14    54    1
    58    17    55    1
    59    18    56    1
    60    19    57    1
    61    20    58    1
    62    21    59    1
    63    24    60    1
    64    25    61    1
    65    28    62    1
    66    29    63    1
    67    31    64    1
    68    31    65    1
    69    32    66    1
    70    32    67    1
    71    33    68    1
    72    34    69    1
    73    35    70    1
    74    35    71    1
    75    36    72    1
    76    37    73    1
    77    38    74    1
    78    38    75    1
    79    41    76    1
