@<TRIPOS>MOLECULE
*****
 65 68 0 0 0
SMALL
GASTEIGER

@<TRIPOS>ATOM
      1 C          -7.5160    1.0516    1.4627 C.3     1  UNL1       -0.0385
      2 C          -8.3904   -0.0914    1.0102 C.3     1  UNL1        0.0607
      3 O          -9.4852    0.4169    0.3282 O.3     1  UNL1       -0.3916
      4 C          -7.6357   -0.9928    0.0658 C.3     1  UNL1        0.0499
      5 C          -6.4284   -1.5835    0.6818 C.2     1  UNL1        0.2180
      6 O          -6.6710   -2.6085    1.4198 O.2     1  UNL1       -0.2755
      7 N          -5.1116   -1.1484    0.5404 N.am    1  UNL1       -0.3014
      8 C          -4.0321   -1.8213    1.1967 C.3     1  UNL1        0.0153
      9 C          -3.0327   -2.3316    0.1955 C.3     1  UNL1       -0.0273
     10 C          -2.9065   -1.5635   -1.0527 C.3     1  UNL1        0.0236
     11 C          -1.5392   -0.9241   -1.0684 C.ar    1  UNL1        0.1548
     12 N          -1.0854    0.0235   -0.2318 N.ar    1  UNL1       -0.2093
     13 C           0.1660    0.3245   -0.5678 C.ar    1  UNL1        0.1785
     14 C           1.0775    1.3057    0.0605 C.ar    1  UNL1        0.1266
     15 C           0.6234    2.4932    0.5943 C.ar    1  UNL1        0.0587
     16 N           1.4687    3.3811    1.1661 N.ar    1  UNL1       -0.2361
     17 C           2.7883    3.1338    1.2334 C.ar    1  UNL1        0.1472
     18 N           3.6758    4.0711    1.8371 N.pl3   1  UNL1       -0.3413
     19 C           3.2547    1.9547    0.7056 C.ar    1  UNL1        0.1672
     20 C           4.6808    1.6380    0.7524 C.ar    1  UNL1        0.2701
     21 N           5.6358    2.4110    1.2809 N.ar    1  UNL1       -0.1055
     22 N           6.7854    1.7538    1.1156 N.ar    1  UNL1       -0.1115
     23 C           6.5470    0.5857    0.4917 C.ar    1  UNL1        0.2230
     24 C           7.5566   -0.4406    0.1202 C.3     1  UNL1        0.0401
     25 C           7.7070   -1.4147    1.2591 C.3     1  UNL1       -0.0516
     26 C           7.1091   -1.2257   -1.1043 C.3     1  UNL1       -0.0516
     27 C           8.8676    0.2185   -0.2342 C.3     1  UNL1       -0.0516
     28 O           5.2530    0.5578    0.2900 O.2     1  UNL1       -0.4183
     29 N           2.4008    1.0753    0.1369 N.ar    1  UNL1       -0.2338
     30 N           0.4968   -0.4413   -1.6228 N.ar    1  UNL1       -0.2466
     31 C           1.7774   -0.4269   -2.3003 C.3     1  UNL1        0.0325
     32 N          -0.5471   -1.1947   -1.9167 N.ar    1  UNL1       -0.1544
     33 C          -3.8908   -0.5300   -1.3814 C.3     1  UNL1       -0.0273
     34 C          -4.7587   -0.0176   -0.2585 C.3     1  UNL1        0.0153
     35 H          -7.2436    1.6759    0.6017 H       1  UNL1        0.0255
     36 H          -6.5836    0.6308    1.8969 H       1  UNL1        0.0255
     37 H          -8.0593    1.6370    2.2473 H       1  UNL1        0.0255
     38 H          -8.7322   -0.7136    1.8475 H       1  UNL1        0.0595
     39 H         -10.3404    0.1376    0.7459 H       1  UNL1        0.2098
     40 H          -8.3262   -1.8036   -0.2769 H       1  UNL1        0.0384
     41 H          -7.3411   -0.4204   -0.8320 H       1  UNL1        0.0384
     42 H          -3.5612   -1.0970    1.9152 H       1  UNL1        0.0465
     43 H          -4.4325   -2.6305    1.8180 H       1  UNL1        0.0465
     44 H          -2.0604   -2.4192    0.7361 H       1  UNL1        0.0287
     45 H          -3.3302   -3.4063   -0.0013 H       1  UNL1        0.0287
     46 H          -2.8817   -2.2912   -1.9020 H       1  UNL1        0.0381
     47 H          -0.4347    2.6972    0.5434 H       1  UNL1        0.0853
     48 H           3.6644    4.3016    2.8629 H       1  UNL1        0.1438
     49 H           4.3727    4.5519    1.2251 H       1  UNL1        0.1438
     50 H           8.1770   -0.9276    2.1525 H       1  UNL1        0.0240
     51 H           6.6785   -1.6928    1.5910 H       1  UNL1        0.0240
     52 H           8.2708   -2.2994    0.9300 H       1  UNL1        0.0240
     53 H           6.0288   -1.4521   -1.0703 H       1  UNL1        0.0240
     54 H           7.7214   -2.1489   -1.1200 H       1  UNL1        0.0240
     55 H           7.3990   -0.5980   -1.9819 H       1  UNL1        0.0240
     56 H           8.6473    1.0326   -0.9533 H       1  UNL1        0.0240
     57 H           9.4308    0.5640    0.6573 H       1  UNL1        0.0240
     58 H           9.4638   -0.5341   -0.8022 H       1  UNL1        0.0240
     59 H           2.4756   -1.1794   -1.8654 H       1  UNL1        0.0473
     60 H           1.6662   -0.6099   -3.4048 H       1  UNL1        0.0473
     61 H           2.2582    0.5702   -2.2054 H       1  UNL1        0.0473
     62 H          -3.4067    0.3845   -1.8352 H       1  UNL1        0.0287
     63 H          -4.6078   -0.8693   -2.1867 H       1  UNL1        0.0287
     64 H          -5.5836    0.5432   -0.7011 H       1  UNL1        0.0465
     65 H          -4.1708    0.7272    0.3621 H       1  UNL1        0.0465
@<TRIPOS>BOND
     1     1     2    1
     2     2     3    1
     3     2     4    1
     4     4     5    1
     5     5     6    2
     6     5     7   am
     7     7     8    1
     8     8     9    1
     9     9    10    1
    10    10    11    1
    11    11    12   ar
    12    12    13   ar
    13    13    14    1
    14    14    15   ar
    15    15    16   ar
    16    16    17   ar
    17    17    18    1
    18    17    19   ar
    19    19    20    1
    20    20    21   ar
    21    21    22   ar
    22    22    23   ar
    23    23    24    1
    24    24    25    1
    25    24    26    1
    26    24    27    1
    27    23    28   ar
    28    19    29   ar
    29    13    30   ar
    30    30    31    1
    31    30    32   ar
    32    10    33    1
    33    33    34    1
    34    34     7    1
    35    32    11   ar
    36    29    14   ar
    37    28    20   ar
    38     1    35    1
    39     1    36    1
    40     1    37    1
    41     2    38    1
    42     3    39    1
    43     4    40    1
    44     4    41    1
    45     8    42    1
    46     8    43    1
    47     9    44    1
    48     9    45    1
    49    10    46    1
    50    15    47    1
    51    18    48    1
    52    18    49    1
    53    25    50    1
    54    25    51    1
    55    25    52    1
    56    26    53    1
    57    26    54    1
    58    26    55    1
    59    27    56    1
    60    27    57    1
    61    27    58    1
    62    31    59    1
    63    31    60    1
    64    31    61    1
    65    33    62    1
    66    33    63    1
    67    34    64    1
    68    34    65    1
