@<TRIPOS>MOLECULE
*****
 36 38 0 0 0
SMALL
GASTEIGER

@<TRIPOS>ATOM
      1 C          -1.5307    3.0173   -2.0358 C.3     1  UNL1       -0.0222
      2 C          -1.2507    2.0230   -0.9370 C.ar    1  UNL1        0.0426
      3 C          -2.2562    1.7620   -0.0292 C.ar    1  UNL1        0.0018
      4 C          -2.0173    0.8556    0.9818 C.ar    1  UNL1        0.1324
      5 O          -3.0178    0.5819    1.9027 O.3     1  UNL1       -0.4529
      6 C          -3.9502   -0.4176    1.7358 C.ar    1  UNL1        0.1644
      7 C          -4.8939   -0.5841    2.7306 C.ar    1  UNL1        0.0730
      8 N          -5.8028   -1.5577    2.5687 N.ar    1  UNL1       -0.2401
      9 C          -5.8534   -2.3743    1.5098 C.ar    1  UNL1        0.1161
     10 N          -4.9376   -2.2252    0.5273 N.ar    1  UNL1       -0.2401
     11 C          -4.0099   -1.2598    0.6534 C.ar    1  UNL1        0.0730
     12 C          -0.7773    0.2583    1.0267 C.ar    1  UNL1        0.0112
     13 C           0.2128    0.5267    0.1184 C.ar    1  UNL1        0.1295
     14 C           1.5388   -0.1387    0.2003 C.2     1  UNL1        0.2678
     15 O           1.7809   -0.9631    1.1055 O.2     1  UNL1       -0.2681
     16 N           2.5280    0.1712   -0.7602 N.am    1  UNL1       -0.2651
     17 C           3.8333   -0.3632   -0.8324 C.ar    1  UNL1        0.1252
     18 C           4.3591   -1.2864    0.0352 C.ar    1  UNL1       -0.0201
     19 C           5.6663   -1.7570   -0.1189 C.ar    1  UNL1       -0.0387
     20 C           6.4590   -1.3064   -1.1448 C.ar    1  UNL1        0.0592
     21 CL          8.1052   -1.8737   -1.3711 Cl      1  UNL1       -0.0820
     22 C           5.9125   -0.3813   -2.0029 C.ar    1  UNL1        0.0480
     23 N           4.6686    0.0456   -1.8297 N.ar    1  UNL1       -0.2387
     24 N          -0.0565    1.4141   -0.8512 N.ar    1  UNL1       -0.2470
     25 H          -2.2097    2.4976   -2.7528 H       1  UNL1        0.0293
     26 H          -2.0618    3.8904   -1.6133 H       1  UNL1        0.0293
     27 H          -0.6065    3.3760   -2.5010 H       1  UNL1        0.0293
     28 H          -3.2121    2.2647   -0.1174 H       1  UNL1        0.0672
     29 H          -4.8845    0.0687    3.6173 H       1  UNL1        0.0868
     30 H          -6.6093   -3.1588    1.4100 H       1  UNL1        0.1047
     31 H          -3.2826   -1.1424   -0.1283 H       1  UNL1        0.0868
     32 H          -0.5661   -0.4553    1.8095 H       1  UNL1        0.0677
     33 H           2.2855    0.8809   -1.5199 H       1  UNL1        0.1566
     34 H           3.7913   -1.6773    0.8564 H       1  UNL1        0.0652
     35 H           6.0867   -2.4833    0.5598 H       1  UNL1        0.0634
     36 H           6.5591   -0.0423   -2.8034 H       1  UNL1        0.0845
@<TRIPOS>BOND
     1     1     2    1
     2     2     3   ar
     3     3     4   ar
     4     4     5    1
     5     5     6    1
     6     6     7   ar
     7     7     8   ar
     8     8     9   ar
     9     9    10   ar
    10    10    11   ar
    11     4    12   ar
    12    12    13   ar
    13    13    14    1
    14    14    15    2
    15    14    16   am
    16    16    17    1
    17    17    18   ar
    18    18    19   ar
    19    19    20   ar
    20    20    21    1
    21    20    22   ar
    22    22    23   ar
    23    13    24   ar
    24    24     2   ar
    25    11     6   ar
    26    23    17   ar
    27     1    25    1
    28     1    26    1
    29     1    27    1
    30     3    28    1
    31     7    29    1
    32     9    30    1
    33    11    31    1
    34    12    32    1
    35    16    33    1
    36    18    34    1
    37    19    35    1
    38    22    36    1
