
     RDKit          3D

 48 49  0  0  0  0  0  0  0  0999 V2000
    1.8455    0.5753   -2.2270 O   0  0  0  0  0  0  0  0  0  0  0  0
    1.8441    0.6345   -0.9095 C   0  0  0  0  0  0  0  0  0  0  0  0
    0.6680    1.3110   -0.5548 N   0  0  0  0  0  0  0  0  0  0  0  0
   -0.3884    1.6201   -1.5586 C   0  0  2  0  0  0  0  0  0  0  0  0
    0.0736    2.9074   -2.2464 C   0  0  0  0  0  0  0  0  0  0  0  0
   -0.6388    3.3945   -3.1442 O   0  0  0  0  0  0  0  0  0  0  0  0
    1.2545    3.4621   -1.8373 O   0  0  0  0  0  0  0  0  0  0  0  0
   -1.6697    1.9500   -0.9374 C   0  0  0  0  0  0  0  0  0  0  0  0
   -2.2104    1.1267    0.1462 C   0  0  0  0  0  0  0  0  0  0  0  0
   -2.4742    1.8360    1.3356 C   0  0  0  0  0  0  0  0  0  0  0  0
   -2.9984    1.2932    2.4677 C   0  0  0  0  0  0  0  0  0  0  0  0
   -3.3028   -0.0426    2.4811 C   0  0  0  0  0  0  0  0  0  0  0  0
   -3.0588   -0.7700    1.3371 C   0  0  0  0  0  0  0  0  0  0  0  0
   -2.5156   -0.2060    0.1674 C   0  0  0  0  0  0  0  0  0  0  0  0
   -2.3264   -1.1787   -0.9298 C   0  0  0  0  0  0  0  0  0  0  0  0
   -1.9513   -2.5265   -0.4033 C   0  0  0  0  0  0  0  0  0  0  0  0
   -0.7415   -2.5182    0.5083 C   0  0  0  0  0  0  0  0  0  0  0  0
    0.4848   -2.0284   -0.2397 C   0  0  0  0  0  0  0  0  0  0  0  0
    1.6327   -1.9320    0.7271 C   0  0  0  0  0  0  0  0  0  0  0  0
    2.8744   -1.4009    0.1414 C   0  0  0  0  0  0  0  0  0  0  0  0
    2.9794    0.0414   -0.2002 C   0  0  2  0  0  0  0  0  0  0  0  0
    3.6453    0.8721    0.8677 C   0  0  0  0  0  0  0  0  0  0  0  0
    5.0256   -0.0122    1.6355 S   0  0  0  0  0  0  0  0  0  0  0  0
    0.3971    1.6495    0.3287 H   0  0  0  0  0  0  0  0  0  0  0  0
   -0.4260    0.9246   -2.3787 H   0  0  0  0  0  0  0  0  0  0  0  0
    1.6378    4.3149   -2.2364 H   0  0  0  0  0  0  0  0  0  0  0  0
   -1.6201    3.0490   -0.6499 H   0  0  0  0  0  0  0  0  0  0  0  0
   -2.4252    2.0049   -1.8018 H   0  0  0  0  0  0  0  0  0  0  0  0
   -2.2494    2.8904    1.3715 H   0  0  0  0  0  0  0  0  0  0  0  0
   -3.1949    1.8566    3.3762 H   0  0  0  0  0  0  0  0  0  0  0  0
   -3.7235   -0.5297    3.3562 H   0  0  0  0  0  0  0  0  0  0  0  0
   -3.3257   -1.8193    1.4026 H   0  0  0  0  0  0  0  0  0  0  0  0
   -1.7399   -0.8451   -1.7748 H   0  0  0  0  0  0  0  0  0  0  0  0
   -3.3761   -1.3198   -1.3583 H   0  0  0  0  0  0  0  0  0  0  0  0
   -2.7812   -3.0004    0.1011 H   0  0  0  0  0  0  0  0  0  0  0  0
   -1.6857   -3.2188   -1.2584 H   0  0  0  0  0  0  0  0  0  0  0  0
   -0.5491   -3.5747    0.7857 H   0  0  0  0  0  0  0  0  0  0  0  0
   -0.9240   -1.9723    1.4375 H   0  0  0  0  0  0  0  0  0  0  0  0
    0.6904   -2.9090   -0.9689 H   0  0  0  0  0  0  0  0  0  0  0  0
    0.2913   -1.2095   -0.8963 H   0  0  0  0  0  0  0  0  0  0  0  0
    1.2585   -1.3914    1.6166 H   0  0  0  0  0  0  0  0  0  0  0  0
    1.8407   -2.9705    1.0797 H   0  0  0  0  0  0  0  0  0  0  0  0
    3.0475   -1.9869   -0.8169 H   0  0  0  0  0  0  0  0  0  0  0  0
    3.7948   -1.6720    0.7442 H   0  0  0  0  0  0  0  0  0  0  0  0
    3.8179    0.0426   -1.0058 H   0  0  0  0  0  0  0  0  0  0  0  0
    2.9373    1.2351    1.6358 H   0  0  0  0  0  0  0  0  0  0  0  0
    4.0587    1.7740    0.3755 H   0  0  0  0  0  0  0  0  0  0  0  0
    6.1971    0.2689    0.9078 H   0  0  0  0  0  0  0  0  0  0  0  0
  1  2  2  0
  2  3  1  0
  3  4  1  0
  4  5  1  0
  5  6  2  0
  5  7  1  0
  4  8  1  0
  8  9  1  0
  9 10  2  0
 10 11  1  0
 11 12  2  0
 12 13  1  0
 13 14  2  0
 14 15  1  0
 15 16  1  0
 16 17  1  0
 17 18  1  0
 18 19  1  0
 19 20  1  0
 20 21  1  0
 21 22  1  0
 22 23  1  0
 21  2  1  0
 14  9  1  0
  3 24  1  0
  4 25  1  6
  7 26  1  0
  8 27  1  0
  8 28  1  0
 10 29  1  0
 11 30  1  0
 12 31  1  0
 13 32  1  0
 15 33  1  0
 15 34  1  0
 16 35  1  0
 16 36  1  0
 17 37  1  0
 17 38  1  0
 18 39  1  0
 18 40  1  0
 19 41  1  0
 19 42  1  0
 20 43  1  0
 20 44  1  0
 21 45  1  6
 22 46  1  0
 22 47  1  0
 23 48  1  0
M  END
$$$$
