@<TRIPOS>MOLECULE
*****
 48 49 0 0 0
SMALL
GASTEIGER

@<TRIPOS>ATOM
      1 O           1.8455    0.5753   -2.2270 O.2     1  UNL1       -0.2755
      2 C           1.8441    0.6345   -0.9095 C.2     1  UNL1        0.2175
      3 N           0.6680    1.3110   -0.5548 N.am    1  UNL1       -0.3019
      4 CA         -0.3884    1.6201   -1.5586 C.3     1  UNL1        0.1242
      5 C           0.0736    2.9074   -2.2464 C.2     1  UNL1        0.3256
      6 O          -0.6388    3.3945   -3.1442 O.2     1  UNL1       -0.2489
      7 OXT         1.2545    3.4621   -1.8373 O.3     1  UNL1       -0.4793
      8 C          -1.6697    1.9500   -0.9374 C.3     1  UNL1        0.0015
      9 C          -2.2104    1.1267    0.1462 C.ar    1  UNL1       -0.0419
     10 C          -2.4742    1.8360    1.3356 C.ar    1  UNL1       -0.0582
     11 C          -2.9984    1.2932    2.4677 C.ar    1  UNL1       -0.0615
     12 C          -3.3028   -0.0426    2.4811 C.ar    1  UNL1       -0.0615
     13 C          -3.0588   -0.7700    1.3371 C.ar    1  UNL1       -0.0583
     14 C          -2.5156   -0.2060    0.1674 C.ar    1  UNL1       -0.0441
     15 C          -2.3264   -1.1787   -0.9298 C.3     1  UNL1       -0.0274
     16 C          -1.9513   -2.5265   -0.4033 C.3     1  UNL1       -0.0491
     17 C          -0.7415   -2.5182    0.5083 C.3     1  UNL1       -0.0528
     18 C           0.4848   -2.0284   -0.2397 C.3     1  UNL1       -0.0530
     19 C           1.6327   -1.9320    0.7271 C.3     1  UNL1       -0.0523
     20 C           2.8744   -1.4009    0.1414 C.3     1  UNL1       -0.0412
     21 C           2.9794    0.0414   -0.2002 C.3     1  UNL1        0.0443
     22 C           3.6453    0.8721    0.8677 C.3     1  UNL1        0.0018
     23 S           5.0256   -0.0122    1.6355 S.3     1  UNL1       -0.1775
     24 H           0.3971    1.6495    0.3287 H       1  UNL1        0.1495
     25 HA         -0.4260    0.9246   -2.3787 H       1  UNL1        0.0618
     26 HXT         1.6378    4.3149   -2.2364 H       1  UNL1        0.2951
     27 H          -1.6201    3.0490   -0.6499 H       1  UNL1        0.0337
     28 H          -2.4252    2.0049   -1.8018 H       1  UNL1        0.0337
     29 H          -2.2494    2.8904    1.3715 H       1  UNL1        0.0620
     30 H          -3.1949    1.8566    3.3762 H       1  UNL1        0.0618
     31 H          -3.7235   -0.5297    3.3562 H       1  UNL1        0.0618
     32 H          -3.3257   -1.8193    1.4026 H       1  UNL1        0.0620
     33 H          -1.7399   -0.8451   -1.7748 H       1  UNL1        0.0313
     34 H          -3.3761   -1.3198   -1.3583 H       1  UNL1        0.0313
     35 H          -2.7812   -3.0004    0.1011 H       1  UNL1        0.0268
     36 H          -1.6857   -3.2188   -1.2584 H       1  UNL1        0.0268
     37 H          -0.5491   -3.5747    0.7857 H       1  UNL1        0.0265
     38 H          -0.9240   -1.9723    1.4375 H       1  UNL1        0.0265
     39 H           0.6904   -2.9090   -0.9689 H       1  UNL1        0.0265
     40 H           0.2913   -1.2095   -0.8963 H       1  UNL1        0.0265
     41 H           1.2585   -1.3914    1.6166 H       1  UNL1        0.0265
     42 H           1.8407   -2.9705    1.0797 H       1  UNL1        0.0265
     43 H           3.0475   -1.9869   -0.8169 H       1  UNL1        0.0273
     44 H           3.7948   -1.6720    0.7442 H       1  UNL1        0.0273
     45 H           3.8179    0.0426   -1.0058 H       1  UNL1        0.0402
     46 H           2.9373    1.2351    1.6358 H       1  UNL1        0.0381
     47 H           4.0587    1.7740    0.3755 H       1  UNL1        0.0381
     48 H           6.1971    0.2689    0.9078 H       1  UNL1        0.1017
@<TRIPOS>BOND
     1     1     2    2
     2     2     3   am
     3     3     4    1
     4     4     5    1
     5     5     6    2
     6     5     7    1
     7     4     8    1
     8     8     9    1
     9     9    10   ar
    10    10    11   ar
    11    11    12   ar
    12    12    13   ar
    13    13    14   ar
    14    14    15    1
    15    15    16    1
    16    16    17    1
    17    17    18    1
    18    18    19    1
    19    19    20    1
    20    20    21    1
    21    21    22    1
    22    22    23    1
    23    21     2    1
    24    14     9   ar
    25     3    24    1
    26     4    25    1
    27     7    26    1
    28     8    27    1
    29     8    28    1
    30    10    29    1
    31    11    30    1
    32    12    31    1
    33    13    32    1
    34    15    33    1
    35    15    34    1
    36    16    35    1
    37    16    36    1
    38    17    37    1
    39    17    38    1
    40    18    39    1
    41    18    40    1
    42    19    41    1
    43    19    42    1
    44    20    43    1
    45    20    44    1
    46    21    45    1
    47    22    46    1
    48    22    47    1
    49    23    48    1
