
     RDKit          3D

 28 29  0  0  0  0  0  0  0  0999 V2000
    0.9105   -3.5235    0.5098 Cl  0  0  0  0  0  0  0  0  0  0  0  0
   -0.1359   -2.2088    1.2173 C   0  0  0  0  0  0  0  0  0  0  0  0
    0.7872   -1.7713    2.7056 Cl  0  0  0  0  0  0  0  0  0  0  0  0
   -0.2148   -1.0810    0.2472 C   0  0  0  0  0  0  0  0  0  0  0  0
    1.1190   -0.4623   -0.0434 C   0  0  0  0  0  0  0  0  0  0  0  0
    1.7052    0.3476    0.9115 C   0  0  0  0  0  0  0  0  0  0  0  0
    2.9187    0.9772    0.8002 C   0  0  0  0  0  0  0  0  0  0  0  0
    3.6212    0.7822   -0.3825 C   0  0  0  0  0  0  0  0  0  0  0  0
    5.1947    1.5471   -0.6304 Cl  0  0  0  0  0  0  0  0  0  0  0  0
    3.0984   -0.0122   -1.3805 C   0  0  0  0  0  0  0  0  0  0  0  0
    1.8749   -0.6154   -1.2035 C   0  0  0  0  0  0  0  0  0  0  0  0
   -1.3391   -0.1791    0.2637 C   0  0  0  0  0  0  0  0  0  0  0  0
   -1.8554    0.2890   -0.9629 C   0  0  0  0  0  0  0  0  0  0  0  0
   -2.9010    1.1469   -1.1438 C   0  0  0  0  0  0  0  0  0  0  0  0
   -3.5566    1.6373   -0.0358 C   0  0  0  0  0  0  0  0  0  0  0  0
   -3.1191    1.2325    1.2086 C   0  0  0  0  0  0  0  0  0  0  0  0
   -2.0570    0.3645    1.3055 C   0  0  0  0  0  0  0  0  0  0  0  0
   -1.6034   -0.0681    2.9083 Cl  0  0  0  0  0  0  0  0  0  0  0  0
   -1.0781   -2.7203    1.4367 H   0  0  0  0  0  0  0  0  0  0  0  0
   -0.3636   -1.6735   -0.7538 H   0  0  0  0  0  0  0  0  0  0  0  0
    1.2152    0.5518    1.8557 H   0  0  0  0  0  0  0  0  0  0  0  0
    3.3433    1.6056    1.5761 H   0  0  0  0  0  0  0  0  0  0  0  0
    3.6076   -0.2036   -2.3387 H   0  0  0  0  0  0  0  0  0  0  0  0
    1.4115   -1.2524   -1.9528 H   0  0  0  0  0  0  0  0  0  0  0  0
   -1.3674   -0.0725   -1.8841 H   0  0  0  0  0  0  0  0  0  0  0  0
   -3.2085    1.4360   -2.1377 H   0  0  0  0  0  0  0  0  0  0  0  0
   -4.3684    2.3032   -0.1756 H   0  0  0  0  0  0  0  0  0  0  0  0
   -3.6389    1.6228    2.0569 H   0  0  0  0  0  0  0  0  0  0  0  0
  1  2  1  0
  2  3  1  0
  2  4  1  0
  4  5  1  0
  5  6  2  0
  6  7  1  0
  7  8  2  0
  8  9  1  0
  8 10  1  0
 10 11  2  0
  4 12  1  0
 12 13  2  0
 13 14  1  0
 14 15  2  0
 15 16  1  0
 16 17  2  0
 17 18  1  0
 11  5  1  0
 17 12  1  0
  2 19  1  0
  4 20  1  0
  6 21  1  0
  7 22  1  0
 10 23  1  0
 11 24  1  0
 13 25  1  0
 14 26  1  0
 15 27  1  0
 16 28  1  0
M  END
$$$$
