@<TRIPOS>MOLECULE
*****
 28 29 0 0 0
SMALL
GASTEIGER

@<TRIPOS>ATOM
      1 CL          0.9105   -3.5235    0.5098 Cl      1  UNL1       -0.1036
      2 C          -0.1359   -2.2088    1.2173 C.3     1  UNL1        0.1186
      3 CL          0.7872   -1.7713    2.7056 Cl      1  UNL1       -0.1036
      4 C          -0.2148   -1.0810    0.2472 C.3     1  UNL1        0.0405
      5 C           1.1190   -0.4623   -0.0434 C.ar    1  UNL1       -0.0373
      6 C           1.7052    0.3476    0.9115 C.ar    1  UNL1       -0.0565
      7 C           2.9187    0.9772    0.8002 C.ar    1  UNL1       -0.0431
      8 C           3.6212    0.7822   -0.3825 C.ar    1  UNL1        0.0410
      9 CL          5.1947    1.5471   -0.6304 Cl      1  UNL1       -0.0835
     10 C           3.0984   -0.0122   -1.3805 C.ar    1  UNL1       -0.0431
     11 C           1.8749   -0.6154   -1.2035 C.ar    1  UNL1       -0.0565
     12 C          -1.3391   -0.1791    0.2637 C.ar    1  UNL1       -0.0191
     13 C          -1.8554    0.2890   -0.9629 C.ar    1  UNL1       -0.0565
     14 C          -2.9010    1.1469   -1.1438 C.ar    1  UNL1       -0.0614
     15 C          -3.5566    1.6373   -0.0358 C.ar    1  UNL1       -0.0604
     16 C          -3.1191    1.2325    1.2086 C.ar    1  UNL1       -0.0431
     17 C          -2.0570    0.3645    1.3055 C.ar    1  UNL1        0.0448
     18 CL         -1.6034   -0.0681    2.9083 Cl      1  UNL1       -0.0832
     19 H          -1.0781   -2.7203    1.4367 H       1  UNL1        0.0643
     20 H          -0.3636   -1.6735   -0.7538 H       1  UNL1        0.0424
     21 H           1.2152    0.5518    1.8557 H       1  UNL1        0.0621
     22 H           3.3433    1.6056    1.5761 H       1  UNL1        0.0632
     23 H           3.6076   -0.2036   -2.3387 H       1  UNL1        0.0632
     24 H           1.4115   -1.2524   -1.9528 H       1  UNL1        0.0621
     25 H          -1.3674   -0.0725   -1.8841 H       1  UNL1        0.0621
     26 H          -3.2085    1.4360   -2.1377 H       1  UNL1        0.0618
     27 H          -4.3684    2.3032   -0.1756 H       1  UNL1        0.0618
     28 H          -3.6389    1.6228    2.0569 H       1  UNL1        0.0632
@<TRIPOS>BOND
     1     1     2    1
     2     2     3    1
     3     2     4    1
     4     4     5    1
     5     5     6   ar
     6     6     7   ar
     7     7     8   ar
     8     8     9    1
     9     8    10   ar
    10    10    11   ar
    11     4    12    1
    12    12    13   ar
    13    13    14   ar
    14    14    15   ar
    15    15    16   ar
    16    16    17   ar
    17    17    18    1
    18    11     5   ar
    19    17    12   ar
    20     2    19    1
    21     4    20    1
    22     6    21    1
    23     7    22    1
    24    10    23    1
    25    11    24    1
    26    13    25    1
    27    14    26    1
    28    15    27    1
    29    16    28    1
