@<TRIPOS>MOLECULE
*****
 69 71 0 0 0
SMALL
GASTEIGER

@<TRIPOS>ATOM
      1 C           8.0416    0.8220    1.0059 C.3     1  UNL1       -0.0130
      2 N           7.2175    0.7380   -0.2098 N.3     1  UNL1       -0.3069
      3 C           7.3571    2.0033   -0.8820 C.3     1  UNL1       -0.0130
      4 C           5.8674    0.4589    0.1977 C.3     1  UNL1        0.0141
      5 C           4.9837    0.3643   -1.0402 C.3     1  UNL1        0.0275
      6 N           3.6069    0.0813   -0.6531 N.am    1  UNL1       -0.2987
      7 C           2.7987    1.2420   -0.4191 C.3     1  UNL1        0.0305
      8 C           1.3915    1.1146   -0.8945 C.3     1  UNL1        0.0308
      9 N           0.6699   -0.0188   -0.2304 N.am    1  UNL1       -0.2955
     10 C          -0.6401   -0.0947   -0.6818 C.2     1  UNL1        0.2490
     11 O          -1.0113    0.8211   -1.5338 O.2     1  UNL1       -0.2699
     12 C          -1.6971   -1.0719   -0.3347 C.ar    1  UNL1        0.0657
     13 C          -1.5135   -2.2569    0.2602 C.ar    1  UNL1       -0.0370
     14 C          -2.5567   -3.0817    0.4911 C.ar    1  UNL1       -0.0023
     15 C          -2.5878   -4.4367    1.1350 C.3     1  UNL1       -0.0064
     16 C          -4.0274   -4.8934    1.1288 C.3     1  UNL1       -0.0556
     17 C          -1.7793   -5.4210    0.3236 C.3     1  UNL1       -0.0556
     18 C          -2.0905   -4.3628    2.5467 C.3     1  UNL1       -0.0556
     19 S          -3.9014   -2.2261   -0.1301 S.2     1  UNL1       -0.0771
     20 C          -2.9990   -0.7626   -0.6883 C.ar    1  UNL1        0.0853
     21 N          -3.5863    0.3763   -1.3216 N.am    1  UNL1       -0.2629
     22 C          -4.0441    1.4639   -0.5177 C.2     1  UNL1        0.3085
     23 O          -3.9132    1.3773    0.7106 O.2     1  UNL1       -0.2521
     24 N          -4.6363    2.6270   -1.0620 N.am    1  UNL1       -0.2678
     25 C          -5.0987    3.7226   -0.2734 C.ar    1  UNL1        0.0546
     26 C          -4.2446    4.7591    0.0258 C.ar    1  UNL1       -0.0389
     27 C          -4.6502    5.8379    0.7850 C.ar    1  UNL1       -0.0585
     28 C          -5.9400    5.8952    1.2641 C.ar    1  UNL1       -0.0419
     29 C          -6.7905    4.8554    0.9619 C.ar    1  UNL1        0.0610
     30 CL         -8.4541    4.8925    1.5587 Cl      1  UNL1       -0.0820
     31 C          -6.3844    3.7785    0.2036 C.ar    1  UNL1        0.0804
     32 CL         -7.5321    2.4732   -0.1482 Cl      1  UNL1       -0.0801
     33 C           1.2876   -0.8379    0.7470 C.3     1  UNL1        0.0233
     34 C           2.1491   -1.9422    0.1534 C.3     1  UNL1        0.0399
     35 C           3.2651   -1.2825   -0.5632 C.2     1  UNL1        0.2171
     36 O           4.0133   -2.0717   -1.1811 O.2     1  UNL1       -0.2755
     37 H           7.9233   -0.1461    1.5344 H       1  UNL1        0.0391
     38 H           7.6636    1.6801    1.5790 H       1  UNL1        0.0391
     39 H           9.0986    1.0234    0.7509 H       1  UNL1        0.0391
     40 H           7.6716    1.8270   -1.9356 H       1  UNL1        0.0391
     41 H           8.0905    2.6831   -0.3914 H       1  UNL1        0.0391
     42 H           6.4061    2.5769   -0.9289 H       1  UNL1        0.0391
     43 H           5.5227    1.2463    0.8860 H       1  UNL1        0.0442
     44 H           5.8532   -0.5343    0.6802 H       1  UNL1        0.0442
     45 H           5.0004    1.2824   -1.6428 H       1  UNL1        0.0477
     46 H           5.3725   -0.4613   -1.6569 H       1  UNL1        0.0477
     47 H           3.2216    2.1428   -0.9390 H       1  UNL1        0.0480
     48 H           2.8882    1.5256    0.6702 H       1  UNL1        0.0480
     49 H           1.3977    0.9852   -1.9749 H       1  UNL1        0.0480
     50 H           0.8295    2.0093   -0.5531 H       1  UNL1        0.0480
     51 H          -0.5114   -2.6312    0.5660 H       1  UNL1        0.0634
     52 H          -4.2276   -5.6162    1.9569 H       1  UNL1        0.0238
     53 H          -4.3224   -5.2784    0.1386 H       1  UNL1        0.0238
     54 H          -4.7170   -4.0261    1.3476 H       1  UNL1        0.0238
     55 H          -2.2334   -6.4255    0.4167 H       1  UNL1        0.0238
     56 H          -0.7276   -5.4266    0.6308 H       1  UNL1        0.0238
     57 H          -1.8824   -5.1170   -0.7440 H       1  UNL1        0.0238
     58 H          -2.5238   -3.5205    3.0889 H       1  UNL1        0.0238
     59 H          -0.9883   -4.2717    2.6161 H       1  UNL1        0.0238
     60 H          -2.3805   -5.2897    3.0679 H       1  UNL1        0.0238
     61 H          -3.7012    0.4590   -2.3556 H       1  UNL1        0.1569
     62 H          -4.7370    2.6777   -2.1048 H       1  UNL1        0.1564
     63 H          -3.2076    4.7273   -0.3514 H       1  UNL1        0.0637
     64 H          -3.9672    6.6487    1.0137 H       1  UNL1        0.0619
     65 H          -6.2795    6.7482    1.8710 H       1  UNL1        0.0633
     66 H           0.6722   -1.1462    1.6070 H       1  UNL1        0.0469
     67 H           2.0857   -0.1886    1.2877 H       1  UNL1        0.0469
     68 H           1.5874   -2.5746   -0.5713 H       1  UNL1        0.0374
     69 H           2.5512   -2.5325    0.9839 H       1  UNL1        0.0374
@<TRIPOS>BOND
     1     1     2    1
     2     2     3    1
     3     2     4    1
     4     4     5    1
     5     5     6    1
     6     6     7    1
     7     7     8    1
     8     8     9    1
     9     9    10   am
    10    10    11    2
    11    10    12    1
    12    12    13   ar
    13    13    14   ar
    14    14    15    1
    15    15    16    1
    16    15    17    1
    17    15    18    1
    18    14    19   ar
    19    19    20   ar
    20    20    21    1
    21    21    22   am
    22    22    23    2
    23    22    24   am
    24    24    25    1
    25    25    26   ar
    26    26    27   ar
    27    27    28   ar
    28    28    29   ar
    29    29    30    1
    30    29    31   ar
    31    31    32    1
    32     9    33    1
    33    33    34    1
    34    34    35    1
    35    35    36    2
    36    35     6   am
    37    20    12   ar
    38    31    25   ar
    39     1    37    1
    40     1    38    1
    41     1    39    1
    42     3    40    1
    43     3    41    1
    44     3    42    1
    45     4    43    1
    46     4    44    1
    47     5    45    1
    48     5    46    1
    49     7    47    1
    50     7    48    1
    51     8    49    1
    52     8    50    1
    53    13    51    1
    54    16    52    1
    55    16    53    1
    56    16    54    1
    57    17    55    1
    58    17    56    1
    59    17    57    1
    60    18    58    1
    61    18    59    1
    62    18    60    1
    63    21    61    1
    64    24    62    1
    65    26    63    1
    66    27    64    1
    67    28    65    1
    68    33    66    1
    69    33    67    1
    70    34    68    1
    71    34    69    1
