@<TRIPOS>MOLECULE
*****
 51 53 0 0 0
SMALL
GASTEIGER

@<TRIPOS>ATOM
      1 C          -2.6315   -1.8434    0.1511 C.3     1  UNL1        0.0865
      2 N          -2.0169   -3.1143   -0.2143 N.3     1  UNL1       -0.3197
      3 C          -3.1993   -1.2802   -1.1303 C.3     1  UNL1       -0.0039
      4 C          -3.8675    0.0101   -0.9788 C.ar    1  UNL1       -0.0454
      5 C          -5.2317    0.0441   -0.6716 C.ar    1  UNL1       -0.0585
      6 C          -5.9374    1.2049   -0.5180 C.ar    1  UNL1       -0.0615
      7 C          -5.3297    2.4332   -0.6604 C.ar    1  UNL1       -0.0617
      8 C          -3.9977    2.4426   -0.9606 C.ar    1  UNL1       -0.0615
      9 C          -3.3046    1.2733   -1.1115 C.ar    1  UNL1       -0.0585
     10 C          -1.6991   -0.9470    0.8317 C.2     1  UNL1        0.2333
     11 O          -2.3251    0.1128    1.1624 O.2     1  UNL1       -0.2739
     12 N          -0.3193   -1.1115    1.1323 N.am    1  UNL1       -0.2886
     13 C           0.5649   -2.2190    0.8496 C.3     1  UNL1        0.0156
     14 C           1.7119   -2.1689    1.7906 C.3     1  UNL1       -0.0350
     15 C           1.5324   -0.9053    2.5658 C.3     1  UNL1       -0.0243
     16 C           0.4731   -0.1131    1.8227 C.3     1  UNL1        0.1022
     17 C           1.2028    0.7922    0.8984 C.2     1  UNL1        0.2338
     18 O           1.8262    1.5873    1.6331 O.2     1  UNL1       -0.2738
     19 N           1.2328    0.8101   -0.4997 N.am    1  UNL1       -0.3097
     20 C           1.9748    1.7307   -1.3007 C.3     1  UNL1        0.0369
     21 C           3.4318    1.4487   -1.3695 C.ar    1  UNL1       -0.0303
     22 C           3.9591    0.6177   -2.3444 C.ar    1  UNL1       -0.0571
     23 C           5.3241    0.3416   -2.4249 C.ar    1  UNL1       -0.0615
     24 C           6.2097    0.9060   -1.5082 C.ar    1  UNL1       -0.0617
     25 C           5.6689    1.7300   -0.5453 C.ar    1  UNL1       -0.0615
     26 C           4.3181    2.0126   -0.4536 C.ar    1  UNL1       -0.0571
     27 H          -3.5111   -2.0377    0.8163 H       1  UNL1        0.0558
     28 H          -2.6977   -3.8652    0.0286 H       1  UNL1        0.1189
     29 H          -1.8515   -3.1977   -1.2443 H       1  UNL1        0.1189
     30 H          -3.9770   -2.0136   -1.4930 H       1  UNL1        0.0333
     31 H          -2.3991   -1.2072   -1.8965 H       1  UNL1        0.0333
     32 H          -5.7458   -0.9051   -0.5506 H       1  UNL1        0.0620
     33 H          -7.0040    1.1761   -0.2776 H       1  UNL1        0.0618
     34 H          -5.9222    3.3150   -0.5311 H       1  UNL1        0.0618
     35 H          -3.4921    3.3880   -1.0791 H       1  UNL1        0.0618
     36 H          -2.2331    1.2545   -1.3521 H       1  UNL1        0.0620
     37 H           0.8771   -2.2354   -0.2217 H       1  UNL1        0.0465
     38 H          -0.0364   -3.1484    1.0804 H       1  UNL1        0.0465
     39 H           2.7024   -2.2077    1.2820 H       1  UNL1        0.0281
     40 H           1.6471   -3.0175    2.5190 H       1  UNL1        0.0281
     41 H           1.1434   -1.1080    3.5966 H       1  UNL1        0.0288
     42 H           2.4899   -0.3702    2.6104 H       1  UNL1        0.0288
     43 H          -0.1933    0.4333    2.5048 H       1  UNL1        0.0597
     44 H           0.6418    0.0627   -0.9372 H       1  UNL1        0.1491
     45 H           1.7801    2.7513   -0.8584 H       1  UNL1        0.0512
     46 H           1.5066    1.7591   -2.3063 H       1  UNL1        0.0512
     47 H           3.3291    0.1604   -3.0699 H       1  UNL1        0.0621
     48 H           5.7443   -0.3148   -3.1946 H       1  UNL1        0.0618
     49 H           7.2684    0.6960   -1.5643 H       1  UNL1        0.0618
     50 H           6.3802    2.1663    0.1680 H       1  UNL1        0.0618
     51 H           3.9823    2.6707    0.3339 H       1  UNL1        0.0621
@<TRIPOS>BOND
     1     1     2    1
     2     1     3    1
     3     3     4    1
     4     4     5   ar
     5     5     6   ar
     6     6     7   ar
     7     7     8   ar
     8     8     9   ar
     9     1    10    1
    10    10    11    2
    11    10    12   am
    12    12    13    1
    13    13    14    1
    14    14    15    1
    15    15    16    1
    16    16    17    1
    17    17    18    2
    18    17    19   am
    19    19    20    1
    20    20    21    1
    21    21    22   ar
    22    22    23   ar
    23    23    24   ar
    24    24    25   ar
    25    25    26   ar
    26     9     4   ar
    27    16    12    1
    28    26    21   ar
    29     1    27    1
    30     2    28    1
    31     2    29    1
    32     3    30    1
    33     3    31    1
    34     5    32    1
    35     6    33    1
    36     7    34    1
    37     8    35    1
    38     9    36    1
    39    13    37    1
    40    13    38    1
    41    14    39    1
    42    14    40    1
    43    15    41    1
    44    15    42    1
    45    16    43    1
    46    19    44    1
    47    20    45    1
    48    20    46    1
    49    22    47    1
    50    23    48    1
    51    24    49    1
    52    25    50    1
    53    26    51    1
