
     RDKit          3D

 51 53  0  0  0  0  0  0  0  0999 V2000
   -2.6315   -1.8434    0.1511 C   0  0  2  0  0  0  0  0  0  0  0  0
   -2.0169   -3.1143   -0.2143 N   0  0  0  0  0  0  0  0  0  0  0  0
   -3.1993   -1.2802   -1.1303 C   0  0  0  0  0  0  0  0  0  0  0  0
   -3.8675    0.0101   -0.9788 C   0  0  0  0  0  0  0  0  0  0  0  0
   -5.2317    0.0441   -0.6716 C   0  0  0  0  0  0  0  0  0  0  0  0
   -5.9374    1.2049   -0.5180 C   0  0  0  0  0  0  0  0  0  0  0  0
   -5.3297    2.4332   -0.6604 C   0  0  0  0  0  0  0  0  0  0  0  0
   -3.9977    2.4426   -0.9606 C   0  0  0  0  0  0  0  0  0  0  0  0
   -3.3046    1.2733   -1.1115 C   0  0  0  0  0  0  0  0  0  0  0  0
   -1.6991   -0.9470    0.8317 C   0  0  0  0  0  0  0  0  0  0  0  0
   -2.3251    0.1128    1.1624 O   0  0  0  0  0  0  0  0  0  0  0  0
   -0.3193   -1.1115    1.1323 N   0  0  0  0  0  0  0  0  0  0  0  0
    0.5649   -2.2190    0.8496 C   0  0  0  0  0  0  0  0  0  0  0  0
    1.7119   -2.1689    1.7906 C   0  0  0  0  0  0  0  0  0  0  0  0
    1.5324   -0.9053    2.5658 C   0  0  0  0  0  0  0  0  0  0  0  0
    0.4731   -0.1131    1.8227 C   0  0  1  0  0  0  0  0  0  0  0  0
    1.2028    0.7922    0.8984 C   0  0  0  0  0  0  0  0  0  0  0  0
    1.8262    1.5873    1.6331 O   0  0  0  0  0  0  0  0  0  0  0  0
    1.2328    0.8101   -0.4997 N   0  0  0  0  0  0  0  0  0  0  0  0
    1.9748    1.7307   -1.3007 C   0  0  0  0  0  0  0  0  0  0  0  0
    3.4318    1.4487   -1.3695 C   0  0  0  0  0  0  0  0  0  0  0  0
    3.9591    0.6177   -2.3444 C   0  0  0  0  0  0  0  0  0  0  0  0
    5.3241    0.3416   -2.4249 C   0  0  0  0  0  0  0  0  0  0  0  0
    6.2097    0.9060   -1.5082 C   0  0  0  0  0  0  0  0  0  0  0  0
    5.6689    1.7300   -0.5453 C   0  0  0  0  0  0  0  0  0  0  0  0
    4.3181    2.0126   -0.4536 C   0  0  0  0  0  0  0  0  0  0  0  0
   -3.5111   -2.0377    0.8163 H   0  0  0  0  0  0  0  0  0  0  0  0
   -2.6977   -3.8652    0.0286 H   0  0  0  0  0  0  0  0  0  0  0  0
   -1.8515   -3.1977   -1.2443 H   0  0  0  0  0  0  0  0  0  0  0  0
   -3.9770   -2.0136   -1.4930 H   0  0  0  0  0  0  0  0  0  0  0  0
   -2.3991   -1.2072   -1.8965 H   0  0  0  0  0  0  0  0  0  0  0  0
   -5.7458   -0.9051   -0.5506 H   0  0  0  0  0  0  0  0  0  0  0  0
   -7.0040    1.1761   -0.2776 H   0  0  0  0  0  0  0  0  0  0  0  0
   -5.9222    3.3150   -0.5311 H   0  0  0  0  0  0  0  0  0  0  0  0
   -3.4921    3.3880   -1.0791 H   0  0  0  0  0  0  0  0  0  0  0  0
   -2.2331    1.2545   -1.3521 H   0  0  0  0  0  0  0  0  0  0  0  0
    0.8771   -2.2354   -0.2217 H   0  0  0  0  0  0  0  0  0  0  0  0
   -0.0364   -3.1484    1.0804 H   0  0  0  0  0  0  0  0  0  0  0  0
    2.7024   -2.2077    1.2820 H   0  0  0  0  0  0  0  0  0  0  0  0
    1.6471   -3.0175    2.5190 H   0  0  0  0  0  0  0  0  0  0  0  0
    1.1434   -1.1080    3.5966 H   0  0  0  0  0  0  0  0  0  0  0  0
    2.4899   -0.3702    2.6104 H   0  0  0  0  0  0  0  0  0  0  0  0
   -0.1933    0.4333    2.5048 H   0  0  0  0  0  0  0  0  0  0  0  0
    0.6418    0.0627   -0.9372 H   0  0  0  0  0  0  0  0  0  0  0  0
    1.7801    2.7513   -0.8584 H   0  0  0  0  0  0  0  0  0  0  0  0
    1.5066    1.7591   -2.3063 H   0  0  0  0  0  0  0  0  0  0  0  0
    3.3291    0.1604   -3.0699 H   0  0  0  0  0  0  0  0  0  0  0  0
    5.7443   -0.3148   -3.1946 H   0  0  0  0  0  0  0  0  0  0  0  0
    7.2684    0.6960   -1.5643 H   0  0  0  0  0  0  0  0  0  0  0  0
    6.3802    2.1663    0.1680 H   0  0  0  0  0  0  0  0  0  0  0  0
    3.9823    2.6707    0.3339 H   0  0  0  0  0  0  0  0  0  0  0  0
  1  2  1  0
  1  3  1  0
  3  4  1  0
  4  5  2  0
  5  6  1  0
  6  7  2  0
  7  8  1  0
  8  9  2  0
  1 10  1  0
 10 11  2  0
 10 12  1  0
 12 13  1  0
 13 14  1  0
 14 15  1  0
 15 16  1  0
 16 17  1  0
 17 18  2  0
 17 19  1  0
 19 20  1  0
 20 21  1  0
 21 22  2  0
 22 23  1  0
 23 24  2  0
 24 25  1  0
 25 26  2  0
  9  4  1  0
 16 12  1  0
 26 21  1  0
  1 27  1  1
  2 28  1  0
  2 29  1  0
  3 30  1  0
  3 31  1  0
  5 32  1  0
  6 33  1  0
  7 34  1  0
  8 35  1  0
  9 36  1  0
 13 37  1  0
 13 38  1  0
 14 39  1  0
 14 40  1  0
 15 41  1  0
 15 42  1  0
 16 43  1  1
 19 44  1  0
 20 45  1  0
 20 46  1  0
 22 47  1  0
 23 48  1  0
 24 49  1  0
 25 50  1  0
 26 51  1  0
M  END
$$$$
