@<TRIPOS>MOLECULE
*****
 61 63 0 0 0
SMALL
GASTEIGER

@<TRIPOS>ATOM
      1 C          -5.7501    4.8908   -0.1495 C.3     1  UNL1        0.0788
      2 O          -5.3171    3.5874    0.1174 O.3     1  UNL1       -0.4944
      3 C          -5.6581    2.5949   -0.8644 C.ar    1  UNL1        0.1323
      4 C          -5.0437    1.7565   -0.0964 C.ar    1  UNL1        0.0796
      5 C          -5.2936    0.5599   -0.9910 C.ar    1  UNL1       -0.0277
      6 C          -5.9824    0.4509   -2.2500 C.ar    1  UNL1        0.0419
      7 CL         -6.3917   -0.7901   -3.4437 Cl      1  UNL1       -0.0835
      8 C          -6.5335    1.6294   -2.7777 C.ar    1  UNL1       -0.0399
      9 C          -6.3418    2.7580   -2.0121 C.ar    1  UNL1       -0.0178
     10 C          -4.3642    0.8291    0.7528 C.2     1  UNL1        0.2477
     11 O          -4.1622    1.8837    1.4474 O.2     1  UNL1       -0.2701
     12 N          -3.8590   -0.3579    1.2218 N.am    1  UNL1       -0.3109
     13 C          -3.1625   -0.1616    2.4926 C.3     1  UNL1        0.0159
     14 C          -2.6720   -1.5109    2.9566 C.3     1  UNL1       -0.0120
     15 C          -1.7207   -2.1300    2.0222 C.ar    1  UNL1       -0.0458
     16 C          -1.9776   -2.9098    0.9340 C.ar    1  UNL1       -0.0567
     17 C          -0.9639   -3.4350    0.1537 C.ar    1  UNL1       -0.0348
     18 C           0.3602   -3.1998    0.4339 C.ar    1  UNL1        0.1086
     19 C           0.6528   -2.4162    1.5271 C.ar    1  UNL1       -0.0348
     20 C          -0.3769   -1.8848    2.3145 C.ar    1  UNL1       -0.0567
     21 S           1.6243   -3.8564   -0.5921 S.O2    1  UNL1        0.0756
     22 O           1.0426   -4.8688   -1.5616 O.2     1  UNL1       -0.1499
     23 O           2.7564   -4.3805    0.2011 O.2     1  UNL1       -0.1499
     24 N           2.1634   -2.5152   -1.5804 N.am    1  UNL1       -0.1693
     25 C           3.2665   -1.7913   -1.0549 C.2     1  UNL1        0.3191
     26 O           3.7262   -2.2108    0.0394 O.2     1  UNL1       -0.2512
     27 N           3.9447   -0.6573   -1.5668 N.am    1  UNL1       -0.2953
     28 C           5.0705   -0.0622   -0.8762 C.3     1  UNL1        0.0246
     29 C           4.7267    1.2597   -0.2588 C.3     1  UNL1       -0.0345
     30 C           5.9391    1.8760    0.3543 C.3     1  UNL1       -0.0514
     31 C           7.1858    1.0755    0.3978 C.3     1  UNL1       -0.0529
     32 C           7.4734    0.2005   -0.7694 C.3     1  UNL1       -0.0514
     33 C           6.2775    0.1146   -1.7252 C.3     1  UNL1       -0.0345
     34 H          -6.8403    4.8764   -0.4548 H       1  UNL1        0.0660
     35 H          -5.7035    5.5062    0.8006 H       1  UNL1        0.0660
     36 H          -5.1590    5.3977   -0.9278 H       1  UNL1        0.0660
     37 H          -5.1065   -0.5704   -1.0863 H       1  UNL1        0.0641
     38 H          -7.0893    1.9752   -3.6316 H       1  UNL1        0.0633
     39 H          -6.6260    3.7936   -2.1309 H       1  UNL1        0.0655
     40 H          -4.1580   -1.0145    0.4831 H       1  UNL1        0.1490
     41 H          -2.3037    0.5266    2.3861 H       1  UNL1        0.0465
     42 H          -3.8471    0.2271    3.2726 H       1  UNL1        0.0465
     43 H          -2.2441   -1.4330    3.9883 H       1  UNL1        0.0328
     44 H          -3.5553   -2.2188    3.0171 H       1  UNL1        0.0328
     45 H          -3.0205   -3.0905    0.7263 H       1  UNL1        0.0621
     46 H          -1.2895   -4.0431   -0.6826 H       1  UNL1        0.0637
     47 H           1.6598   -2.1916    1.8084 H       1  UNL1        0.0637
     48 H          -0.0765   -1.2718    3.1631 H       1  UNL1        0.0621
     49 H           1.8162   -2.1494   -2.4934 H       1  UNL1        0.1781
     50 H           3.5372   -0.3105   -2.4865 H       1  UNL1        0.1506
     51 H           5.3134   -0.7396   -0.0330 H       1  UNL1        0.0499
     52 H           3.9017    1.0618    0.4853 H       1  UNL1        0.0283
     53 H           4.2661    1.9381   -1.0414 H       1  UNL1        0.0283
     54 H           5.6613    2.0758    1.4376 H       1  UNL1        0.0266
     55 H           6.1076    2.9168   -0.0464 H       1  UNL1        0.0266
     56 H           8.0292    1.8403    0.4644 H       1  UNL1        0.0265
     57 H           7.3177    0.5177    1.3766 H       1  UNL1        0.0265
     58 H           8.3819    0.5162   -1.2892 H       1  UNL1        0.0266
     59 H           7.6842   -0.8387   -0.3793 H       1  UNL1        0.0266
     60 H           6.2982    1.1134   -2.2472 H       1  UNL1        0.0283
     61 H           6.4058   -0.7393   -2.3937 H       1  UNL1        0.0283
@<TRIPOS>BOND
     1     1     2    1
     2     2     3    1
     3     3     4   ar
     4     4     5   ar
     5     5     6   ar
     6     6     7    1
     7     6     8   ar
     8     8     9   ar
     9     4    10    1
    10    10    11    2
    11    10    12   am
    12    12    13    1
    13    13    14    1
    14    14    15    1
    15    15    16   ar
    16    16    17   ar
    17    17    18   ar
    18    18    19   ar
    19    19    20   ar
    20    18    21    1
    21    21    22    2
    22    21    23    2
    23    21    24    1
    24    24    25   am
    25    25    26    2
    26    25    27   am
    27    27    28    1
    28    28    29    1
    29    29    30    1
    30    30    31    1
    31    31    32    1
    32    32    33    1
    33     9     3   ar
    34    20    15   ar
    35    33    28    1
    36     1    34    1
    37     1    35    1
    38     1    36    1
    39     5    37    1
    40     8    38    1
    41     9    39    1
    42    12    40    1
    43    13    41    1
    44    13    42    1
    45    14    43    1
    46    14    44    1
    47    16    45    1
    48    17    46    1
    49    19    47    1
    50    20    48    1
    51    24    49    1
    52    27    50    1
    53    28    51    1
    54    29    52    1
    55    29    53    1
    56    30    54    1
    57    30    55    1
    58    31    56    1
    59    31    57    1
    60    32    58    1
    61    32    59    1
    62    33    60    1
    63    33    61    1
