
     RDKit          3D

 55 59  0  0  0  0  0  0  0  0999 V2000
   -2.4251   -5.3724   -0.9187 C   0  0  0  0  0  0  0  0  0  0  0  0
   -2.0916   -4.5004    0.1116 O   0  0  0  0  0  0  0  0  0  0  0  0
   -1.8754   -3.1405    0.0019 C   0  0  0  0  0  0  0  0  0  0  0  0
   -1.9817   -2.5169   -1.2103 C   0  0  0  0  0  0  0  0  0  0  0  0
   -1.7623   -1.1673   -1.2978 C   0  0  0  0  0  0  0  0  0  0  0  0
   -1.4261   -0.3720   -0.1851 C   0  0  0  0  0  0  0  0  0  0  0  0
   -1.2360    1.0124   -0.3089 N   0  0  0  0  0  0  0  0  0  0  0  0
   -0.0504    1.7435   -0.1478 C   0  0  0  0  0  0  0  0  0  0  0  0
    1.2559    1.3240   -0.0710 C   0  0  0  0  0  0  0  0  0  0  0  0
    1.7502   -0.0424   -0.2055 C   0  0  0  0  0  0  0  0  0  0  0  0
    2.0126   -0.5258   -1.4911 C   0  0  0  0  0  0  0  0  0  0  0  0
    2.5013   -1.7909   -1.7076 C   0  0  0  0  0  0  0  0  0  0  0  0
    2.7306   -2.5902   -0.5871 C   0  0  0  0  0  0  0  0  0  0  0  0
    3.2039   -3.8322   -0.7503 N   0  0  0  0  0  0  0  0  0  0  0  0
    3.4383   -4.6387    0.2926 C   0  0  0  0  0  0  0  0  0  0  0  0
    3.1850   -4.1775    1.5786 C   0  0  0  0  0  0  0  0  0  0  0  0
    2.7095   -2.9319    1.7544 N   0  0  0  0  0  0  0  0  0  0  0  0
    2.4861   -2.1528    0.6950 C   0  0  0  0  0  0  0  0  0  0  0  0
    1.9878   -0.8512    0.8506 C   0  0  0  0  0  0  0  0  0  0  0  0
    2.0745    2.4441    0.1251 C   0  0  0  0  0  0  0  0  0  0  0  0
    3.5397    2.3596    0.2544 C   0  0  0  0  0  0  0  0  0  0  0  0
    1.2396    3.4890    0.1571 N   0  0  0  0  0  0  0  0  0  0  0  0
   -0.0068    3.0975   -0.0019 N   0  0  0  0  0  0  0  0  0  0  0  0
   -1.1062    4.0029   -0.0368 C   0  0  0  0  0  0  0  0  0  0  0  0
   -2.0191    4.1335    0.9820 C   0  0  0  0  0  0  0  0  0  0  0  0
   -3.0821    4.9988    0.9445 C   0  0  0  0  0  0  0  0  0  0  0  0
   -3.2190    5.7779   -0.2046 C   0  0  0  0  0  0  0  0  0  0  0  0
   -2.3065    5.6520   -1.2301 C   0  0  0  0  0  0  0  0  0  0  0  0
   -1.2411    4.7832   -1.1904 C   0  0  0  0  0  0  0  0  0  0  0  0
   -0.0959    4.6440   -2.5132 Cl  0  0  0  0  0  0  0  0  0  0  0  0
   -1.3251   -1.0044    1.0155 C   0  0  0  0  0  0  0  0  0  0  0  0
   -1.0472   -0.3151    2.2393 C   0  0  0  0  0  0  0  0  0  0  0  0
   -0.9310   -0.9498    3.3195 O   0  0  0  0  0  0  0  0  0  0  0  0
   -0.8990    1.0447    2.2957 O   0  0  0  0  0  0  0  0  0  0  0  0
   -1.5507   -2.3869    1.0979 C   0  0  0  0  0  0  0  0  0  0  0  0
   -1.9536   -5.1769   -1.8841 H   0  0  0  0  0  0  0  0  0  0  0  0
   -3.5423   -5.3929   -1.0475 H   0  0  0  0  0  0  0  0  0  0  0  0
   -2.1467   -6.4292   -0.6373 H   0  0  0  0  0  0  0  0  0  0  0  0
   -2.2359   -3.0983   -2.0727 H   0  0  0  0  0  0  0  0  0  0  0  0
   -1.8407   -0.6542   -2.2393 H   0  0  0  0  0  0  0  0  0  0  0  0
   -2.1145    1.5731   -0.5624 H   0  0  0  0  0  0  0  0  0  0  0  0
    1.8184    0.1305   -2.3184 H   0  0  0  0  0  0  0  0  0  0  0  0
    2.7099   -2.1842   -2.6844 H   0  0  0  0  0  0  0  0  0  0  0  0
    3.8257   -5.6480    0.1150 H   0  0  0  0  0  0  0  0  0  0  0  0
    3.3764   -4.8317    2.4128 H   0  0  0  0  0  0  0  0  0  0  0  0
    1.8005   -0.5074    1.8463 H   0  0  0  0  0  0  0  0  0  0  0  0
    3.9761    2.4225   -0.7554 H   0  0  0  0  0  0  0  0  0  0  0  0
    3.7979    1.3666    0.6919 H   0  0  0  0  0  0  0  0  0  0  0  0
    3.9676    3.1844    0.8617 H   0  0  0  0  0  0  0  0  0  0  0  0
   -1.9294    3.5311    1.8941 H   0  0  0  0  0  0  0  0  0  0  0  0
   -3.8136    5.1200    1.7293 H   0  0  0  0  0  0  0  0  0  0  0  0
   -4.0328    6.4601   -0.2653 H   0  0  0  0  0  0  0  0  0  0  0  0
   -2.3872    6.2495   -2.1412 H   0  0  0  0  0  0  0  0  0  0  0  0
   -0.2438    1.5227    2.9145 H   0  0  0  0  0  0  0  0  0  0  0  0
   -1.4686   -2.8856    2.0513 H   0  0  0  0  0  0  0  0  0  0  0  0
  1  2  1  0
  2  3  1  0
  3  4  2  0
  4  5  1  0
  5  6  2  0
  6  7  1  0
  7  8  1  0
  8  9  2  0
  9 10  1  0
 10 11  2  0
 11 12  1  0
 12 13  2  0
 13 14  1  0
 14 15  2  0
 15 16  1  0
 16 17  2  0
 17 18  1  0
 18 19  2  0
  9 20  1  0
 20 21  1  0
 20 22  2  0
 22 23  1  0
 23 24  1  0
 24 25  2  0
 25 26  1  0
 26 27  2  0
 27 28  1  0
 28 29  2  0
 29 30  1  0
  6 31  1  0
 31 32  1  0
 32 33  2  0
 32 34  1  0
 31 35  2  0
 35  3  1  0
 23  8  1  0
 29 24  1  0
 19 10  1  0
 18 13  1  0
  1 36  1  0
  1 37  1  0
  1 38  1  0
  4 39  1  0
  5 40  1  0
  7 41  1  0
 11 42  1  0
 12 43  1  0
 15 44  1  0
 16 45  1  0
 19 46  1  0
 21 47  1  0
 21 48  1  0
 21 49  1  0
 25 50  1  0
 26 51  1  0
 27 52  1  0
 28 53  1  0
 34 54  1  0
 35 55  1  0
M  END
$$$$
