@<TRIPOS>MOLECULE
*****
 55 59 0 0 0
SMALL
GASTEIGER

@<TRIPOS>ATOM
      1 C          -2.4251   -5.3724   -0.9187 C.3     1  UNL1        0.0788
      2 O          -2.0916   -4.5004    0.1116 O.3     1  UNL1       -0.4951
      3 C          -1.8754   -3.1405    0.0019 C.ar    1  UNL1        0.1210
      4 C          -1.9817   -2.5169   -1.2103 C.ar    1  UNL1       -0.0182
      5 C          -1.7623   -1.1673   -1.2978 C.ar    1  UNL1       -0.0363
      6 C          -1.4261   -0.3720   -0.1851 C.ar    1  UNL1        0.0467
      7 N          -1.2360    1.0124   -0.3089 N.pl3   1  UNL1       -0.2982
      8 C          -0.0504    1.7435   -0.1478 C.ar    1  UNL1        0.1346
      9 C           1.2559    1.3240   -0.0710 C.ar    1  UNL1        0.0449
     10 C           1.7502   -0.0424   -0.2055 C.ar    1  UNL1       -0.0107
     11 C           2.0126   -0.5258   -1.4911 C.ar    1  UNL1       -0.0517
     12 C           2.5013   -1.7909   -1.7076 C.ar    1  UNL1       -0.0337
     13 C           2.7306   -2.5902   -0.5871 C.ar    1  UNL1        0.0892
     14 N           3.2039   -3.8322   -0.7503 N.ar    1  UNL1       -0.2519
     15 C           3.4383   -4.6387    0.2926 C.ar    1  UNL1        0.0464
     16 C           3.1850   -4.1775    1.5786 C.ar    1  UNL1        0.0464
     17 N           2.7095   -2.9319    1.7544 N.ar    1  UNL1       -0.2519
     18 C           2.4861   -2.1528    0.6950 C.ar    1  UNL1        0.0897
     19 C           1.9878   -0.8512    0.8506 C.ar    1  UNL1       -0.0264
     20 C           2.0745    2.4441    0.1251 C.ar    1  UNL1        0.0699
     21 C           3.5397    2.3596    0.2544 C.3     1  UNL1       -0.0199
     22 N           1.2396    3.4890    0.1571 N.ar    1  UNL1       -0.1692
     23 N          -0.0068    3.0975   -0.0019 N.ar    1  UNL1       -0.2162
     24 C          -1.1062    4.0029   -0.0368 C.ar    1  UNL1        0.0857
     25 C          -2.0191    4.1335    0.9820 C.ar    1  UNL1       -0.0348
     26 C          -3.0821    4.9988    0.9445 C.ar    1  UNL1       -0.0597
     27 C          -3.2190    5.7779   -0.2046 C.ar    1  UNL1       -0.0603
     28 C          -2.3065    5.6520   -1.2301 C.ar    1  UNL1       -0.0413
     29 C          -1.2411    4.7832   -1.1904 C.ar    1  UNL1        0.0664
     30 CL         -0.0959    4.6440   -2.5132 Cl      1  UNL1       -0.0813
     31 C          -1.3251   -1.0044    1.0155 C.ar    1  UNL1        0.0834
     32 C          -1.0472   -0.3151    2.2393 C.2     1  UNL1        0.3387
     33 O          -0.9310   -0.9498    3.3195 O.2     1  UNL1       -0.2451
     34 O          -0.8990    1.0447    2.2957 O.3     1  UNL1       -0.4771
     35 C          -1.5507   -2.3869    1.0979 C.ar    1  UNL1       -0.0042
     36 H          -1.9536   -5.1769   -1.8841 H       1  UNL1        0.0660
     37 H          -3.5423   -5.3929   -1.0475 H       1  UNL1        0.0660
     38 H          -2.1467   -6.4292   -0.6373 H       1  UNL1        0.0660
     39 H          -2.2359   -3.0983   -2.0727 H       1  UNL1        0.0655
     40 H          -1.8407   -0.6542   -2.2393 H       1  UNL1        0.0637
     41 H          -2.1145    1.5731   -0.5624 H       1  UNL1        0.1536
     42 H           1.8184    0.1305   -2.3184 H       1  UNL1        0.0624
     43 H           2.7099   -2.1842   -2.6844 H       1  UNL1        0.0640
     44 H           3.8257   -5.6480    0.1150 H       1  UNL1        0.0845
     45 H           3.3764   -4.8317    2.4128 H       1  UNL1        0.0845
     46 H           1.8005   -0.5074    1.8463 H       1  UNL1        0.0645
     47 H           3.9761    2.4225   -0.7554 H       1  UNL1        0.0293
     48 H           3.7979    1.3666    0.6919 H       1  UNL1        0.0293
     49 H           3.9676    3.1844    0.8617 H       1  UNL1        0.0293
     50 H          -1.9294    3.5311    1.8941 H       1  UNL1        0.0639
     51 H          -3.8136    5.1200    1.7293 H       1  UNL1        0.0618
     52 H          -4.0328    6.4601   -0.2653 H       1  UNL1        0.0618
     53 H          -2.3872    6.2495   -2.1412 H       1  UNL1        0.0633
     54 H          -0.2438    1.5227    2.9145 H       1  UNL1        0.2954
     55 H          -1.4686   -2.8856    2.0513 H       1  UNL1        0.0663
@<TRIPOS>BOND
     1     1     2    1
     2     2     3    1
     3     3     4   ar
     4     4     5   ar
     5     5     6   ar
     6     6     7    1
     7     7     8    1
     8     8     9   ar
     9     9    10    1
    10    10    11   ar
    11    11    12   ar
    12    12    13   ar
    13    13    14   ar
    14    14    15   ar
    15    15    16   ar
    16    16    17   ar
    17    17    18   ar
    18    18    19   ar
    19     9    20   ar
    20    20    21    1
    21    20    22   ar
    22    22    23   ar
    23    23    24    1
    24    24    25   ar
    25    25    26   ar
    26    26    27   ar
    27    27    28   ar
    28    28    29   ar
    29    29    30    1
    30     6    31   ar
    31    31    32    1
    32    32    33    2
    33    32    34    1
    34    31    35   ar
    35    35     3   ar
    36    23     8   ar
    37    29    24   ar
    38    19    10   ar
    39    18    13   ar
    40     1    36    1
    41     1    37    1
    42     1    38    1
    43     4    39    1
    44     5    40    1
    45     7    41    1
    46    11    42    1
    47    12    43    1
    48    15    44    1
    49    16    45    1
    50    19    46    1
    51    21    47    1
    52    21    48    1
    53    21    49    1
    54    25    50    1
    55    26    51    1
    56    27    52    1
    57    28    53    1
    58    34    54    1
    59    35    55    1
