@<TRIPOS>MOLECULE
*****
 54 57 0 0 0
SMALL
GASTEIGER

@<TRIPOS>ATOM
      1 C          -5.2941    0.2867   -1.6149 C.3     1  UNL1       -0.0375
      2 C          -5.4177    1.0562   -0.3425 C.ar    1  UNL1       -0.0187
      3 C          -6.7471    1.3597    0.0261 C.ar    1  UNL1       -0.0378
      4 C          -6.9993    2.0069    1.2178 C.ar    1  UNL1        0.0701
      5 C          -8.3418    2.3370    1.6475 C.1     1  UNL1        0.1007
      6 N          -9.4404    2.6080    1.9921 N.1     1  UNL1       -0.1908
      7 C          -5.9102    2.3274    1.9947 C.ar    1  UNL1        0.0458
      8 N          -4.6514    2.0411    1.6510 N.ar    1  UNL1       -0.2488
      9 C          -4.4217    1.3922    0.4598 C.ar    1  UNL1        0.1286
     10 C          -3.0264    1.2208    0.1233 C.2     1  UNL1        0.2668
     11 O          -2.3115    0.5842    0.9302 O.2     1  UNL1       -0.2682
     12 N          -2.4271    1.7473   -1.0431 N.am    1  UNL1       -0.2802
     13 C          -1.0685    1.6321   -1.4302 C.ar    1  UNL1        0.0343
     14 C          -0.5773    2.5098   -2.3905 C.ar    1  UNL1       -0.0377
     15 C           0.6992    2.4807   -2.8699 C.ar    1  UNL1       -0.0243
     16 C           1.5236    1.5108   -2.3510 C.ar    1  UNL1        0.1311
     17 F           2.8305    1.3860   -2.7534 F       1  UNL1       -0.2050
     18 C           1.1442    0.5825   -1.3853 C.ar    1  UNL1        0.0420
     19 C           2.0619   -0.4305   -0.8824 C.3     1  UNL1        0.1959
     20 C           2.5347   -1.3358   -2.0281 C.3     1  UNL1       -0.0112
     21 C           1.3194   -1.3176    0.1192 C.3     1  UNL1        0.1183
     22 S           2.4408   -2.5742    0.6892 S.O2    1  UNL1       -0.0095
     23 O           2.5561   -3.6867   -0.3081 O.2     1  UNL1       -0.1731
     24 O           1.8583   -3.1110    1.9639 O.2     1  UNL1       -0.1731
     25 C           3.9710   -1.7904    0.9865 C.3     1  UNL1        0.1886
     26 C           4.2688   -1.7969    2.4920 C.3     1  UNL1       -0.0164
     27 C           5.0578   -3.0865    2.2149 C.3     1  UNL1       -0.0479
     28 C           5.2107   -2.6169    0.7646 C.3     1  UNL1       -0.0164
     29 C           4.0218   -0.3871    0.5404 C.2     1  UNL1        0.3072
     30 N           5.1054    0.4391    1.0672 N.pl3   1  UNL1       -0.2488
     31 N           3.2114    0.1418   -0.2372 N.2     1  UNL1       -0.0727
     32 C          -0.1924    0.6781   -0.9412 C.ar    1  UNL1       -0.0301
     33 H          -4.5414    0.7018   -2.2822 H       1  UNL1        0.0278
     34 H          -4.9434   -0.7623   -1.4016 H       1  UNL1        0.0278
     35 H          -6.2599    0.2911   -2.1847 H       1  UNL1        0.0278
     36 H          -7.5846    1.0923   -0.6049 H       1  UNL1        0.0634
     37 H          -6.0934    2.8488    2.9530 H       1  UNL1        0.0843
     38 H          -3.0707    2.3100   -1.6611 H       1  UNL1        0.1552
     39 H          -1.2577    3.2647   -2.7942 H       1  UNL1        0.0637
     40 H           1.0988    3.1628   -3.6315 H       1  UNL1        0.0647
     41 H           1.8979   -2.2479   -2.0056 H       1  UNL1        0.0279
     42 H           3.6125   -1.5446   -1.8780 H       1  UNL1        0.0279
     43 H           2.3643   -0.8433   -3.0046 H       1  UNL1        0.0279
     44 H           0.9068   -0.7270    0.9506 H       1  UNL1        0.0550
     45 H           0.5038   -1.8098   -0.4244 H       1  UNL1        0.0550
     46 H           3.3890   -1.9337    3.1113 H       1  UNL1        0.0292
     47 H           4.9930   -0.9967    2.7371 H       1  UNL1        0.0292
     48 H           6.0164   -3.1780    2.7340 H       1  UNL1        0.0267
     49 H           4.3262   -3.9371    2.3182 H       1  UNL1        0.0267
     50 H           6.0891   -1.9206    0.6966 H       1  UNL1        0.0292
     51 H           5.1677   -3.4158    0.0324 H       1  UNL1        0.0292
     52 H           4.8340    1.3294    1.4964 H       1  UNL1        0.2881
     53 H           6.0929    0.1360    1.0205 H       1  UNL1        0.2881
     54 H          -0.5301   -0.0149   -0.2235 H       1  UNL1        0.0641
@<TRIPOS>BOND
     1     1     2    1
     2     2     3   ar
     3     3     4   ar
     4     4     5    1
     5     5     6    3
     6     4     7   ar
     7     7     8   ar
     8     8     9   ar
     9     9    10    1
    10    10    11    2
    11    10    12   am
    12    12    13    1
    13    13    14   ar
    14    14    15   ar
    15    15    16   ar
    16    16    17    1
    17    16    18   ar
    18    18    19    1
    19    19    20    1
    20    19    21    1
    21    21    22    1
    22    22    23    2
    23    22    24    2
    24    22    25    1
    25    25    26    1
    26    26    27    1
    27    27    28    1
    28    25    29    1
    29    29    30    1
    30    29    31    2
    31    18    32   ar
    32     9     2   ar
    33    32    13   ar
    34    31    19    1
    35    28    25    1
    36     1    33    1
    37     1    34    1
    38     1    35    1
    39     3    36    1
    40     7    37    1
    41    12    38    1
    42    14    39    1
    43    15    40    1
    44    20    41    1
    45    20    42    1
    46    20    43    1
    47    21    44    1
    48    21    45    1
    49    26    46    1
    50    26    47    1
    51    27    48    1
    52    27    49    1
    53    28    50    1
    54    28    51    1
    55    30    52    1
    56    30    53    1
    57    32    54    1
