
     RDKit          3D

 54 57  0  0  0  0  0  0  0  0999 V2000
   -5.2941    0.2867   -1.6149 C   0  0  0  0  0  0  0  0  0  0  0  0
   -5.4177    1.0562   -0.3425 C   0  0  0  0  0  0  0  0  0  0  0  0
   -6.7471    1.3597    0.0261 C   0  0  0  0  0  0  0  0  0  0  0  0
   -6.9993    2.0069    1.2178 C   0  0  0  0  0  0  0  0  0  0  0  0
   -8.3418    2.3370    1.6475 C   0  0  0  0  0  0  0  0  0  0  0  0
   -9.4404    2.6080    1.9921 N   0  0  0  0  0  0  0  0  0  0  0  0
   -5.9102    2.3274    1.9947 C   0  0  0  0  0  0  0  0  0  0  0  0
   -4.6514    2.0411    1.6510 N   0  0  0  0  0  0  0  0  0  0  0  0
   -4.4217    1.3922    0.4598 C   0  0  0  0  0  0  0  0  0  0  0  0
   -3.0264    1.2208    0.1233 C   0  0  0  0  0  0  0  0  0  0  0  0
   -2.3115    0.5842    0.9302 O   0  0  0  0  0  0  0  0  0  0  0  0
   -2.4271    1.7473   -1.0431 N   0  0  0  0  0  0  0  0  0  0  0  0
   -1.0685    1.6321   -1.4302 C   0  0  0  0  0  0  0  0  0  0  0  0
   -0.5773    2.5098   -2.3905 C   0  0  0  0  0  0  0  0  0  0  0  0
    0.6992    2.4807   -2.8699 C   0  0  0  0  0  0  0  0  0  0  0  0
    1.5236    1.5108   -2.3510 C   0  0  0  0  0  0  0  0  0  0  0  0
    2.8305    1.3860   -2.7534 F   0  0  0  0  0  0  0  0  0  0  0  0
    1.1442    0.5825   -1.3853 C   0  0  0  0  0  0  0  0  0  0  0  0
    2.0619   -0.4305   -0.8824 C   0  0  2  0  0  0  0  0  0  0  0  0
    2.5347   -1.3358   -2.0281 C   0  0  0  0  0  0  0  0  0  0  0  0
    1.3194   -1.3176    0.1192 C   0  0  0  0  0  0  0  0  0  0  0  0
    2.4408   -2.5742    0.6892 S   0  0  0  0  0  6  0  0  0  0  0  0
    2.5561   -3.6867   -0.3081 O   0  0  0  0  0  0  0  0  0  0  0  0
    1.8583   -3.1110    1.9639 O   0  0  0  0  0  0  0  0  0  0  0  0
    3.9710   -1.7904    0.9865 C   0  0  0  0  0  0  0  0  0  0  0  0
    4.2688   -1.7969    2.4920 C   0  0  0  0  0  0  0  0  0  0  0  0
    5.0578   -3.0865    2.2149 C   0  0  0  0  0  0  0  0  0  0  0  0
    5.2107   -2.6169    0.7646 C   0  0  0  0  0  0  0  0  0  0  0  0
    4.0218   -0.3871    0.5404 C   0  0  0  0  0  0  0  0  0  0  0  0
    5.1054    0.4391    1.0672 N   0  0  0  0  0  0  0  0  0  0  0  0
    3.2114    0.1418   -0.2372 N   0  0  0  0  0  0  0  0  0  0  0  0
   -0.1924    0.6781   -0.9412 C   0  0  0  0  0  0  0  0  0  0  0  0
   -4.5414    0.7018   -2.2822 H   0  0  0  0  0  0  0  0  0  0  0  0
   -4.9434   -0.7623   -1.4016 H   0  0  0  0  0  0  0  0  0  0  0  0
   -6.2599    0.2911   -2.1847 H   0  0  0  0  0  0  0  0  0  0  0  0
   -7.5846    1.0923   -0.6049 H   0  0  0  0  0  0  0  0  0  0  0  0
   -6.0934    2.8488    2.9530 H   0  0  0  0  0  0  0  0  0  0  0  0
   -3.0707    2.3100   -1.6611 H   0  0  0  0  0  0  0  0  0  0  0  0
   -1.2577    3.2647   -2.7942 H   0  0  0  0  0  0  0  0  0  0  0  0
    1.0988    3.1628   -3.6315 H   0  0  0  0  0  0  0  0  0  0  0  0
    1.8979   -2.2479   -2.0056 H   0  0  0  0  0  0  0  0  0  0  0  0
    3.6125   -1.5446   -1.8780 H   0  0  0  0  0  0  0  0  0  0  0  0
    2.3643   -0.8433   -3.0046 H   0  0  0  0  0  0  0  0  0  0  0  0
    0.9068   -0.7270    0.9506 H   0  0  0  0  0  0  0  0  0  0  0  0
    0.5038   -1.8098   -0.4244 H   0  0  0  0  0  0  0  0  0  0  0  0
    3.3890   -1.9337    3.1113 H   0  0  0  0  0  0  0  0  0  0  0  0
    4.9930   -0.9967    2.7371 H   0  0  0  0  0  0  0  0  0  0  0  0
    6.0164   -3.1780    2.7340 H   0  0  0  0  0  0  0  0  0  0  0  0
    4.3262   -3.9371    2.3182 H   0  0  0  0  0  0  0  0  0  0  0  0
    6.0891   -1.9206    0.6966 H   0  0  0  0  0  0  0  0  0  0  0  0
    5.1677   -3.4158    0.0324 H   0  0  0  0  0  0  0  0  0  0  0  0
    4.8340    1.3294    1.4964 H   0  0  0  0  0  0  0  0  0  0  0  0
    6.0929    0.1360    1.0205 H   0  0  0  0  0  0  0  0  0  0  0  0
   -0.5301   -0.0149   -0.2235 H   0  0  0  0  0  0  0  0  0  0  0  0
  1  2  1  0
  2  3  2  0
  3  4  1  0
  4  5  1  0
  5  6  3  0
  4  7  2  0
  7  8  1  0
  8  9  2  0
  9 10  1  0
 10 11  2  0
 10 12  1  0
 12 13  1  0
 13 14  2  0
 14 15  1  0
 15 16  2  0
 16 17  1  0
 16 18  1  0
 18 19  1  0
 19 20  1  6
 19 21  1  0
 21 22  1  0
 22 23  2  0
 22 24  2  0
 22 25  1  0
 25 26  1  0
 26 27  1  0
 27 28  1  0
 25 29  1  0
 29 30  1  0
 29 31  2  0
 18 32  2  0
  9  2  1  0
 32 13  1  0
 31 19  1  0
 28 25  1  0
  1 33  1  0
  1 34  1  0
  1 35  1  0
  3 36  1  0
  7 37  1  0
 12 38  1  0
 14 39  1  0
 15 40  1  0
 20 41  1  0
 20 42  1  0
 20 43  1  0
 21 44  1  0
 21 45  1  0
 26 46  1  0
 26 47  1  0
 27 48  1  0
 27 49  1  0
 28 50  1  0
 28 51  1  0
 30 52  1  0
 30 53  1  0
 32 54  1  0
M  END
$$$$
