
     RDKit          3D

 43 45  0  0  0  0  0  0  0  0999 V2000
   -4.2768    1.7043    2.2077 O   0  0  0  0  0  0  0  0  0  0  0  0
   -3.9352    0.5556    1.9866 C   0  0  0  0  0  0  0  0  0  0  0  0
   -4.9410   -0.5668    2.0532 C   0  0  0  0  0  0  0  0  0  0  0  0
   -4.4242   -1.6579    1.1393 C   0  0  0  0  0  0  0  0  0  0  0  0
   -3.7859   -1.0908   -0.1069 C   0  0  0  0  0  0  0  0  0  0  0  0
   -2.4957   -0.3615    0.1992 C   0  0  0  0  0  0  0  0  0  0  0  0
   -2.4629    0.8694   -0.6732 C   0  0  0  0  0  0  0  0  0  0  0  0
   -1.2958    1.6775   -0.5116 N   0  0  0  0  0  0  0  0  0  0  0  0
   -0.0197    1.2912   -0.9721 C   0  0  0  0  0  0  0  0  0  0  0  0
    0.2307    0.1225   -1.6598 C   0  0  0  0  0  0  0  0  0  0  0  0
    1.4990   -0.2320   -2.1253 C   0  0  0  0  0  0  0  0  0  0  0  0
    1.6944   -1.3843   -2.7916 F   0  0  0  0  0  0  0  0  0  0  0  0
    2.5488    0.6341   -1.8827 C   0  0  0  0  0  0  0  0  0  0  0  0
    4.1715    0.2645   -2.4329 S   0  0  0  0  0  6  0  0  0  0  0  0
    5.0667    1.4141   -2.1040 O   0  0  0  0  0  0  0  0  0  0  0  0
    4.0926    0.1238   -3.9464 O   0  0  0  0  0  0  0  0  0  0  0  0
    4.7512   -1.1897   -1.7584 N   0  0  0  0  0  0  0  0  0  0  0  0
    4.8680   -1.2238   -0.3100 C   0  0  0  0  0  0  0  0  0  0  0  0
    4.6725   -0.5029    0.6316 N   0  0  0  0  0  0  0  0  0  0  0  0
    4.8647   -0.7800    1.8948 C   0  0  0  0  0  0  0  0  0  0  0  0
    5.3328   -2.0035    2.1864 C   0  0  0  0  0  0  0  0  0  0  0  0
    5.4779   -2.7370    0.4817 S   0  0  0  0  0  0  0  0  0  0  0  0
    2.3039    1.8054   -1.1955 C   0  0  0  0  0  0  0  0  0  0  0  0
    1.0571    2.1555   -0.7366 C   0  0  0  0  0  0  0  0  0  0  0  0
    0.8791    3.6692    0.1216 Cl  0  0  0  0  0  0  0  0  0  0  0  0
   -2.5412    0.1626    1.6413 C   0  0  0  0  0  0  0  0  0  0  0  0
   -5.9540   -0.2107    1.7578 H   0  0  0  0  0  0  0  0  0  0  0  0
   -4.9601   -0.8863    3.1162 H   0  0  0  0  0  0  0  0  0  0  0  0
   -5.3004   -2.2567    0.8153 H   0  0  0  0  0  0  0  0  0  0  0  0
   -3.7569   -2.3315    1.6943 H   0  0  0  0  0  0  0  0  0  0  0  0
   -4.5107   -0.4018   -0.5570 H   0  0  0  0  0  0  0  0  0  0  0  0
   -3.5662   -1.9155   -0.7862 H   0  0  0  0  0  0  0  0  0  0  0  0
   -1.6325   -1.0209    0.1119 H   0  0  0  0  0  0  0  0  0  0  0  0
   -3.4023    1.4395   -0.4184 H   0  0  0  0  0  0  0  0  0  0  0  0
   -2.6127    0.5319   -1.7224 H   0  0  0  0  0  0  0  0  0  0  0  0
   -1.4164    2.5936   -0.0267 H   0  0  0  0  0  0  0  0  0  0  0  0
   -0.5516   -0.5779   -1.8862 H   0  0  0  0  0  0  0  0  0  0  0  0
    5.0017   -1.9935   -2.3571 H   0  0  0  0  0  0  0  0  0  0  0  0
    4.6561   -0.0451    2.7249 H   0  0  0  0  0  0  0  0  0  0  0  0
    5.6050   -2.5725    3.0783 H   0  0  0  0  0  0  0  0  0  0  0  0
    3.1599    2.4567   -1.0277 H   0  0  0  0  0  0  0  0  0  0  0  0
   -2.2513   -0.6698    2.3399 H   0  0  0  0  0  0  0  0  0  0  0  0
   -1.8401    0.9840    1.8067 H   0  0  0  0  0  0  0  0  0  0  0  0
  1  2  2  0
  2  3  1  0
  3  4  1  0
  4  5  1  0
  5  6  1  0
  6  7  1  0
  7  8  1  0
  8  9  1  0
  9 10  2  0
 10 11  1  0
 11 12  1  0
 11 13  2  0
 13 14  1  0
 14 15  2  0
 14 16  2  0
 14 17  1  0
 17 18  1  0
 18 19  2  0
 19 20  1  0
 20 21  2  0
 21 22  1  0
 13 23  1  0
 23 24  2  0
 24 25  1  0
  6 26  1  0
 26  2  1  0
 24  9  1  0
 22 18  1  0
  3 27  1  0
  3 28  1  0
  4 29  1  0
  4 30  1  0
  5 31  1  0
  5 32  1  0
  6 33  1  0
  7 34  1  0
  7 35  1  0
  8 36  1  0
 10 37  1  0
 17 38  1  0
 20 39  1  0
 21 40  1  0
 23 41  1  0
 26 42  1  0
 26 43  1  0
M  END
$$$$
