@<TRIPOS>MOLECULE
*****
 43 45 0 0 0
SMALL
GASTEIGER

@<TRIPOS>ATOM
      1 O          -4.2768    1.7043    2.2077 O.2     1  UNL1       -0.2974
      2 C          -3.9352    0.5556    1.9866 C.2     1  UNL1        0.1337
      3 C          -4.9410   -0.5668    2.0532 C.3     1  UNL1        0.0058
      4 C          -4.4242   -1.6579    1.1393 C.3     1  UNL1       -0.0461
      5 C          -3.7859   -1.0908   -0.1069 C.3     1  UNL1       -0.0480
      6 C          -2.4957   -0.3615    0.1992 C.3     1  UNL1       -0.0189
      7 C          -2.4629    0.8694   -0.6732 C.3     1  UNL1        0.0124
      8 N          -1.2958    1.6775   -0.5116 N.pl3   1  UNL1       -0.3424
      9 C          -0.0197    1.2912   -0.9721 C.ar    1  UNL1        0.0485
     10 C           0.2307    0.1225   -1.6598 C.ar    1  UNL1       -0.0022
     11 C           1.4990   -0.2320   -2.1253 C.ar    1  UNL1        0.1517
     12 F           1.6944   -1.3843   -2.7916 F       1  UNL1       -0.2034
     13 C           2.5488    0.6341   -1.8827 C.ar    1  UNL1        0.1450
     14 S           4.1715    0.2645   -2.4329 S.O2    1  UNL1        0.0766
     15 O           5.0667    1.4141   -2.1040 O.2     1  UNL1       -0.1498
     16 O           4.0926    0.1238   -3.9464 O.2     1  UNL1       -0.1498
     17 N           4.7512   -1.1897   -1.7584 N.pl3   1  UNL1       -0.1937
     18 C           4.8680   -1.2238   -0.3100 C.ar    1  UNL1        0.1774
     19 N           4.6725   -0.5029    0.6316 N.ar    1  UNL1       -0.2321
     20 C           4.8647   -0.7800    1.8948 C.ar    1  UNL1        0.0369
     21 C           5.3328   -2.0035    2.1864 C.ar    1  UNL1       -0.0030
     22 S           5.4779   -2.7370    0.4817 S.2     1  UNL1       -0.0594
     23 C           2.3039    1.8054   -1.1955 C.ar    1  UNL1       -0.0121
     24 C           1.0571    2.1555   -0.7366 C.ar    1  UNL1        0.0638
     25 CL          0.8791    3.6692    0.1216 Cl      1  UNL1       -0.0816
     26 C          -2.5412    0.1626    1.6413 C.3     1  UNL1        0.0101
     27 H          -5.9540   -0.2107    1.7578 H       1  UNL1        0.0342
     28 H          -4.9601   -0.8863    3.1162 H       1  UNL1        0.0342
     29 H          -5.3004   -2.2567    0.8153 H       1  UNL1        0.0269
     30 H          -3.7569   -2.3315    1.6943 H       1  UNL1        0.0269
     31 H          -4.5107   -0.4018   -0.5570 H       1  UNL1        0.0269
     32 H          -3.5662   -1.9155   -0.7862 H       1  UNL1        0.0269
     33 H          -1.6325   -1.0209    0.1119 H       1  UNL1        0.0320
     34 H          -3.4023    1.4395   -0.4184 H       1  UNL1        0.0464
     35 H          -2.6127    0.5319   -1.7224 H       1  UNL1        0.0464
     36 H          -1.4164    2.5936   -0.0267 H       1  UNL1        0.1461
     37 H          -0.5516   -0.5779   -1.8862 H       1  UNL1        0.0666
     38 H           5.0017   -1.9935   -2.3571 H       1  UNL1        0.1758
     39 H           4.6561   -0.0451    2.7249 H       1  UNL1        0.0835
     40 H           5.6050   -2.5725    3.0783 H       1  UNL1        0.0710
     41 H           3.1599    2.4567   -1.0277 H       1  UNL1        0.0653
     42 H          -2.2513   -0.6698    2.3399 H       1  UNL1        0.0345
     43 H          -1.8401    0.9840    1.8067 H       1  UNL1        0.0345
@<TRIPOS>BOND
     1     1     2    2
     2     2     3    1
     3     3     4    1
     4     4     5    1
     5     5     6    1
     6     6     7    1
     7     7     8    1
     8     8     9    1
     9     9    10   ar
    10    10    11   ar
    11    11    12    1
    12    11    13   ar
    13    13    14    1
    14    14    15    2
    15    14    16    2
    16    14    17    1
    17    17    18    1
    18    18    19   ar
    19    19    20   ar
    20    20    21   ar
    21    21    22   ar
    22    13    23   ar
    23    23    24   ar
    24    24    25    1
    25     6    26    1
    26    26     2    1
    27    24     9   ar
    28    22    18   ar
    29     3    27    1
    30     3    28    1
    31     4    29    1
    32     4    30    1
    33     5    31    1
    34     5    32    1
    35     6    33    1
    36     7    34    1
    37     7    35    1
    38     8    36    1
    39    10    37    1
    40    17    38    1
    41    20    39    1
    42    21    40    1
    43    23    41    1
    44    26    42    1
    45    26    43    1
