@<TRIPOS>MOLECULE
*****
 51 55 0 0 0
SMALL
GASTEIGER

@<TRIPOS>ATOM
      1 O          -5.5209   -1.4172    2.8463 O.2     1  UNL1       -0.2902
      2 C          -5.0375   -0.8826    1.8250 C.2     1  UNL1        0.1886
      3 C          -3.6509   -1.2431    1.4373 C.3     1  UNL1        0.0521
      4 C          -3.2240   -0.6558    0.1348 C.3     1  UNL1        0.1206
      5 C          -2.3976   -1.6397   -0.6998 C.3     1  UNL1        0.0034
      6 C          -1.2241   -2.0334    0.1370 C.3     1  UNL1        0.0198
      7 N          -0.4113   -0.8218    0.3112 N.am    1  UNL1       -0.2854
      8 C           0.9121   -0.8470   -0.1826 C.2     1  UNL1        0.3024
      9 O           1.3126   -1.9005   -0.7394 O.2     1  UNL1       -0.2526
     10 N           1.8387    0.2286   -0.1024 N.am    1  UNL1       -0.2958
     11 C           3.1857    0.1610   -0.6209 C.3     1  UNL1        0.0320
     12 C           3.7551    1.3484   -1.3585 C.3     1  UNL1       -0.0254
     13 C           4.2841    0.9330   -0.0026 C.3     1  UNL1        0.0043
     14 C           5.6761    0.4689   -0.0443 C.ar    1  UNL1       -0.0425
     15 C           6.5399    0.8590    0.9554 C.ar    1  UNL1       -0.0582
     16 C           7.8649    0.4773    1.0064 C.ar    1  UNL1       -0.0615
     17 C           8.3265   -0.3442   -0.0173 C.ar    1  UNL1       -0.0617
     18 C           7.4852   -0.7363   -1.0094 C.ar    1  UNL1       -0.0615
     19 C           6.1728   -0.3460   -1.0413 C.ar    1  UNL1       -0.0582
     20 C          -1.0500    0.2811    0.9751 C.3     1  UNL1        0.0198
     21 C          -2.3509    0.5755    0.2908 C.3     1  UNL1        0.0034
     22 O          -4.3083   -0.2770   -0.6950 O.3     1  UNL1       -0.4829
     23 C          -5.4460    0.3446   -0.2134 C.ar    1  UNL1        0.1500
     24 C          -6.1655    1.2281   -0.9888 C.ar    1  UNL1       -0.0162
     25 C          -7.2970    1.8010   -0.4101 C.ar    1  UNL1       -0.0401
     26 C          -7.6663    1.4941    0.8666 C.ar    1  UNL1        0.0286
     27 N          -6.9479    0.6384    1.5826 N.ar    1  UNL1       -0.2484
     28 C          -5.8470    0.0563    1.0738 C.ar    1  UNL1        0.1477
     29 H          -2.9925   -0.9151    2.2841 H       1  UNL1        0.0385
     30 H          -3.6186   -2.3700    1.4395 H       1  UNL1        0.0385
     31 H          -1.9932   -1.0126   -1.5463 H       1  UNL1        0.0319
     32 H          -2.9977   -2.4672   -1.0844 H       1  UNL1        0.0319
     33 H          -1.4922   -2.4560    1.1233 H       1  UNL1        0.0466
     34 H          -0.6667   -2.8214   -0.4012 H       1  UNL1        0.0466
     35 H           1.4809    1.0902    0.3645 H       1  UNL1        0.1505
     36 H           3.4447   -0.8027   -1.0801 H       1  UNL1        0.0505
     37 H           3.0528    2.2020   -1.4215 H       1  UNL1        0.0290
     38 H           4.3685    1.1804   -2.2636 H       1  UNL1        0.0290
     39 H           4.0534    1.5824    0.8730 H       1  UNL1        0.0367
     40 H           6.2069    1.5081    1.7792 H       1  UNL1        0.0620
     41 H           8.5094    0.8060    1.8090 H       1  UNL1        0.0618
     42 H           9.3663   -0.6501    0.0130 H       1  UNL1        0.0618
     43 H           7.8561   -1.3831   -1.8122 H       1  UNL1        0.0618
     44 H           5.5402   -0.6695   -1.8309 H       1  UNL1        0.0620
     45 H          -1.1854    0.0141    2.0564 H       1  UNL1        0.0466
     46 H          -0.4398    1.1776    0.9466 H       1  UNL1        0.0466
     47 H          -2.8872    1.3903    0.8271 H       1  UNL1        0.0319
     48 H          -2.1198    0.9312   -0.7287 H       1  UNL1        0.0319
     49 H          -5.8781    1.4742   -1.9982 H       1  UNL1        0.0655
     50 H          -7.8696    2.4891   -0.9945 H       1  UNL1        0.0634
     51 H          -8.5466    1.9514    1.2920 H       1  UNL1        0.0830
@<TRIPOS>BOND
     1     1     2    2
     2     2     3    1
     3     3     4    1
     4     4     5    1
     5     5     6    1
     6     6     7    1
     7     7     8   am
     8     8     9    2
     9     8    10   am
    10    10    11    1
    11    11    12    1
    12    12    13    1
    13    13    14    1
    14    14    15   ar
    15    15    16   ar
    16    16    17   ar
    17    17    18   ar
    18    18    19   ar
    19     7    20    1
    20    20    21    1
    21     4    22    1
    22    22    23    1
    23    23    24   ar
    24    24    25   ar
    25    25    26   ar
    26    26    27   ar
    27    27    28   ar
    28    28     2    1
    29    21     4    1
    30    28    23   ar
    31    13    11    1
    32    19    14   ar
    33     3    29    1
    34     3    30    1
    35     5    31    1
    36     5    32    1
    37     6    33    1
    38     6    34    1
    39    10    35    1
    40    11    36    1
    41    12    37    1
    42    12    38    1
    43    13    39    1
    44    15    40    1
    45    16    41    1
    46    17    42    1
    47    18    43    1
    48    19    44    1
    49    20    45    1
    50    20    46    1
    51    21    47    1
    52    21    48    1
    53    24    49    1
    54    25    50    1
    55    26    51    1
