
     RDKit          3D

 51 55  0  0  0  0  0  0  0  0999 V2000
   -5.5209   -1.4172    2.8463 O   0  0  0  0  0  0  0  0  0  0  0  0
   -5.0375   -0.8826    1.8250 C   0  0  0  0  0  0  0  0  0  0  0  0
   -3.6509   -1.2431    1.4373 C   0  0  0  0  0  0  0  0  0  0  0  0
   -3.2240   -0.6558    0.1348 C   0  0  0  0  0  0  0  0  0  0  0  0
   -2.3976   -1.6397   -0.6998 C   0  0  0  0  0  0  0  0  0  0  0  0
   -1.2241   -2.0334    0.1370 C   0  0  0  0  0  0  0  0  0  0  0  0
   -0.4113   -0.8218    0.3112 N   0  0  0  0  0  0  0  0  0  0  0  0
    0.9121   -0.8470   -0.1826 C   0  0  0  0  0  0  0  0  0  0  0  0
    1.3126   -1.9005   -0.7394 O   0  0  0  0  0  0  0  0  0  0  0  0
    1.8387    0.2286   -0.1024 N   0  0  0  0  0  0  0  0  0  0  0  0
    3.1857    0.1610   -0.6209 C   0  0  1  0  0  0  0  0  0  0  0  0
    3.7551    1.3484   -1.3585 C   0  0  0  0  0  0  0  0  0  0  0  0
    4.2841    0.9330   -0.0026 C   0  0  2  0  0  0  0  0  0  0  0  0
    5.6761    0.4689   -0.0443 C   0  0  0  0  0  0  0  0  0  0  0  0
    6.5399    0.8590    0.9554 C   0  0  0  0  0  0  0  0  0  0  0  0
    7.8649    0.4773    1.0064 C   0  0  0  0  0  0  0  0  0  0  0  0
    8.3265   -0.3442   -0.0173 C   0  0  0  0  0  0  0  0  0  0  0  0
    7.4852   -0.7363   -1.0094 C   0  0  0  0  0  0  0  0  0  0  0  0
    6.1728   -0.3460   -1.0413 C   0  0  0  0  0  0  0  0  0  0  0  0
   -1.0500    0.2811    0.9751 C   0  0  0  0  0  0  0  0  0  0  0  0
   -2.3509    0.5755    0.2908 C   0  0  0  0  0  0  0  0  0  0  0  0
   -4.3083   -0.2770   -0.6950 O   0  0  0  0  0  0  0  0  0  0  0  0
   -5.4460    0.3446   -0.2134 C   0  0  0  0  0  0  0  0  0  0  0  0
   -6.1655    1.2281   -0.9888 C   0  0  0  0  0  0  0  0  0  0  0  0
   -7.2970    1.8010   -0.4101 C   0  0  0  0  0  0  0  0  0  0  0  0
   -7.6663    1.4941    0.8666 C   0  0  0  0  0  0  0  0  0  0  0  0
   -6.9479    0.6384    1.5826 N   0  0  0  0  0  0  0  0  0  0  0  0
   -5.8470    0.0563    1.0738 C   0  0  0  0  0  0  0  0  0  0  0  0
   -2.9925   -0.9151    2.2841 H   0  0  0  0  0  0  0  0  0  0  0  0
   -3.6186   -2.3700    1.4395 H   0  0  0  0  0  0  0  0  0  0  0  0
   -1.9932   -1.0126   -1.5463 H   0  0  0  0  0  0  0  0  0  0  0  0
   -2.9977   -2.4672   -1.0844 H   0  0  0  0  0  0  0  0  0  0  0  0
   -1.4922   -2.4560    1.1233 H   0  0  0  0  0  0  0  0  0  0  0  0
   -0.6667   -2.8214   -0.4012 H   0  0  0  0  0  0  0  0  0  0  0  0
    1.4809    1.0902    0.3645 H   0  0  0  0  0  0  0  0  0  0  0  0
    3.4447   -0.8027   -1.0801 H   0  0  0  0  0  0  0  0  0  0  0  0
    3.0528    2.2020   -1.4215 H   0  0  0  0  0  0  0  0  0  0  0  0
    4.3685    1.1804   -2.2636 H   0  0  0  0  0  0  0  0  0  0  0  0
    4.0534    1.5824    0.8730 H   0  0  0  0  0  0  0  0  0  0  0  0
    6.2069    1.5081    1.7792 H   0  0  0  0  0  0  0  0  0  0  0  0
    8.5094    0.8060    1.8090 H   0  0  0  0  0  0  0  0  0  0  0  0
    9.3663   -0.6501    0.0130 H   0  0  0  0  0  0  0  0  0  0  0  0
    7.8561   -1.3831   -1.8122 H   0  0  0  0  0  0  0  0  0  0  0  0
    5.5402   -0.6695   -1.8309 H   0  0  0  0  0  0  0  0  0  0  0  0
   -1.1854    0.0141    2.0564 H   0  0  0  0  0  0  0  0  0  0  0  0
   -0.4398    1.1776    0.9466 H   0  0  0  0  0  0  0  0  0  0  0  0
   -2.8872    1.3903    0.8271 H   0  0  0  0  0  0  0  0  0  0  0  0
   -2.1198    0.9312   -0.7287 H   0  0  0  0  0  0  0  0  0  0  0  0
   -5.8781    1.4742   -1.9982 H   0  0  0  0  0  0  0  0  0  0  0  0
   -7.8696    2.4891   -0.9945 H   0  0  0  0  0  0  0  0  0  0  0  0
   -8.5466    1.9514    1.2920 H   0  0  0  0  0  0  0  0  0  0  0  0
  1  2  2  0
  2  3  1  0
  3  4  1  0
  4  5  1  0
  5  6  1  0
  6  7  1  0
  7  8  1  0
  8  9  2  0
  8 10  1  0
 10 11  1  0
 11 12  1  0
 12 13  1  0
 13 14  1  0
 14 15  2  0
 15 16  1  0
 16 17  2  0
 17 18  1  0
 18 19  2  0
  7 20  1  0
 20 21  1  0
  4 22  1  0
 22 23  1  0
 23 24  2  0
 24 25  1  0
 25 26  2  0
 26 27  1  0
 27 28  2  0
 28  2  1  0
 21  4  1  0
 28 23  1  0
 13 11  1  0
 19 14  1  0
  3 29  1  0
  3 30  1  0
  5 31  1  0
  5 32  1  0
  6 33  1  0
  6 34  1  0
 10 35  1  0
 11 36  1  6
 12 37  1  0
 12 38  1  0
 13 39  1  1
 15 40  1  0
 16 41  1  0
 17 42  1  0
 18 43  1  0
 19 44  1  0
 20 45  1  0
 20 46  1  0
 21 47  1  0
 21 48  1  0
 24 49  1  0
 25 50  1  0
 26 51  1  0
M  END
$$$$
