
     RDKit          3D

 56 58  0  0  0  0  0  0  0  0999 V2000
    2.4491   -3.5693   -1.8706 C   0  0  0  0  0  0  0  0  0  0  0  0
    1.7435   -2.5083   -1.5417 C   0  0  0  0  0  0  0  0  0  0  0  0
    0.3481   -2.4437   -2.0689 C   0  0  0  0  0  0  0  0  0  0  0  0
    2.3789   -1.4273   -0.7793 C   0  0  0  0  0  0  0  0  0  0  0  0
    3.7778   -1.4190   -0.6971 C   0  0  0  0  0  0  0  0  0  0  0  0
    4.4022   -0.4540   -0.0349 N   0  0  0  0  0  0  0  0  0  0  0  0
    3.7596    0.5579    0.5877 C   0  0  0  0  0  0  0  0  0  0  0  0
    4.5585    1.5428    1.2698 C   0  0  0  0  0  0  0  0  0  0  0  0
    4.0301    2.6215    1.9419 C   0  0  0  0  0  0  0  0  0  0  0  0
    4.8294    3.5627    2.5956 C   0  0  0  0  0  0  0  0  0  0  0  0
    4.0599    4.8974    3.4211 Cl  0  0  0  0  0  0  0  0  0  0  0  0
    6.1845    3.4064    2.5663 C   0  0  0  0  0  0  0  0  0  0  0  0
    6.7564    2.3540    1.9137 C   0  0  0  0  0  0  0  0  0  0  0  0
    5.9393    1.4506    1.2836 C   0  0  0  0  0  0  0  0  0  0  0  0
    6.5225    0.3960    0.6300 F   0  0  0  0  0  0  0  0  0  0  0  0
    2.3939    0.5855    0.5325 C   0  0  0  0  0  0  0  0  0  0  0  0
    1.7243   -0.4226   -0.1574 C   0  0  0  0  0  0  0  0  0  0  0  0
    0.2802   -0.3347   -0.1430 N   0  0  0  0  0  0  0  0  0  0  0  0
   -0.5022   -1.2768    0.5540 C   0  0  0  0  0  0  0  0  0  0  0  0
    0.1658   -2.2713    1.2812 C   0  0  0  0  0  0  0  0  0  0  0  0
   -0.5814   -3.1884    1.9499 C   0  0  0  0  0  0  0  0  0  0  0  0
   -1.9205   -3.1631    1.9301 N   0  0  0  0  0  0  0  0  0  0  0  0
   -2.5705   -2.2127    1.2355 C   0  0  0  0  0  0  0  0  0  0  0  0
   -1.8672   -1.2294    0.5180 C   0  0  0  0  0  0  0  0  0  0  0  0
   -2.6153   -0.2290   -0.2201 C   0  0  0  0  0  0  0  0  0  0  0  0
   -2.0875    0.6710   -0.8949 O   0  0  0  0  0  0  0  0  0  0  0  0
   -4.0502   -0.1863   -0.2390 N   0  0  0  0  0  0  0  0  0  0  0  0
   -4.7824    0.8200   -0.9801 C   0  0  0  0  0  0  0  0  0  0  0  0
   -6.2718    0.6032   -0.8234 C   0  0  0  0  0  0  0  0  0  0  0  0
   -4.4533    0.8577   -2.4307 C   0  0  0  0  0  0  0  0  0  0  0  0
   -4.5113    2.1905   -0.3557 C   0  0  0  0  0  0  0  0  0  0  0  0
   -5.2432    3.1239   -1.1099 O   0  0  0  0  0  0  0  0  0  0  0  0
    3.4459   -3.6994   -1.5402 H   0  0  0  0  0  0  0  0  0  0  0  0
    2.0130   -4.3583   -2.5067 H   0  0  0  0  0  0  0  0  0  0  0  0
   -0.0165   -1.4300   -2.1900 H   0  0  0  0  0  0  0  0  0  0  0  0
    0.4232   -2.9355   -3.1002 H   0  0  0  0  0  0  0  0  0  0  0  0
   -0.2678   -3.1452   -1.4999 H   0  0  0  0  0  0  0  0  0  0  0  0
    4.3738   -2.1886   -1.1826 H   0  0  0  0  0  0  0  0  0  0  0  0
    2.9632    2.7626    1.9767 H   0  0  0  0  0  0  0  0  0  0  0  0
    6.8029    4.1504    3.0824 H   0  0  0  0  0  0  0  0  0  0  0  0
    7.8427    2.2400    1.8976 H   0  0  0  0  0  0  0  0  0  0  0  0
    1.8599    1.3884    1.0249 H   0  0  0  0  0  0  0  0  0  0  0  0
   -0.0529    0.4735   -0.6838 H   0  0  0  0  0  0  0  0  0  0  0  0
    1.2431   -2.2426    1.2682 H   0  0  0  0  0  0  0  0  0  0  0  0
   -0.0714   -3.9704    2.5214 H   0  0  0  0  0  0  0  0  0  0  0  0
   -3.6581   -2.2109    1.2328 H   0  0  0  0  0  0  0  0  0  0  0  0
   -4.5982   -0.8751    0.2782 H   0  0  0  0  0  0  0  0  0  0  0  0
   -6.8454    1.5451   -0.9342 H   0  0  0  0  0  0  0  0  0  0  0  0
   -6.5959   -0.1477   -1.5663 H   0  0  0  0  0  0  0  0  0  0  0  0
   -6.5287    0.1862    0.1733 H   0  0  0  0  0  0  0  0  0  0  0  0
   -4.3824   -0.1868   -2.8362 H   0  0  0  0  0  0  0  0  0  0  0  0
   -5.3329    1.3236   -2.9628 H   0  0  0  0  0  0  0  0  0  0  0  0
   -3.5816    1.4643   -2.7000 H   0  0  0  0  0  0  0  0  0  0  0  0
   -3.4585    2.4476   -0.2957 H   0  0  0  0  0  0  0  0  0  0  0  0
   -4.9714    2.1781    0.6557 H   0  0  0  0  0  0  0  0  0  0  0  0
   -5.4530    3.9254   -0.5329 H   0  0  0  0  0  0  0  0  0  0  0  0
  1  2  2  3
  2  3  1  0
  2  4  1  0
  4  5  2  0
  5  6  1  0
  6  7  2  0
  7  8  1  0
  8  9  2  0
  9 10  1  0
 10 11  1  0
 10 12  2  0
 12 13  1  0
 13 14  2  0
 14 15  1  0
  7 16  1  0
 16 17  2  0
 17 18  1  0
 18 19  1  0
 19 20  2  0
 20 21  1  0
 21 22  2  0
 22 23  1  0
 23 24  2  0
 24 25  1  0
 25 26  2  0
 25 27  1  0
 27 28  1  0
 28 29  1  0
 28 30  1  0
 28 31  1  0
 31 32  1  0
 17  4  1  0
 24 19  1  0
 14  8  1  0
  1 33  1  0
  1 34  1  0
  3 35  1  0
  3 36  1  0
  3 37  1  0
  5 38  1  0
  9 39  1  0
 12 40  1  0
 13 41  1  0
 16 42  1  0
 18 43  1  0
 20 44  1  0
 21 45  1  0
 23 46  1  0
 27 47  1  0
 29 48  1  0
 29 49  1  0
 29 50  1  0
 30 51  1  0
 30 52  1  0
 30 53  1  0
 31 54  1  0
 31 55  1  0
 32 56  1  0
M  END
$$$$
