@<TRIPOS>MOLECULE
*****
 56 58 0 0 0
SMALL
GASTEIGER

@<TRIPOS>ATOM
      1 C           2.4491   -3.5693   -1.8706 C.2     1  UNL1       -0.0951
      2 C           1.7435   -2.5083   -1.5417 C.2     1  UNL1       -0.0472
      3 C           0.3481   -2.4437   -2.0689 C.3     1  UNL1       -0.0396
      4 C           2.3789   -1.4273   -0.7793 C.ar    1  UNL1        0.0166
      5 C           3.7778   -1.4190   -0.6971 C.ar    1  UNL1        0.0374
      6 N           4.4022   -0.4540   -0.0349 N.ar    1  UNL1       -0.2542
      7 C           3.7596    0.5579    0.5877 C.ar    1  UNL1        0.0755
      8 C           4.5585    1.5428    1.2698 C.ar    1  UNL1        0.0369
      9 C           4.0301    2.6215    1.9419 C.ar    1  UNL1       -0.0314
     10 C           4.8294    3.5627    2.5956 C.ar    1  UNL1        0.0418
     11 CL          4.0599    4.8974    3.4211 Cl      1  UNL1       -0.0835
     12 C           6.1845    3.4064    2.5663 C.ar    1  UNL1       -0.0406
     13 C           6.7564    2.3540    1.9137 C.ar    1  UNL1       -0.0244
     14 C           5.9393    1.4506    1.2836 C.ar    1  UNL1        0.1326
     15 F           6.5225    0.3960    0.6300 F       1  UNL1       -0.2048
     16 C           2.3939    0.5855    0.5325 C.ar    1  UNL1       -0.0138
     17 C           1.7243   -0.4226   -0.1574 C.ar    1  UNL1        0.0423
     18 N           0.2802   -0.3347   -0.1430 N.pl3   1  UNL1       -0.3133
     19 C          -0.5022   -1.2768    0.5540 C.ar    1  UNL1        0.0465
     20 C           0.1658   -2.2713    1.2812 C.ar    1  UNL1       -0.0217
     21 C          -0.5814   -3.1884    1.9499 C.ar    1  UNL1        0.0293
     22 N          -1.9205   -3.1631    1.9301 N.ar    1  UNL1       -0.2624
     23 C          -2.5705   -2.2127    1.2355 C.ar    1  UNL1        0.0415
     24 C          -1.8672   -1.2294    0.5180 C.ar    1  UNL1        0.0758
     25 C          -2.6153   -0.2290   -0.2201 C.2     1  UNL1        0.2478
     26 O          -2.0875    0.6710   -0.8949 O.2     1  UNL1       -0.2701
     27 N          -4.0502   -0.1863   -0.2390 N.am    1  UNL1       -0.3040
     28 C          -4.7824    0.8200   -0.9801 C.3     1  UNL1        0.0523
     29 C          -6.2718    0.6032   -0.8234 C.3     1  UNL1       -0.0418
     30 C          -4.4533    0.8577   -2.4307 C.3     1  UNL1       -0.0418
     31 C          -4.5113    2.1905   -0.3557 C.3     1  UNL1        0.0649
     32 O          -5.2432    3.1239   -1.1099 O.3     1  UNL1       -0.3929
     33 H           3.4459   -3.6994   -1.5402 H       1  UNL1        0.0538
     34 H           2.0130   -4.3583   -2.5067 H       1  UNL1        0.0538
     35 H          -0.0165   -1.4300   -2.1900 H       1  UNL1        0.0278
     36 H           0.4232   -2.9355   -3.1002 H       1  UNL1        0.0278
     37 H          -0.2678   -3.1452   -1.4999 H       1  UNL1        0.0278
     38 H           4.3738   -2.1886   -1.1826 H       1  UNL1        0.0836
     39 H           2.9632    2.7626    1.9767 H       1  UNL1        0.0639
     40 H           6.8029    4.1504    3.0824 H       1  UNL1        0.0633
     41 H           7.8427    2.2400    1.8976 H       1  UNL1        0.0647
     42 H           1.8599    1.3884    1.0249 H       1  UNL1        0.0658
     43 H          -0.0529    0.4735   -0.6838 H       1  UNL1        0.1522
     44 H           1.2431   -2.2426    1.2682 H       1  UNL1        0.0651
     45 H          -0.0714   -3.9704    2.5214 H       1  UNL1        0.0830
     46 H          -3.6581   -2.2109    1.2328 H       1  UNL1        0.0838
     47 H          -4.5982   -0.8751    0.2782 H       1  UNL1        0.1496
     48 H          -6.8454    1.5451   -0.9342 H       1  UNL1        0.0251
     49 H          -6.5959   -0.1477   -1.5663 H       1  UNL1        0.0251
     50 H          -6.5287    0.1862    0.1733 H       1  UNL1        0.0251
     51 H          -4.3824   -0.1868   -2.8362 H       1  UNL1        0.0251
     52 H          -5.3329    1.3236   -2.9628 H       1  UNL1        0.0251
     53 H          -3.5816    1.4643   -2.7000 H       1  UNL1        0.0251
     54 H          -3.4585    2.4476   -0.2957 H       1  UNL1        0.0578
     55 H          -4.9714    2.1781    0.6557 H       1  UNL1        0.0578
     56 H          -5.4530    3.9254   -0.5329 H       1  UNL1        0.2095
@<TRIPOS>BOND
     1     1     2    2
     2     2     3    1
     3     2     4    1
     4     4     5   ar
     5     5     6   ar
     6     6     7   ar
     7     7     8    1
     8     8     9   ar
     9     9    10   ar
    10    10    11    1
    11    10    12   ar
    12    12    13   ar
    13    13    14   ar
    14    14    15    1
    15     7    16   ar
    16    16    17   ar
    17    17    18    1
    18    18    19    1
    19    19    20   ar
    20    20    21   ar
    21    21    22   ar
    22    22    23   ar
    23    23    24   ar
    24    24    25    1
    25    25    26    2
    26    25    27   am
    27    27    28    1
    28    28    29    1
    29    28    30    1
    30    28    31    1
    31    31    32    1
    32    17     4   ar
    33    24    19   ar
    34    14     8   ar
    35     1    33    1
    36     1    34    1
    37     3    35    1
    38     3    36    1
    39     3    37    1
    40     5    38    1
    41     9    39    1
    42    12    40    1
    43    13    41    1
    44    16    42    1
    45    18    43    1
    46    20    44    1
    47    21    45    1
    48    23    46    1
    49    27    47    1
    50    29    48    1
    51    29    49    1
    52    29    50    1
    53    30    51    1
    54    30    52    1
    55    30    53    1
    56    31    54    1
    57    31    55    1
    58    32    56    1
