@<TRIPOS>MOLECULE
*****
 78 83 0 0 0
SMALL
GASTEIGER

@<TRIPOS>ATOM
      1 C           9.4594   -0.3863   -1.1364 C.3     1  UNL1       -0.0473
      2 C           8.4300    0.6935   -0.8832 C.3     1  UNL1        0.0314
      3 C           9.2246    1.9027   -0.3828 C.3     1  UNL1        0.0595
      4 O           8.4464    3.0421   -0.2819 O.3     1  UNL1       -0.3935
      5 N           7.3600    0.3602   -0.0521 N.3     1  UNL1       -0.2887
      6 C           6.4802   -0.6883   -0.3697 C.3     1  UNL1        0.0269
      7 C           6.8256   -1.8674    0.5431 C.3     1  UNL1       -0.0344
      8 C           7.7195   -1.2896    1.6098 C.3     1  UNL1       -0.0344
      9 C           7.6093    0.1920    1.3383 C.3     1  UNL1        0.0269
     10 C           6.3813    0.6859    2.0479 C.3     1  UNL1        0.0307
     11 N           5.1623    0.5190    1.2452 N.am    1  UNL1       -0.2945
     12 C           4.0069    1.1895    1.6975 C.2     1  UNL1        0.2482
     13 O           4.1090    1.9092    2.7619 O.2     1  UNL1       -0.2699
     14 C           2.7134    1.1368    1.0679 C.ar    1  UNL1        0.0551
     15 C           1.8963    0.0526    1.3248 C.ar    1  UNL1       -0.0449
     16 C           0.6111   -0.0138    0.7827 C.ar    1  UNL1       -0.0208
     17 C           0.1003    0.9736   -0.0174 C.ar    1  UNL1        0.1250
     18 N          -1.1856    1.0174   -0.5772 N.pl3   1  UNL1       -0.2685
     19 C          -2.1825    0.0459   -0.4178 C.ar    1  UNL1        0.2224
     20 N          -1.9881   -1.1166    0.1986 N.ar    1  UNL1       -0.2219
     21 C          -2.9394   -2.0448    0.3914 C.ar    1  UNL1        0.0419
     22 C          -4.2366   -1.7987   -0.0768 C.ar    1  UNL1        0.0378
     23 C          -5.4082   -2.4803   -0.0475 C.ar    1  UNL1       -0.0209
     24 C          -6.3642   -1.7002   -0.6738 C.ar    1  UNL1        0.1070
     25 C          -7.7870   -2.1162   -0.8182 C.2     1  UNL1        0.2627
     26 O          -8.3184   -2.3683   -1.9042 O.2     1  UNL1       -0.2684
     27 N          -8.4896   -2.2002    0.4157 N.am    1  UNL1       -0.3024
     28 C          -9.8798   -2.6037    0.3937 C.3     1  UNL1        0.0032
     29 C          -7.8913   -1.8955    1.6965 C.3     1  UNL1        0.0032
     30 N          -5.7741   -0.5811   -1.0675 N.ar    1  UNL1       -0.3180
     31 C          -6.3294    0.5331   -1.7651 C.3     1  UNL1        0.0366
     32 C          -5.5521    1.7844   -1.3775 C.3     1  UNL1       -0.0320
     33 C          -6.5591    2.9149   -1.4565 C.3     1  UNL1       -0.0511
     34 C          -7.8940    2.2854   -1.1164 C.3     1  UNL1       -0.0511
     35 C          -7.7614    0.8362   -1.5560 C.3     1  UNL1       -0.0320
     36 C          -4.4518   -0.6055   -0.7143 C.ar    1  UNL1        0.1466
     37 N          -3.4536    0.2744   -0.8726 N.ar    1  UNL1       -0.1962
     38 N           0.9533    2.0273   -0.2440 N.ar    1  UNL1       -0.2394
     39 C           2.1812    2.1142    0.2598 C.ar    1  UNL1        0.0418
     40 C           5.0723   -0.2637    0.0425 C.3     1  UNL1        0.0307
     41 H           9.9482   -0.7543   -0.2356 H       1  UNL1        0.0245
     42 H           9.0949   -1.1826   -1.8280 H       1  UNL1        0.0245
     43 H          10.2818    0.1333   -1.7162 H       1  UNL1        0.0245
     44 H           8.0455    0.9979   -1.8817 H       1  UNL1        0.0482
     45 H           9.9850    2.1076   -1.1929 H       1  UNL1        0.0572
     46 H           9.8111    1.6961    0.5094 H       1  UNL1        0.0572
     47 H           7.7876    3.0905   -0.9931 H       1  UNL1        0.2095
     48 H           6.4408   -1.0115   -1.4302 H       1  UNL1        0.0478
     49 H           5.9138   -2.2555    1.0786 H       1  UNL1        0.0281
     50 H           7.2606   -2.7180    0.0126 H       1  UNL1        0.0281
     51 H           8.7360   -1.6710    1.6161 H       1  UNL1        0.0281
     52 H           7.3250   -1.4612    2.6459 H       1  UNL1        0.0281
     53 H           8.4777    0.7571    1.7325 H       1  UNL1        0.0478
     54 H           6.1939    0.1450    3.0043 H       1  UNL1        0.0480
     55 H           6.4621    1.7836    2.2335 H       1  UNL1        0.0480
     56 H           2.2526   -0.7495    1.9451 H       1  UNL1        0.0627
     57 H           0.0013   -0.8766    1.0064 H       1  UNL1        0.0652
     58 H          -1.4094    1.8730   -1.1682 H       1  UNL1        0.1564
     59 H          -2.7625   -2.9834    0.8918 H       1  UNL1        0.0838
     60 H          -5.5816   -3.4584    0.3845 H       1  UNL1        0.0647
     61 H         -10.2649   -2.7599    1.4346 H       1  UNL1        0.0428
     62 H         -10.4652   -1.7853   -0.0732 H       1  UNL1        0.0428
     63 H         -10.0166   -3.5611   -0.1427 H       1  UNL1        0.0428
     64 H          -6.9877   -1.2578    1.4597 H       1  UNL1        0.0428
     65 H          -7.6092   -2.7557    2.2979 H       1  UNL1        0.0428
     66 H          -8.5923   -1.1793    2.1926 H       1  UNL1        0.0428
     67 H          -6.1158    0.4141   -2.8699 H       1  UNL1        0.0528
     68 H          -5.2210    1.7561   -0.3163 H       1  UNL1        0.0285
     69 H          -4.6771    1.9668   -2.0008 H       1  UNL1        0.0285
     70 H          -6.6422    3.3544   -2.4632 H       1  UNL1        0.0266
     71 H          -6.3861    3.7043   -0.6986 H       1  UNL1        0.0266
     72 H          -8.1004    2.3341   -0.0174 H       1  UNL1        0.0266
     73 H          -8.7548    2.7633   -1.6181 H       1  UNL1        0.0266
     74 H          -8.3092    0.2468   -0.8261 H       1  UNL1        0.0285
     75 H          -8.3032    0.7765   -2.5459 H       1  UNL1        0.0285
     76 H           2.7896    2.9908    0.0233 H       1  UNL1        0.0838
     77 H           4.5648    0.2728   -0.7877 H       1  UNL1        0.0480
     78 H           4.5304   -1.2131    0.2959 H       1  UNL1        0.0480
@<TRIPOS>BOND
     1     1     2    1
     2     2     3    1
     3     3     4    1
     4     2     5    1
     5     5     6    1
     6     6     7    1
     7     7     8    1
     8     8     9    1
     9     9    10    1
    10    10    11    1
    11    11    12   am
    12    12    13    2
    13    12    14    1
    14    14    15   ar
    15    15    16   ar
    16    16    17   ar
    17    17    18    1
    18    18    19    1
    19    19    20   ar
    20    20    21   ar
    21    21    22   ar
    22    22    23   ar
    23    23    24   ar
    24    24    25    1
    25    25    26    2
    26    25    27   am
    27    27    28    1
    28    27    29    1
    29    24    30   ar
    30    30    31    1
    31    31    32    1
    32    32    33    1
    33    33    34    1
    34    34    35    1
    35    30    36   ar
    36    36    37   ar
    37    17    38   ar
    38    38    39   ar
    39    11    40    1
    40     9     5    1
    41    39    14   ar
    42    40     6    1
    43    37    19   ar
    44    36    22   ar
    45    35    31    1
    46     1    41    1
    47     1    42    1
    48     1    43    1
    49     2    44    1
    50     3    45    1
    51     3    46    1
    52     4    47    1
    53     6    48    1
    54     7    49    1
    55     7    50    1
    56     8    51    1
    57     8    52    1
    58     9    53    1
    59    10    54    1
    60    10    55    1
    61    15    56    1
    62    16    57    1
    63    18    58    1
    64    21    59    1
    65    23    60    1
    66    28    61    1
    67    28    62    1
    68    28    63    1
    69    29    64    1
    70    29    65    1
    71    29    66    1
    72    31    67    1
    73    32    68    1
    74    32    69    1
    75    33    70    1
    76    33    71    1
    77    34    72    1
    78    34    73    1
    79    35    74    1
    80    35    75    1
    81    39    76    1
    82    40    77    1
    83    40    78    1
