
     RDKit          3D

 78 83  0  0  0  0  0  0  0  0999 V2000
    9.4594   -0.3863   -1.1364 C   0  0  0  0  0  0  0  0  0  0  0  0
    8.4300    0.6935   -0.8832 C   0  0  0  0  0  0  0  0  0  0  0  0
    9.2246    1.9027   -0.3828 C   0  0  0  0  0  0  0  0  0  0  0  0
    8.4464    3.0421   -0.2819 O   0  0  0  0  0  0  0  0  0  0  0  0
    7.3600    0.3602   -0.0521 N   0  0  0  0  0  0  0  0  0  0  0  0
    6.4802   -0.6883   -0.3697 C   0  0  0  0  0  0  0  0  0  0  0  0
    6.8256   -1.8674    0.5431 C   0  0  0  0  0  0  0  0  0  0  0  0
    7.7195   -1.2896    1.6098 C   0  0  0  0  0  0  0  0  0  0  0  0
    7.6093    0.1920    1.3383 C   0  0  0  0  0  0  0  0  0  0  0  0
    6.3813    0.6859    2.0479 C   0  0  0  0  0  0  0  0  0  0  0  0
    5.1623    0.5190    1.2452 N   0  0  0  0  0  0  0  0  0  0  0  0
    4.0069    1.1895    1.6975 C   0  0  0  0  0  0  0  0  0  0  0  0
    4.1090    1.9092    2.7619 O   0  0  0  0  0  0  0  0  0  0  0  0
    2.7134    1.1368    1.0679 C   0  0  0  0  0  0  0  0  0  0  0  0
    1.8963    0.0526    1.3248 C   0  0  0  0  0  0  0  0  0  0  0  0
    0.6111   -0.0138    0.7827 C   0  0  0  0  0  0  0  0  0  0  0  0
    0.1003    0.9736   -0.0174 C   0  0  0  0  0  0  0  0  0  0  0  0
   -1.1856    1.0174   -0.5772 N   0  0  0  0  0  0  0  0  0  0  0  0
   -2.1825    0.0459   -0.4178 C   0  0  0  0  0  0  0  0  0  0  0  0
   -1.9881   -1.1166    0.1986 N   0  0  0  0  0  0  0  0  0  0  0  0
   -2.9394   -2.0448    0.3914 C   0  0  0  0  0  0  0  0  0  0  0  0
   -4.2366   -1.7987   -0.0768 C   0  0  0  0  0  0  0  0  0  0  0  0
   -5.4082   -2.4803   -0.0475 C   0  0  0  0  0  0  0  0  0  0  0  0
   -6.3642   -1.7002   -0.6738 C   0  0  0  0  0  0  0  0  0  0  0  0
   -7.7870   -2.1162   -0.8182 C   0  0  0  0  0  0  0  0  0  0  0  0
   -8.3184   -2.3683   -1.9042 O   0  0  0  0  0  0  0  0  0  0  0  0
   -8.4896   -2.2002    0.4157 N   0  0  0  0  0  0  0  0  0  0  0  0
   -9.8798   -2.6037    0.3937 C   0  0  0  0  0  0  0  0  0  0  0  0
   -7.8913   -1.8955    1.6965 C   0  0  0  0  0  0  0  0  0  0  0  0
   -5.7741   -0.5811   -1.0675 N   0  0  0  0  0  0  0  0  0  0  0  0
   -6.3294    0.5331   -1.7651 C   0  0  0  0  0  0  0  0  0  0  0  0
   -5.5521    1.7844   -1.3775 C   0  0  0  0  0  0  0  0  0  0  0  0
   -6.5591    2.9149   -1.4565 C   0  0  0  0  0  0  0  0  0  0  0  0
   -7.8940    2.2854   -1.1164 C   0  0  0  0  0  0  0  0  0  0  0  0
   -7.7614    0.8362   -1.5560 C   0  0  0  0  0  0  0  0  0  0  0  0
   -4.4518   -0.6055   -0.7143 C   0  0  0  0  0  0  0  0  0  0  0  0
   -3.4536    0.2744   -0.8726 N   0  0  0  0  0  0  0  0  0  0  0  0
    0.9533    2.0273   -0.2440 N   0  0  0  0  0  0  0  0  0  0  0  0
    2.1812    2.1142    0.2598 C   0  0  0  0  0  0  0  0  0  0  0  0
    5.0723   -0.2637    0.0425 C   0  0  0  0  0  0  0  0  0  0  0  0
    9.9482   -0.7543   -0.2356 H   0  0  0  0  0  0  0  0  0  0  0  0
    9.0949   -1.1826   -1.8280 H   0  0  0  0  0  0  0  0  0  0  0  0
   10.2818    0.1333   -1.7162 H   0  0  0  0  0  0  0  0  0  0  0  0
    8.0455    0.9979   -1.8817 H   0  0  0  0  0  0  0  0  0  0  0  0
    9.9850    2.1076   -1.1929 H   0  0  0  0  0  0  0  0  0  0  0  0
    9.8111    1.6961    0.5094 H   0  0  0  0  0  0  0  0  0  0  0  0
    7.7876    3.0905   -0.9931 H   0  0  0  0  0  0  0  0  0  0  0  0
    6.4408   -1.0115   -1.4302 H   0  0  0  0  0  0  0  0  0  0  0  0
    5.9138   -2.2555    1.0786 H   0  0  0  0  0  0  0  0  0  0  0  0
    7.2606   -2.7180    0.0126 H   0  0  0  0  0  0  0  0  0  0  0  0
    8.7360   -1.6710    1.6161 H   0  0  0  0  0  0  0  0  0  0  0  0
    7.3250   -1.4612    2.6459 H   0  0  0  0  0  0  0  0  0  0  0  0
    8.4777    0.7571    1.7325 H   0  0  0  0  0  0  0  0  0  0  0  0
    6.1939    0.1450    3.0043 H   0  0  0  0  0  0  0  0  0  0  0  0
    6.4621    1.7836    2.2335 H   0  0  0  0  0  0  0  0  0  0  0  0
    2.2526   -0.7495    1.9451 H   0  0  0  0  0  0  0  0  0  0  0  0
    0.0013   -0.8766    1.0064 H   0  0  0  0  0  0  0  0  0  0  0  0
   -1.4094    1.8730   -1.1682 H   0  0  0  0  0  0  0  0  0  0  0  0
   -2.7625   -2.9834    0.8918 H   0  0  0  0  0  0  0  0  0  0  0  0
   -5.5816   -3.4584    0.3845 H   0  0  0  0  0  0  0  0  0  0  0  0
  -10.2649   -2.7599    1.4346 H   0  0  0  0  0  0  0  0  0  0  0  0
  -10.4652   -1.7853   -0.0732 H   0  0  0  0  0  0  0  0  0  0  0  0
  -10.0166   -3.5611   -0.1427 H   0  0  0  0  0  0  0  0  0  0  0  0
   -6.9877   -1.2578    1.4597 H   0  0  0  0  0  0  0  0  0  0  0  0
   -7.6092   -2.7557    2.2979 H   0  0  0  0  0  0  0  0  0  0  0  0
   -8.5923   -1.1793    2.1926 H   0  0  0  0  0  0  0  0  0  0  0  0
   -6.1158    0.4141   -2.8699 H   0  0  0  0  0  0  0  0  0  0  0  0
   -5.2210    1.7561   -0.3163 H   0  0  0  0  0  0  0  0  0  0  0  0
   -4.6771    1.9668   -2.0008 H   0  0  0  0  0  0  0  0  0  0  0  0
   -6.6422    3.3544   -2.4632 H   0  0  0  0  0  0  0  0  0  0  0  0
   -6.3861    3.7043   -0.6986 H   0  0  0  0  0  0  0  0  0  0  0  0
   -8.1004    2.3341   -0.0174 H   0  0  0  0  0  0  0  0  0  0  0  0
   -8.7548    2.7633   -1.6181 H   0  0  0  0  0  0  0  0  0  0  0  0
   -8.3092    0.2468   -0.8261 H   0  0  0  0  0  0  0  0  0  0  0  0
   -8.3032    0.7765   -2.5459 H   0  0  0  0  0  0  0  0  0  0  0  0
    2.7896    2.9908    0.0233 H   0  0  0  0  0  0  0  0  0  0  0  0
    4.5648    0.2728   -0.7877 H   0  0  0  0  0  0  0  0  0  0  0  0
    4.5304   -1.2131    0.2959 H   0  0  0  0  0  0  0  0  0  0  0  0
  1  2  1  0
  2  3  1  0
  3  4  1  0
  2  5  1  0
  5  6  1  0
  6  7  1  0
  7  8  1  0
  8  9  1  0
  9 10  1  0
 10 11  1  0
 11 12  1  0
 12 13  2  0
 12 14  1  0
 14 15  2  0
 15 16  1  0
 16 17  2  0
 17 18  1  0
 18 19  1  0
 19 20  2  0
 20 21  1  0
 21 22  2  0
 22 23  1  0
 23 24  2  0
 24 25  1  0
 25 26  2  0
 25 27  1  0
 27 28  1  0
 27 29  1  0
 24 30  1  0
 30 31  1  0
 31 32  1  0
 32 33  1  0
 33 34  1  0
 34 35  1  0
 30 36  1  0
 36 37  2  0
 17 38  1  0
 38 39  2  0
 11 40  1  0
  9  5  1  0
 39 14  1  0
 40  6  1  0
 37 19  1  0
 36 22  1  0
 35 31  1  0
  1 41  1  0
  1 42  1  0
  1 43  1  0
  2 44  1  0
  3 45  1  0
  3 46  1  0
  4 47  1  0
  6 48  1  0
  7 49  1  0
  7 50  1  0
  8 51  1  0
  8 52  1  0
  9 53  1  0
 10 54  1  0
 10 55  1  0
 15 56  1  0
 16 57  1  0
 18 58  1  0
 21 59  1  0
 23 60  1  0
 28 61  1  0
 28 62  1  0
 28 63  1  0
 29 64  1  0
 29 65  1  0
 29 66  1  0
 31 67  1  0
 32 68  1  0
 32 69  1  0
 33 70  1  0
 33 71  1  0
 34 72  1  0
 34 73  1  0
 35 74  1  0
 35 75  1  0
 39 76  1  0
 40 77  1  0
 40 78  1  0
M  END
$$$$
