
     RDKit          3D

 70 74  0  0  0  0  0  0  0  0999 V2000
   -3.3880    0.6727    1.8946 O   0  0  0  0  0  0  0  0  0  0  0  0
   -3.4123    1.0051    0.6801 C   0  0  0  0  0  0  0  0  0  0  0  0
   -3.5123   -0.0485   -0.2654 N   0  0  0  0  0  0  0  0  0  0  0  0
   -3.5869   -1.4564    0.0958 C   0  0  0  0  0  0  0  0  0  0  0  0
   -4.9298   -1.9443   -0.4030 C   0  0  0  0  0  0  0  0  0  0  0  0
   -5.1067   -3.3487   -0.2517 N   0  0  0  0  0  0  0  0  0  0  0  0
   -4.8352   -4.1187   -1.4189 C   0  0  0  0  0  0  0  0  0  0  0  0
   -3.3719   -4.2626   -1.7308 C   0  0  0  0  0  0  0  0  0  0  0  0
   -2.5660   -3.6621   -0.6048 C   0  0  0  0  0  0  0  0  0  0  0  0
   -3.0308   -4.2507    0.6857 C   0  0  0  0  0  0  0  0  0  0  0  0
   -4.4596   -3.8950    0.9206 C   0  0  0  0  0  0  0  0  0  0  0  0
   -2.5133   -2.1629   -0.6441 C   0  0  2  0  0  0  0  0  0  0  0  0
   -1.2089   -1.7699   -0.2748 O   0  0  0  0  0  0  0  0  0  0  0  0
   -0.3005   -1.1612   -1.0808 C   0  0  0  0  0  0  0  0  0  0  0  0
   -0.5922   -0.9051   -2.2545 O   0  0  0  0  0  0  0  0  0  0  0  0
    1.0252   -0.8008   -0.5814 C   0  0  0  0  0  0  0  0  0  0  0  0
    1.4033   -1.0643    0.7181 C   0  0  0  0  0  0  0  0  0  0  0  0
    2.6494   -0.7205    1.1789 C   0  0  0  0  0  0  0  0  0  0  0  0
    2.9559   -1.0194    2.5004 O   0  0  0  0  0  0  0  0  0  0  0  0
    3.6144   -0.0894    0.3871 C   0  0  0  0  0  0  0  0  0  0  0  0
    4.9305    0.1342    0.9369 C   0  0  0  0  0  0  0  0  0  0  0  0
    5.2415   -0.6688    1.9328 O   0  0  0  0  0  0  0  0  0  0  0  0
    5.9493    1.0591    0.5855 C   0  0  0  0  0  0  0  0  0  0  0  0
    7.2764    0.5885    0.6546 C   0  0  0  0  0  0  0  0  0  0  0  0
    7.5353   -0.7279    1.0188 O   0  0  0  0  0  0  0  0  0  0  0  0
    8.3584    1.3825    0.3739 C   0  0  0  0  0  0  0  0  0  0  0  0
    8.1878    2.6916    0.0077 C   0  0  0  0  0  0  0  0  0  0  0  0
    6.9170    3.1634   -0.0606 C   0  0  0  0  0  0  0  0  0  0  0  0
    5.7971    2.3584    0.2286 C   0  0  0  0  0  0  0  0  0  0  0  0
    4.5503    3.0752    0.3074 C   0  0  0  0  0  0  0  0  0  0  0  0
    3.5404    2.5693    0.8115 O   0  0  0  0  0  0  0  0  0  0  0  0
    4.4257    4.3749   -0.1834 O   0  0  0  0  0  0  0  0  0  0  0  0
    3.2166    0.1635   -0.9081 C   0  0  0  0  0  0  0  0  0  0  0  0
    4.1233    0.7838   -1.7614 O   0  0  0  0  0  0  0  0  0  0  0  0
    1.9518   -0.1803   -1.3904 C   0  0  0  0  0  0  0  0  0  0  0  0
   -3.3391    2.4080    0.3177 C   0  0  0  0  0  0  0  0  0  0  0  0
   -3.3564    2.8336   -0.9920 C   0  0  0  0  0  0  0  0  0  0  0  0
   -3.2856    4.1897   -1.2938 C   0  0  0  0  0  0  0  0  0  0  0  0
   -3.1964    5.1371   -0.2813 C   0  0  0  0  0  0  0  0  0  0  0  0
   -3.1252    6.4914   -0.5640 O   0  0  0  0  0  0  0  0  0  0  0  0
   -3.1795    4.7079    1.0196 C   0  0  0  0  0  0  0  0  0  0  0  0
   -3.2505    3.3488    1.3161 C   0  0  0  0  0  0  0  0  0  0  0  0
   -3.5337    0.1941   -1.2701 H   0  0  0  0  0  0  0  0  0  0  0  0
   -3.5687   -1.6012    1.1891 H   0  0  0  0  0  0  0  0  0  0  0  0
   -5.0093   -1.7131   -1.4874 H   0  0  0  0  0  0  0  0  0  0  0  0
   -5.7006   -1.4091    0.1696 H   0  0  0  0  0  0  0  0  0  0  0  0
   -5.2279   -5.1599   -1.2149 H   0  0  0  0  0  0  0  0  0  0  0  0
   -5.4255   -3.7821   -2.2977 H   0  0  0  0  0  0  0  0  0  0  0  0
   -3.1963   -3.7347   -2.6947 H   0  0  0  0  0  0  0  0  0  0  0  0
   -3.0649   -5.3354   -1.7949 H   0  0  0  0  0  0  0  0  0  0  0  0
   -1.5120   -4.0601   -0.7774 H   0  0  0  0  0  0  0  0  0  0  0  0
   -2.9365   -5.3703    0.5624 H   0  0  0  0  0  0  0  0  0  0  0  0
   -2.3672   -4.0127    1.5438 H   0  0  0  0  0  0  0  0  0  0  0  0
   -5.0367   -4.8340    1.1733 H   0  0  0  0  0  0  0  0  0  0  0  0
   -4.6413   -3.2242    1.7807 H   0  0  0  0  0  0  0  0  0  0  0  0
   -2.6152   -1.8644   -1.7286 H   0  0  0  0  0  0  0  0  0  0  0  0
    0.6926   -1.5599    1.3991 H   0  0  0  0  0  0  0  0  0  0  0  0
    3.3533   -1.9060    2.7853 H   0  0  0  0  0  0  0  0  0  0  0  0
    7.3409   -1.4263    0.2961 H   0  0  0  0  0  0  0  0  0  0  0  0
    9.3742    1.0009    0.4331 H   0  0  0  0  0  0  0  0  0  0  0  0
    9.0444    3.3231   -0.2178 H   0  0  0  0  0  0  0  0  0  0  0  0
    6.7865    4.2002   -0.3514 H   0  0  0  0  0  0  0  0  0  0  0  0
    3.5141    4.8034   -0.3157 H   0  0  0  0  0  0  0  0  0  0  0  0
    4.9494    0.3473   -2.1167 H   0  0  0  0  0  0  0  0  0  0  0  0
    1.7322    0.0612   -2.4229 H   0  0  0  0  0  0  0  0  0  0  0  0
   -3.4240    2.1450   -1.8202 H   0  0  0  0  0  0  0  0  0  0  0  0
   -3.2949    4.5723   -2.2942 H   0  0  0  0  0  0  0  0  0  0  0  0
   -3.9927    6.9549   -0.8397 H   0  0  0  0  0  0  0  0  0  0  0  0
   -3.1112    5.4228    1.8256 H   0  0  0  0  0  0  0  0  0  0  0  0
   -3.2316    3.0873    2.3668 H   0  0  0  0  0  0  0  0  0  0  0  0
  1  2  2  0
  2  3  1  0
  3  4  1  0
  4  5  1  0
  5  6  1  0
  6  7  1  0
  7  8  1  0
  8  9  1  0
  9 10  1  0
 10 11  1  0
  9 12  1  0
 12 13  1  0
 13 14  1  0
 14 15  2  0
 14 16  1  0
 16 17  2  0
 17 18  1  0
 18 19  1  0
 18 20  2  0
 20 21  1  0
 21 22  2  0
 21 23  1  0
 23 24  2  0
 24 25  1  0
 24 26  1  0
 26 27  2  0
 27 28  1  0
 28 29  2  0
 29 30  1  0
 30 31  2  0
 30 32  1  0
 20 33  1  0
 33 34  1  0
 33 35  2  0
  2 36  1  0
 36 37  2  0
 37 38  1  0
 38 39  2  0
 39 40  1  0
 39 41  1  0
 41 42  2  0
 12  4  1  0
 35 16  1  0
 42 36  1  0
 11  6  1  0
 29 23  1  0
  3 43  1  0
  4 44  1  0
  5 45  1  0
  5 46  1  0
  7 47  1  0
  7 48  1  0
  8 49  1  0
  8 50  1  0
  9 51  1  0
 10 52  1  0
 10 53  1  0
 11 54  1  0
 11 55  1  0
 12 56  1  6
 17 57  1  0
 19 58  1  0
 25 59  1  0
 26 60  1  0
 27 61  1  0
 28 62  1  0
 32 63  1  0
 34 64  1  0
 35 65  1  0
 37 66  1  0
 38 67  1  0
 40 68  1  0
 41 69  1  0
 42 70  1  0
M  END
$$$$
