@<TRIPOS>MOLECULE
*****
 70 74 0 0 0
SMALL
GASTEIGER

@<TRIPOS>ATOM
      1 O          -3.3880    0.6727    1.8946 O.2     1  UNL1       -0.2702
      2 C          -3.4123    1.0051    0.6801 C.2     1  UNL1        0.2444
      3 N          -3.5123   -0.0485   -0.2654 N.am    1  UNL1       -0.3037
      4 C          -3.5869   -1.4564    0.0958 C.3     1  UNL1        0.0733
      5 C          -4.9298   -1.9443   -0.4030 C.3     1  UNL1        0.0208
      6 N          -5.1067   -3.3487   -0.2517 N.3     1  UNL1       -0.3004
      7 C          -4.8352   -4.1187   -1.4189 C.3     1  UNL1       -0.0007
      8 C          -3.3719   -4.2626   -1.7308 C.3     1  UNL1       -0.0339
      9 C          -2.5660   -3.6621   -0.6048 C.3     1  UNL1        0.0003
     10 C          -3.0308   -4.2507    0.6857 C.3     1  UNL1       -0.0339
     11 C          -4.4596   -3.8950    0.9206 C.3     1  UNL1       -0.0007
     12 C          -2.5133   -2.1629   -0.6441 C.3     1  UNL1        0.1257
     13 O          -1.2089   -1.7699   -0.2748 O.3     1  UNL1       -0.4557
     14 C          -0.3005   -1.1612   -1.0808 C.2     1  UNL1        0.3397
     15 O          -0.5922   -0.9051   -2.2545 O.2     1  UNL1       -0.2449
     16 C           1.0252   -0.8008   -0.5814 C.ar    1  UNL1        0.0659
     17 C           1.4033   -1.0643    0.7181 C.ar    1  UNL1       -0.0053
     18 C           2.6494   -0.7205    1.1789 C.ar    1  UNL1        0.1320
     19 O           2.9559   -1.0194    2.5004 O.3     1  UNL1       -0.5059
     20 C           3.6144   -0.0894    0.3871 C.ar    1  UNL1        0.1050
     21 C           4.9305    0.1342    0.9369 C.2     1  UNL1        0.2044
     22 O           5.2415   -0.6688    1.9328 O.2     1  UNL1       -0.2863
     23 C           5.9493    1.0591    0.5855 C.ar    1  UNL1        0.0778
     24 C           7.2764    0.5885    0.6546 C.ar    1  UNL1        0.1285
     25 O           7.5353   -0.7279    1.0188 O.3     1  UNL1       -0.5060
     26 C           8.3584    1.3825    0.3739 C.ar    1  UNL1       -0.0194
     27 C           8.1878    2.6916    0.0077 C.ar    1  UNL1       -0.0575
     28 C           6.9170    3.1634   -0.0606 C.ar    1  UNL1       -0.0468
     29 C           5.7971    2.3584    0.2286 C.ar    1  UNL1        0.0731
     30 C           4.5503    3.0752    0.3074 C.2     1  UNL1        0.3376
     31 O           3.5404    2.5693    0.8115 O.2     1  UNL1       -0.2451
     32 O           4.4257    4.3749   -0.1834 O.3     1  UNL1       -0.4771
     33 C           3.2166    0.1635   -0.9081 C.ar    1  UNL1        0.1320
     34 O           4.1233    0.7838   -1.7614 O.3     1  UNL1       -0.5059
     35 C           1.9518   -0.1803   -1.3904 C.ar    1  UNL1       -0.0053
     36 C          -3.3391    2.4080    0.3177 C.ar    1  UNL1        0.0369
     37 C          -3.3564    2.8336   -0.9920 C.ar    1  UNL1       -0.0462
     38 C          -3.2856    4.1897   -1.2938 C.ar    1  UNL1       -0.0195
     39 C          -3.1964    5.1371   -0.2813 C.ar    1  UNL1        0.1169
     40 O          -3.1252    6.4914   -0.5640 O.3     1  UNL1       -0.5068
     41 C          -3.1795    4.7079    1.0196 C.ar    1  UNL1       -0.0195
     42 C          -3.2505    3.3488    1.3161 C.ar    1  UNL1       -0.0462
     43 H          -3.5337    0.1941   -1.2701 H       1  UNL1        0.1495
     44 H          -3.5687   -1.6012    1.1891 H       1  UNL1        0.0548
     45 H          -5.0093   -1.7131   -1.4874 H       1  UNL1        0.0446
     46 H          -5.7006   -1.4091    0.1696 H       1  UNL1        0.0446
     47 H          -5.2279   -5.1599   -1.2149 H       1  UNL1        0.0427
     48 H          -5.4255   -3.7821   -2.2977 H       1  UNL1        0.0427
     49 H          -3.1963   -3.7347   -2.6947 H       1  UNL1        0.0281
     50 H          -3.0649   -5.3354   -1.7949 H       1  UNL1        0.0281
     51 H          -1.5120   -4.0601   -0.7774 H       1  UNL1        0.0338
     52 H          -2.9365   -5.3703    0.5624 H       1  UNL1        0.0281
     53 H          -2.3672   -4.0127    1.5438 H       1  UNL1        0.0281
     54 H          -5.0367   -4.8340    1.1733 H       1  UNL1        0.0427
     55 H          -4.6413   -3.2242    1.7807 H       1  UNL1        0.0427
     56 H          -2.6152   -1.8644   -1.7286 H       1  UNL1        0.0756
     57 H           0.6926   -1.5599    1.3991 H       1  UNL1        0.0662
     58 H           3.3533   -1.9060    2.7853 H       1  UNL1        0.2922
     59 H           7.3409   -1.4263    0.2961 H       1  UNL1        0.2922
     60 H           9.3742    1.0009    0.4331 H       1  UNL1        0.0654
     61 H           9.0444    3.3231   -0.2178 H       1  UNL1        0.0619
     62 H           6.7865    4.2002   -0.3514 H       1  UNL1        0.0626
     63 H           3.5141    4.8034   -0.3157 H       1  UNL1        0.2954
     64 H           4.9494    0.3473   -2.1167 H       1  UNL1        0.2922
     65 H           1.7322    0.0612   -2.4229 H       1  UNL1        0.0662
     66 H          -3.4240    2.1450   -1.8202 H       1  UNL1        0.0626
     67 H          -3.2949    4.5723   -2.2942 H       1  UNL1        0.0654
     68 H          -3.9927    6.9549   -0.8397 H       1  UNL1        0.2921
     69 H          -3.1112    5.4228    1.8256 H       1  UNL1        0.0654
     70 H          -3.2316    3.0873    2.3668 H       1  UNL1        0.0626
@<TRIPOS>BOND
     1     1     2    2
     2     2     3   am
     3     3     4    1
     4     4     5    1
     5     5     6    1
     6     6     7    1
     7     7     8    1
     8     8     9    1
     9     9    10    1
    10    10    11    1
    11     9    12    1
    12    12    13    1
    13    13    14    1
    14    14    15    2
    15    14    16    1
    16    16    17   ar
    17    17    18   ar
    18    18    19    1
    19    18    20   ar
    20    20    21    1
    21    21    22    2
    22    21    23    1
    23    23    24   ar
    24    24    25    1
    25    24    26   ar
    26    26    27   ar
    27    27    28   ar
    28    28    29   ar
    29    29    30    1
    30    30    31    2
    31    30    32    1
    32    20    33   ar
    33    33    34    1
    34    33    35   ar
    35     2    36    1
    36    36    37   ar
    37    37    38   ar
    38    38    39   ar
    39    39    40    1
    40    39    41   ar
    41    41    42   ar
    42    12     4    1
    43    35    16   ar
    44    42    36   ar
    45    11     6    1
    46    29    23   ar
    47     3    43    1
    48     4    44    1
    49     5    45    1
    50     5    46    1
    51     7    47    1
    52     7    48    1
    53     8    49    1
    54     8    50    1
    55     9    51    1
    56    10    52    1
    57    10    53    1
    58    11    54    1
    59    11    55    1
    60    12    56    1
    61    17    57    1
    62    19    58    1
    63    25    59    1
    64    26    60    1
    65    27    61    1
    66    28    62    1
    67    32    63    1
    68    34    64    1
    69    35    65    1
    70    37    66    1
    71    38    67    1
    72    40    68    1
    73    41    69    1
    74    42    70    1
