
     RDKit          3D

 44 47  0  0  0  0  0  0  0  0999 V2000
   -6.4224   -0.6002   -1.1774 O   0  0  0  0  0  0  0  0  0  0  0  0
   -5.8890   -0.5182    0.1003 C   0  0  0  0  0  0  0  0  0  0  0  0
   -5.7084    0.9081    0.5688 C   0  0  0  0  0  0  0  0  0  0  0  0
   -4.4021    1.4964    0.1522 C   0  0  0  0  0  0  0  0  0  0  0  0
   -3.2662    0.6215    0.3781 N   0  0  0  0  0  0  0  0  0  0  0  0
   -2.0735    1.3560    0.0923 C   0  0  0  0  0  0  0  0  0  0  0  0
   -0.8751    0.5051    0.3083 C   0  0  0  0  0  0  0  0  0  0  0  0
   -0.3611   -0.2434   -0.7260 C   0  0  0  0  0  0  0  0  0  0  0  0
    0.7352   -1.0288   -0.5495 C   0  0  0  0  0  0  0  0  0  0  0  0
    1.3221   -1.0541    0.7057 C   0  0  0  0  0  0  0  0  0  0  0  0
    2.4369   -1.8599    0.8642 O   0  0  0  0  0  0  0  0  0  0  0  0
    3.6506   -1.3464    0.6344 C   0  0  0  0  0  0  0  0  0  0  0  0
    4.2190   -0.2603    0.2823 N   0  0  0  0  0  0  0  0  0  0  0  0
    5.4693   -0.0459    0.1366 C   0  0  0  0  0  0  0  0  0  0  0  0
    6.1019    1.1539   -0.2528 C   0  0  0  0  0  0  0  0  0  0  0  0
    7.4462    1.2344   -0.3660 C   0  0  0  0  0  0  0  0  0  0  0  0
    8.3053    0.1992   -0.1241 C   0  0  0  0  0  0  0  0  0  0  0  0
    7.7065   -1.0048    0.2642 C   0  0  0  0  0  0  0  0  0  0  0  0
    6.3630   -1.0878    0.3781 C   0  0  0  0  0  0  0  0  0  0  0  0
    5.2101   -2.3833    0.8300 S   0  0  0  0  0  0  0  0  0  0  0  0
    0.8202   -0.3092    1.7566 C   0  0  0  0  0  0  0  0  0  0  0  0
   -0.2910    0.4868    1.5777 C   0  0  0  0  0  0  0  0  0  0  0  0
   -3.4311   -0.5827   -0.3761 C   0  0  0  0  0  0  0  0  0  0  0  0
   -4.6386   -1.3268    0.2107 C   0  0  0  0  0  0  0  0  0  0  0  0
   -7.3332   -0.2024   -1.2101 H   0  0  0  0  0  0  0  0  0  0  0  0
   -6.6431   -0.9772    0.7875 H   0  0  0  0  0  0  0  0  0  0  0  0
   -6.5153    1.5023    0.0599 H   0  0  0  0  0  0  0  0  0  0  0  0
   -5.8913    1.0324    1.6529 H   0  0  0  0  0  0  0  0  0  0  0  0
   -4.3894    1.8108   -0.9142 H   0  0  0  0  0  0  0  0  0  0  0  0
   -4.2155    2.4096    0.7641 H   0  0  0  0  0  0  0  0  0  0  0  0
   -2.0243    1.7205   -0.9596 H   0  0  0  0  0  0  0  0  0  0  0  0
   -1.9920    2.2219    0.7734 H   0  0  0  0  0  0  0  0  0  0  0  0
   -0.8758   -0.1715   -1.6809 H   0  0  0  0  0  0  0  0  0  0  0  0
    1.1244   -1.6141   -1.3871 H   0  0  0  0  0  0  0  0  0  0  0  0
    5.5046    2.0499   -0.4720 H   0  0  0  0  0  0  0  0  0  0  0  0
    7.8849    2.1987   -0.6743 H   0  0  0  0  0  0  0  0  0  0  0  0
    9.3546    0.3275   -0.2314 H   0  0  0  0  0  0  0  0  0  0  0  0
    8.3033   -1.8749    0.4759 H   0  0  0  0  0  0  0  0  0  0  0  0
    1.3187   -0.3688    2.7107 H   0  0  0  0  0  0  0  0  0  0  0  0
   -0.6777    1.0616    2.3900 H   0  0  0  0  0  0  0  0  0  0  0  0
   -2.5510   -1.2507   -0.2549 H   0  0  0  0  0  0  0  0  0  0  0  0
   -3.6287   -0.3065   -1.4272 H   0  0  0  0  0  0  0  0  0  0  0  0
   -4.3824   -1.5997    1.2549 H   0  0  0  0  0  0  0  0  0  0  0  0
   -4.7986   -2.2790   -0.3458 H   0  0  0  0  0  0  0  0  0  0  0  0
  1  2  1  0
  2  3  1  0
  3  4  1  0
  4  5  1  0
  5  6  1  0
  6  7  1  0
  7  8  2  0
  8  9  1  0
  9 10  2  0
 10 11  1  0
 11 12  1  0
 12 13  2  0
 13 14  1  0
 14 15  2  0
 15 16  1  0
 16 17  2  0
 17 18  1  0
 18 19  2  0
 19 20  1  0
 10 21  1  0
 21 22  2  0
  5 23  1  0
 23 24  1  0
 24  2  1  0
 22  7  1  0
 20 12  1  0
 19 14  1  0
  1 25  1  0
  2 26  1  0
  3 27  1  0
  3 28  1  0
  4 29  1  0
  4 30  1  0
  6 31  1  0
  6 32  1  0
  8 33  1  0
  9 34  1  0
 15 35  1  0
 16 36  1  0
 17 37  1  0
 18 38  1  0
 21 39  1  0
 22 40  1  0
 23 41  1  0
 23 42  1  0
 24 43  1  0
 24 44  1  0
M  END
$$$$
