@<TRIPOS>MOLECULE
*****
 44 47 0 0 0
SMALL
GASTEIGER

@<TRIPOS>ATOM
      1 O          -6.4224   -0.6002   -1.1774 O.3     1  UNL1       -0.3917
      2 C          -5.8890   -0.5182    0.1003 C.3     1  UNL1        0.0576
      3 C          -5.7084    0.9081    0.5688 C.3     1  UNL1       -0.0140
      4 C          -4.4021    1.4964    0.1522 C.3     1  UNL1        0.0016
      5 N          -3.2662    0.6215    0.3781 N.3     1  UNL1       -0.2980
      6 C          -2.0735    1.3560    0.0923 C.3     1  UNL1        0.0240
      7 C          -0.8751    0.5051    0.3083 C.ar    1  UNL1       -0.0331
      8 C          -0.3611   -0.2434   -0.7260 C.ar    1  UNL1       -0.0539
      9 C           0.7352   -1.0288   -0.5495 C.ar    1  UNL1       -0.0190
     10 C           1.3221   -1.0541    0.7057 C.ar    1  UNL1        0.1309
     11 O           2.4369   -1.8599    0.8642 O.3     1  UNL1       -0.4326
     12 C           3.6506   -1.3464    0.6344 C.ar    1  UNL1        0.2627
     13 N           4.2190   -0.2603    0.2823 N.ar    1  UNL1       -0.2057
     14 C           5.4693   -0.0459    0.1366 C.ar    1  UNL1        0.0820
     15 C           6.1019    1.1539   -0.2528 C.ar    1  UNL1       -0.0351
     16 C           7.4462    1.2344   -0.3660 C.ar    1  UNL1       -0.0597
     17 C           8.3053    0.1992   -0.1241 C.ar    1  UNL1       -0.0606
     18 C           7.7065   -1.0048    0.2642 C.ar    1  UNL1       -0.0458
     19 C           6.3630   -1.0878    0.3781 C.ar    1  UNL1        0.0425
     20 S           5.2101   -2.3833    0.8300 S.2     1  UNL1       -0.0290
     21 C           0.8202   -0.3092    1.7566 C.ar    1  UNL1       -0.0190
     22 C          -0.2910    0.4868    1.5777 C.ar    1  UNL1       -0.0539
     23 C          -3.4311   -0.5827   -0.3761 C.3     1  UNL1        0.0016
     24 C          -4.6386   -1.3268    0.2107 C.3     1  UNL1       -0.0140
     25 H          -7.3332   -0.2024   -1.2101 H       1  UNL1        0.2098
     26 H          -6.6431   -0.9772    0.7875 H       1  UNL1        0.0594
     27 H          -6.5153    1.5023    0.0599 H       1  UNL1        0.0302
     28 H          -5.8913    1.0324    1.6529 H       1  UNL1        0.0302
     29 H          -4.3894    1.8108   -0.9142 H       1  UNL1        0.0427
     30 H          -4.2155    2.4096    0.7641 H       1  UNL1        0.0427
     31 H          -2.0243    1.7205   -0.9596 H       1  UNL1        0.0476
     32 H          -1.9920    2.2219    0.7734 H       1  UNL1        0.0476
     33 H          -0.8758   -0.1715   -1.6809 H       1  UNL1        0.0622
     34 H           1.1244   -1.6141   -1.3871 H       1  UNL1        0.0654
     35 H           5.5046    2.0499   -0.4720 H       1  UNL1        0.0639
     36 H           7.8849    2.1987   -0.6743 H       1  UNL1        0.0618
     37 H           9.3546    0.3275   -0.2314 H       1  UNL1        0.0618
     38 H           8.3033   -1.8749    0.4759 H       1  UNL1        0.0629
     39 H           1.3187   -0.3688    2.7107 H       1  UNL1        0.0654
     40 H          -0.6777    1.0616    2.3900 H       1  UNL1        0.0622
     41 H          -2.5510   -1.2507   -0.2549 H       1  UNL1        0.0427
     42 H          -3.6287   -0.3065   -1.4272 H       1  UNL1        0.0427
     43 H          -4.3824   -1.5997    1.2549 H       1  UNL1        0.0302
     44 H          -4.7986   -2.2790   -0.3458 H       1  UNL1        0.0302
@<TRIPOS>BOND
     1     1     2    1
     2     2     3    1
     3     3     4    1
     4     4     5    1
     5     5     6    1
     6     6     7    1
     7     7     8   ar
     8     8     9   ar
     9     9    10   ar
    10    10    11    1
    11    11    12    1
    12    12    13   ar
    13    13    14   ar
    14    14    15   ar
    15    15    16   ar
    16    16    17   ar
    17    17    18   ar
    18    18    19   ar
    19    19    20   ar
    20    10    21   ar
    21    21    22   ar
    22     5    23    1
    23    23    24    1
    24    24     2    1
    25    22     7   ar
    26    20    12   ar
    27    19    14   ar
    28     1    25    1
    29     2    26    1
    30     3    27    1
    31     3    28    1
    32     4    29    1
    33     4    30    1
    34     6    31    1
    35     6    32    1
    36     8    33    1
    37     9    34    1
    38    15    35    1
    39    16    36    1
    40    17    37    1
    41    18    38    1
    42    21    39    1
    43    22    40    1
    44    23    41    1
    45    23    42    1
    46    24    43    1
    47    24    44    1
