@<TRIPOS>MOLECULE
*****
 52 56 0 0 0
SMALL
GASTEIGER

@<TRIPOS>ATOM
      1 O          -2.4930    0.2884   -1.7971 O.2     1  UNL1       -0.2699
      2 C          -2.4190   -0.4719   -0.7979 C.2     1  UNL1        0.2491
      3 C          -3.5809   -1.2291   -0.4363 C.ar    1  UNL1        0.0640
      4 C          -3.7606   -2.4921   -0.9680 C.ar    1  UNL1       -0.0475
      5 C          -4.8745   -3.2630   -0.6406 C.ar    1  UNL1       -0.0609
      6 C          -5.8143   -2.7551    0.2301 C.ar    1  UNL1       -0.0597
      7 C          -5.6693   -1.5024    0.7789 C.ar    1  UNL1       -0.0338
      8 C          -4.5404   -0.7524    0.4310 C.ar    1  UNL1        0.0982
      9 N          -4.3816    0.5402    0.9869 N.ar    1  UNL1       -0.1496
     10 N          -3.2586    1.2269    0.9879 N.ar    1  UNL1       -0.1556
     11 C          -3.4434    2.4218    1.5959 C.ar    1  UNL1        0.0697
     12 C          -4.7604    2.4433    1.9790 C.ar    1  UNL1        0.0697
     13 N          -5.2953    1.2795    1.5895 N.ar    1  UNL1       -0.1556
     14 N          -1.1761   -0.5157   -0.1061 N.am    1  UNL1       -0.2897
     15 C          -0.9677   -1.3523    1.0597 C.3     1  UNL1        0.0388
     16 C          -0.3217   -0.5295    2.1221 C.3     1  UNL1        0.0635
     17 O          -0.2567    0.8292    1.8234 O.3     1  UNL1       -0.3764
     18 C           0.4042    1.1156    0.6510 C.3     1  UNL1        0.0666
     19 C          -0.0332    0.2735   -0.5267 C.3     1  UNL1        0.0537
     20 C           1.0900   -0.7030   -0.8475 C.3     1  UNL1       -0.0054
     21 C           2.3239   -0.0208   -1.2969 C.ar    1  UNL1       -0.0252
     22 C           3.4492    0.1421   -0.5226 C.ar    1  UNL1       -0.0299
     23 C           4.5834    0.7830   -0.9780 C.ar    1  UNL1        0.0865
     24 N           5.7094    0.9144   -0.1188 N.ar    1  UNL1       -0.1503
     25 N           6.3600   -0.0916    0.4405 N.ar    1  UNL1       -0.1556
     26 C           7.3753    0.3510    1.1967 C.ar    1  UNL1        0.0697
     27 C           7.3404    1.7361    1.0897 C.ar    1  UNL1        0.0697
     28 N           6.3113    2.0338    0.2800 N.ar    1  UNL1       -0.1556
     29 C           4.5975    1.2866   -2.2693 C.ar    1  UNL1       -0.0332
     30 C           3.4952    1.1407   -3.0635 C.ar    1  UNL1       -0.0411
     31 C           2.3608    0.4877   -2.5766 C.ar    1  UNL1        0.0443
     32 CL          0.9988    0.3505   -3.6703 Cl      1  UNL1       -0.0833
     33 H          -3.0058   -2.8627   -1.6479 H       1  UNL1        0.0626
     34 H          -4.9909   -4.2557   -1.0744 H       1  UNL1        0.0618
     35 H          -6.6822   -3.3901    0.4675 H       1  UNL1        0.0618
     36 H          -6.4161   -1.1131    1.4634 H       1  UNL1        0.0639
     37 H          -2.7190    3.2189    1.7611 H       1  UNL1        0.0864
     38 H          -5.2412    3.2510    2.4910 H       1  UNL1        0.0864
     39 H          -1.9039   -1.8486    1.3878 H       1  UNL1        0.0487
     40 H          -0.2840   -2.2154    0.8083 H       1  UNL1        0.0487
     41 H           0.7152   -0.8456    2.3805 H       1  UNL1        0.0575
     42 H          -0.9502   -0.5866    3.0607 H       1  UNL1        0.0575
     43 H           1.4898    1.0364    0.8633 H       1  UNL1        0.0578
     44 H           0.2131    2.1885    0.4330 H       1  UNL1        0.0578
     45 H          -0.2770    0.9029   -1.4121 H       1  UNL1        0.0526
     46 H           1.3456   -1.2362    0.1035 H       1  UNL1        0.0332
     47 H           0.7619   -1.4930   -1.5559 H       1  UNL1        0.0332
     48 H           3.4684   -0.2419    0.4864 H       1  UNL1        0.0642
     49 H           8.1029   -0.1876    1.7882 H       1  UNL1        0.0864
     50 H           8.0386    2.3955    1.5891 H       1  UNL1        0.0864
     51 H           5.4916    1.7883   -2.6189 H       1  UNL1        0.0640
     52 H           3.4904    1.5300   -4.0782 H       1  UNL1        0.0633
@<TRIPOS>BOND
     1     1     2    2
     2     2     3    1
     3     3     4   ar
     4     4     5   ar
     5     5     6   ar
     6     6     7   ar
     7     7     8   ar
     8     8     9    1
     9     9    10   ar
    10    10    11   ar
    11    11    12   ar
    12    12    13   ar
    13     2    14   am
    14    14    15    1
    15    15    16    1
    16    16    17    1
    17    17    18    1
    18    18    19    1
    19    19    20    1
    20    20    21    1
    21    21    22   ar
    22    22    23   ar
    23    23    24    1
    24    24    25   ar
    25    25    26   ar
    26    26    27   ar
    27    27    28   ar
    28    23    29   ar
    29    29    30   ar
    30    30    31   ar
    31    31    32    1
    32     8     3   ar
    33    13     9   ar
    34    19    14    1
    35    31    21   ar
    36    28    24   ar
    37     4    33    1
    38     5    34    1
    39     6    35    1
    40     7    36    1
    41    11    37    1
    42    12    38    1
    43    15    39    1
    44    15    40    1
    45    16    41    1
    46    16    42    1
    47    18    43    1
    48    18    44    1
    49    19    45    1
    50    20    46    1
    51    20    47    1
    52    22    48    1
    53    26    49    1
    54    27    50    1
    55    29    51    1
    56    30    52    1
