
     RDKit          3D

 52 56  0  0  0  0  0  0  0  0999 V2000
   -2.4930    0.2884   -1.7971 O   0  0  0  0  0  0  0  0  0  0  0  0
   -2.4190   -0.4719   -0.7979 C   0  0  0  0  0  0  0  0  0  0  0  0
   -3.5809   -1.2291   -0.4363 C   0  0  0  0  0  0  0  0  0  0  0  0
   -3.7606   -2.4921   -0.9680 C   0  0  0  0  0  0  0  0  0  0  0  0
   -4.8745   -3.2630   -0.6406 C   0  0  0  0  0  0  0  0  0  0  0  0
   -5.8143   -2.7551    0.2301 C   0  0  0  0  0  0  0  0  0  0  0  0
   -5.6693   -1.5024    0.7789 C   0  0  0  0  0  0  0  0  0  0  0  0
   -4.5404   -0.7524    0.4310 C   0  0  0  0  0  0  0  0  0  0  0  0
   -4.3816    0.5402    0.9869 N   0  0  0  0  0  0  0  0  0  0  0  0
   -3.2586    1.2269    0.9879 N   0  0  0  0  0  0  0  0  0  0  0  0
   -3.4434    2.4218    1.5959 C   0  0  0  0  0  0  0  0  0  0  0  0
   -4.7604    2.4433    1.9790 C   0  0  0  0  0  0  0  0  0  0  0  0
   -5.2953    1.2795    1.5895 N   0  0  0  0  0  0  0  0  0  0  0  0
   -1.1761   -0.5157   -0.1061 N   0  0  0  0  0  0  0  0  0  0  0  0
   -0.9677   -1.3523    1.0597 C   0  0  0  0  0  0  0  0  0  0  0  0
   -0.3217   -0.5295    2.1221 C   0  0  0  0  0  0  0  0  0  0  0  0
   -0.2567    0.8292    1.8234 O   0  0  0  0  0  0  0  0  0  0  0  0
    0.4042    1.1156    0.6510 C   0  0  0  0  0  0  0  0  0  0  0  0
   -0.0332    0.2735   -0.5267 C   0  0  1  0  0  0  0  0  0  0  0  0
    1.0900   -0.7030   -0.8475 C   0  0  0  0  0  0  0  0  0  0  0  0
    2.3239   -0.0208   -1.2969 C   0  0  0  0  0  0  0  0  0  0  0  0
    3.4492    0.1421   -0.5226 C   0  0  0  0  0  0  0  0  0  0  0  0
    4.5834    0.7830   -0.9780 C   0  0  0  0  0  0  0  0  0  0  0  0
    5.7094    0.9144   -0.1188 N   0  0  0  0  0  0  0  0  0  0  0  0
    6.3600   -0.0916    0.4405 N   0  0  0  0  0  0  0  0  0  0  0  0
    7.3753    0.3510    1.1967 C   0  0  0  0  0  0  0  0  0  0  0  0
    7.3404    1.7361    1.0897 C   0  0  0  0  0  0  0  0  0  0  0  0
    6.3113    2.0338    0.2800 N   0  0  0  0  0  0  0  0  0  0  0  0
    4.5975    1.2866   -2.2693 C   0  0  0  0  0  0  0  0  0  0  0  0
    3.4952    1.1407   -3.0635 C   0  0  0  0  0  0  0  0  0  0  0  0
    2.3608    0.4877   -2.5766 C   0  0  0  0  0  0  0  0  0  0  0  0
    0.9988    0.3505   -3.6703 Cl  0  0  0  0  0  0  0  0  0  0  0  0
   -3.0058   -2.8627   -1.6479 H   0  0  0  0  0  0  0  0  0  0  0  0
   -4.9909   -4.2557   -1.0744 H   0  0  0  0  0  0  0  0  0  0  0  0
   -6.6822   -3.3901    0.4675 H   0  0  0  0  0  0  0  0  0  0  0  0
   -6.4161   -1.1131    1.4634 H   0  0  0  0  0  0  0  0  0  0  0  0
   -2.7190    3.2189    1.7611 H   0  0  0  0  0  0  0  0  0  0  0  0
   -5.2412    3.2510    2.4910 H   0  0  0  0  0  0  0  0  0  0  0  0
   -1.9039   -1.8486    1.3878 H   0  0  0  0  0  0  0  0  0  0  0  0
   -0.2840   -2.2154    0.8083 H   0  0  0  0  0  0  0  0  0  0  0  0
    0.7152   -0.8456    2.3805 H   0  0  0  0  0  0  0  0  0  0  0  0
   -0.9502   -0.5866    3.0607 H   0  0  0  0  0  0  0  0  0  0  0  0
    1.4898    1.0364    0.8633 H   0  0  0  0  0  0  0  0  0  0  0  0
    0.2131    2.1885    0.4330 H   0  0  0  0  0  0  0  0  0  0  0  0
   -0.2770    0.9029   -1.4121 H   0  0  0  0  0  0  0  0  0  0  0  0
    1.3456   -1.2362    0.1035 H   0  0  0  0  0  0  0  0  0  0  0  0
    0.7619   -1.4930   -1.5559 H   0  0  0  0  0  0  0  0  0  0  0  0
    3.4684   -0.2419    0.4864 H   0  0  0  0  0  0  0  0  0  0  0  0
    8.1029   -0.1876    1.7882 H   0  0  0  0  0  0  0  0  0  0  0  0
    8.0386    2.3955    1.5891 H   0  0  0  0  0  0  0  0  0  0  0  0
    5.4916    1.7883   -2.6189 H   0  0  0  0  0  0  0  0  0  0  0  0
    3.4904    1.5300   -4.0782 H   0  0  0  0  0  0  0  0  0  0  0  0
  1  2  2  0
  2  3  1  0
  3  4  2  0
  4  5  1  0
  5  6  2  0
  6  7  1  0
  7  8  2  0
  8  9  1  0
  9 10  1  0
 10 11  2  0
 11 12  1  0
 12 13  2  0
  2 14  1  0
 14 15  1  0
 15 16  1  0
 16 17  1  0
 17 18  1  0
 18 19  1  0
 19 20  1  0
 20 21  1  0
 21 22  2  0
 22 23  1  0
 23 24  1  0
 24 25  1  0
 25 26  2  0
 26 27  1  0
 27 28  2  0
 23 29  2  0
 29 30  1  0
 30 31  2  0
 31 32  1  0
  8  3  1  0
 13  9  1  0
 19 14  1  0
 31 21  1  0
 28 24  1  0
  4 33  1  0
  5 34  1  0
  6 35  1  0
  7 36  1  0
 11 37  1  0
 12 38  1  0
 15 39  1  0
 15 40  1  0
 16 41  1  0
 16 42  1  0
 18 43  1  0
 18 44  1  0
 19 45  1  6
 20 46  1  0
 20 47  1  0
 22 48  1  0
 26 49  1  0
 27 50  1  0
 29 51  1  0
 30 52  1  0
M  END
$$$$
