
     RDKit          3D

 31 33  0  0  0  0  0  0  0  0999 V2000
    1.8229   -2.8113   -1.1907 O   0  0  0  0  0  0  0  0  0  0  0  0
    1.4194   -1.7382   -0.6817 C   0  0  0  0  0  0  0  0  0  0  0  0
    0.0807   -1.3856   -0.6451 C   0  0  0  0  0  0  0  0  0  0  0  0
   -0.3804   -0.2154   -0.0923 C   0  0  0  0  0  0  0  0  0  0  0  0
   -1.7860    0.1779   -0.0421 C   0  0  0  0  0  0  0  0  0  0  0  0
   -2.1600    1.3835    0.5385 C   0  0  0  0  0  0  0  0  0  0  0  0
   -3.4737    1.7958    0.6085 C   0  0  0  0  0  0  0  0  0  0  0  0
   -4.4863    1.0123    0.0951 C   0  0  0  0  0  0  0  0  0  0  0  0
   -5.8085    1.4477    0.1760 O   0  0  0  0  0  0  0  0  0  0  0  0
   -4.1398   -0.1862   -0.4848 C   0  0  0  0  0  0  0  0  0  0  0  0
   -5.1460   -0.9862   -1.0060 O   0  0  0  0  0  0  0  0  0  0  0  0
   -2.8013   -0.5942   -0.5499 C   0  0  0  0  0  0  0  0  0  0  0  0
    0.5380    0.5879    0.4211 O   0  0  0  0  0  0  0  0  0  0  0  0
    1.8204    0.3133    0.4187 C   0  0  0  0  0  0  0  0  0  0  0  0
    2.7368    1.2086    0.9792 C   0  0  0  0  0  0  0  0  0  0  0  0
    4.0840    0.9198    0.9766 C   0  0  0  0  0  0  0  0  0  0  0  0
    4.9918    1.8167    1.5370 O   0  0  0  0  0  0  0  0  0  0  0  0
    4.5720   -0.2660    0.4186 C   0  0  0  0  0  0  0  0  0  0  0  0
    3.6662   -1.1489   -0.1345 C   0  0  0  0  0  0  0  0  0  0  0  0
    4.0706   -2.3584   -0.7137 O   0  0  0  0  0  0  0  0  0  0  0  0
    2.3146   -0.8489   -0.1264 C   0  0  0  0  0  0  0  0  0  0  0  0
   -0.6108   -2.0826   -1.0792 H   0  0  0  0  0  0  0  0  0  0  0  0
   -1.3420    1.9928    0.9410 H   0  0  0  0  0  0  0  0  0  0  0  0
   -3.7095    2.7587    1.0790 H   0  0  0  0  0  0  0  0  0  0  0  0
   -6.5726    0.7939    0.1318 H   0  0  0  0  0  0  0  0  0  0  0  0
   -5.2241   -1.0972   -2.0252 H   0  0  0  0  0  0  0  0  0  0  0  0
   -2.5362   -1.5373   -1.0070 H   0  0  0  0  0  0  0  0  0  0  0  0
    2.3932    2.1308    1.4171 H   0  0  0  0  0  0  0  0  0  0  0  0
    5.9684    1.8050    1.3605 H   0  0  0  0  0  0  0  0  0  0  0  0
    5.6199   -0.5061    0.4085 H   0  0  0  0  0  0  0  0  0  0  0  0
    4.0786   -2.3823   -1.7287 H   0  0  0  0  0  0  0  0  0  0  0  0
  1  2  2  0
  2  3  1  0
  3  4  2  0
  4  5  1  0
  5  6  2  0
  6  7  1  0
  7  8  2  0
  8  9  1  0
  8 10  1  0
 10 11  1  0
 10 12  2  0
  4 13  1  0
 13 14  1  0
 14 15  2  0
 15 16  1  0
 16 17  1  0
 16 18  2  0
 18 19  1  0
 19 20  1  0
 19 21  2  0
 21  2  1  0
 12  5  1  0
 21 14  1  0
  3 22  1  0
  6 23  1  0
  7 24  1  0
  9 25  1  0
 11 26  1  0
 12 27  1  0
 15 28  1  0
 17 29  1  0
 18 30  1  0
 20 31  1  0
M  END
$$$$
