@<TRIPOS>MOLECULE
*****
 31 33 0 0 0
SMALL
GASTEIGER

@<TRIPOS>ATOM
      1 O           1.8229   -2.8113   -1.1907 O.2     1  UNL1       -0.2869
      2 C           1.4194   -1.7382   -0.6817 C.ar    1  UNL1        0.1966
      3 C           0.0807   -1.3856   -0.6451 C.ar    1  UNL1        0.0288
      4 C          -0.3804   -0.2154   -0.0923 C.ar    1  UNL1        0.1393
      5 C          -1.7860    0.1779   -0.0421 C.ar    1  UNL1        0.0211
      6 C          -2.1600    1.3835    0.5385 C.ar    1  UNL1       -0.0474
      7 C          -3.4737    1.7958    0.6085 C.ar    1  UNL1       -0.0159
      8 C          -4.4863    1.0123    0.0951 C.ar    1  UNL1        0.1583
      9 O          -5.8085    1.4477    0.1760 O.3     1  UNL1       -0.5033
     10 C          -4.1398   -0.1862   -0.4848 C.ar    1  UNL1        0.1589
     11 O          -5.1460   -0.9862   -1.0060 O.3     1  UNL1       -0.5033
     12 C          -2.8013   -0.5942   -0.5499 C.ar    1  UNL1       -0.0059
     13 O           0.5380    0.5879    0.4211 O.2     1  UNL1       -0.4544
     14 C           1.8204    0.3133    0.4187 C.ar    1  UNL1        0.1462
     15 C           2.7368    1.2086    0.9792 C.ar    1  UNL1        0.0231
     16 C           4.0840    0.9198    0.9766 C.ar    1  UNL1        0.1239
     17 O           4.9918    1.8167    1.5370 O.3     1  UNL1       -0.5065
     18 C           4.5720   -0.2660    0.4186 C.ar    1  UNL1        0.0223
     19 C           3.6662   -1.1489   -0.1345 C.ar    1  UNL1        0.1347
     20 O           4.0706   -2.3584   -0.7137 O.3     1  UNL1       -0.5058
     21 C           2.3146   -0.8489   -0.1264 C.ar    1  UNL1        0.1055
     22 H          -0.6108   -2.0826   -1.0792 H       1  UNL1        0.0693
     23 H          -1.3420    1.9928    0.9410 H       1  UNL1        0.0626
     24 H          -3.7095    2.7587    1.0790 H       1  UNL1        0.0655
     25 H          -6.5726    0.7939    0.1318 H       1  UNL1        0.2923
     26 H          -5.2241   -1.0972   -2.0252 H       1  UNL1        0.2923
     27 H          -2.5362   -1.5373   -1.0070 H       1  UNL1        0.0662
     28 H           2.3932    2.1308    1.4171 H       1  UNL1        0.0691
     29 H           5.9684    1.8050    1.3605 H       1  UNL1        0.2921
     30 H           5.6199   -0.5061    0.4085 H       1  UNL1        0.0691
     31 H           4.0786   -2.3823   -1.7287 H       1  UNL1        0.2922
@<TRIPOS>BOND
     1     1     2    2
     2     2     3   ar
     3     3     4   ar
     4     4     5    1
     5     5     6   ar
     6     6     7   ar
     7     7     8   ar
     8     8     9    1
     9     8    10   ar
    10    10    11    1
    11    10    12   ar
    12     4    13   ar
    13    13    14   ar
    14    14    15   ar
    15    15    16   ar
    16    16    17    1
    17    16    18   ar
    18    18    19   ar
    19    19    20    1
    20    19    21   ar
    21    21     2   ar
    22    12     5   ar
    23    21    14   ar
    24     3    22    1
    25     6    23    1
    26     7    24    1
    27     9    25    1
    28    11    26    1
    29    12    27    1
    30    15    28    1
    31    17    29    1
    32    18    30    1
    33    20    31    1
