@<TRIPOS>MOLECULE
*****
 43 46 0 0 0
SMALL
GASTEIGER

@<TRIPOS>ATOM
      1 C          -0.8195    2.0263   -2.8075 C.3     1  UNL1       -0.0259
      2 C          -1.7937    1.4621   -1.8305 C.2     1  UNL1        0.0191
      3 C          -1.3993    1.0298   -0.6426 C.2     1  UNL1        0.0559
      4 C           0.0482    1.1407   -0.3168 C.2     1  UNL1        0.2478
      5 O           0.8860    1.6137   -1.1311 O.2     1  UNL1       -0.2701
      6 N           0.5641    0.7294    0.9213 N.am    1  UNL1       -0.2816
      7 C           1.9517    0.8282    1.2854 C.ar    1  UNL1        0.0344
      8 C           2.4669    1.8223    2.0269 C.ar    1  UNL1       -0.0384
      9 C           3.8296    1.8511    2.3153 C.ar    1  UNL1       -0.0345
     10 C           4.6639    0.8405    1.8273 C.ar    1  UNL1        0.0658
     11 N           5.9826    0.6277    1.9418 N.ar    1  UNL1       -0.2770
     12 N           6.2699   -0.4796    1.2734 N.ar    1  UNL1       -0.1812
     13 C           5.1657   -1.0282    0.7045 C.ar    1  UNL1        0.0569
     14 C           4.1336   -0.1619    1.0751 C.ar    1  UNL1        0.0212
     15 C           2.7907   -0.1880    0.7953 C.ar    1  UNL1       -0.0298
     16 C          -2.3324    0.3723    0.2875 C.3     1  UNL1        0.0814
     17 C          -2.2489   -1.1323    0.1240 C.ar    1  UNL1       -0.0224
     18 C          -2.7270   -1.7012   -1.0234 C.ar    1  UNL1       -0.0538
     19 C          -2.6984   -3.0933   -1.2436 C.ar    1  UNL1       -0.0261
     20 C          -2.1586   -3.8768   -0.2384 C.ar    1  UNL1        0.1234
     21 F          -2.1189   -5.2406   -0.4123 F       1  UNL1       -0.2055
     22 C          -1.6868   -3.3001    0.8976 C.ar    1  UNL1       -0.0261
     23 C          -1.7170   -1.9135    1.1159 C.ar    1  UNL1       -0.0538
     24 N          -3.7156    0.6851    0.0231 N.am    1  UNL1       -0.2881
     25 C          -4.1314    1.1254   -1.2537 C.2     1  UNL1        0.3043
     26 O          -5.3849    1.1595   -1.5358 O.2     1  UNL1       -0.2525
     27 N          -3.1748    1.5285   -2.2116 N.am    1  UNL1       -0.2729
     28 H          -1.3668    2.3111   -3.7503 H       1  UNL1        0.0290
     29 H          -0.3287    2.9439   -2.4854 H       1  UNL1        0.0290
     30 H          -0.1268    1.1891   -3.0955 H       1  UNL1        0.0290
     31 H          -0.0896    0.3478    1.6375 H       1  UNL1        0.1551
     32 H           1.8022    2.5984    2.3922 H       1  UNL1        0.0637
     33 H           4.2222    2.6380    2.9028 H       1  UNL1        0.0639
     34 H           6.6439    1.2322    2.4607 H       1  UNL1        0.1889
     35 H           5.1137   -1.9197    0.1103 H       1  UNL1        0.0854
     36 H           2.3666   -0.9769    0.2001 H       1  UNL1        0.0643
     37 H          -2.1548    0.6210    1.3594 H       1  UNL1        0.0601
     38 H          -3.1651   -1.1217   -1.8350 H       1  UNL1        0.0622
     39 H          -3.0686   -3.5566   -2.1311 H       1  UNL1        0.0646
     40 H          -1.2719   -3.9588    1.6573 H       1  UNL1        0.0646
     41 H          -1.3474   -1.5226    2.0298 H       1  UNL1        0.0622
     42 H          -4.4212    0.5826    0.7799 H       1  UNL1        0.1512
     43 H          -3.4533    1.8651   -3.1812 H       1  UNL1        0.1561
@<TRIPOS>BOND
     1     1     2    1
     2     2     3    2
     3     3     4    1
     4     4     5    2
     5     4     6   am
     6     6     7    1
     7     7     8   ar
     8     8     9   ar
     9     9    10   ar
    10    10    11   ar
    11    11    12   ar
    12    12    13   ar
    13    13    14   ar
    14    14    15   ar
    15     3    16    1
    16    16    17    1
    17    17    18   ar
    18    18    19   ar
    19    19    20   ar
    20    20    21    1
    21    20    22   ar
    22    22    23   ar
    23    16    24    1
    24    24    25   am
    25    25    26    2
    26    25    27   am
    27    27     2    1
    28    15     7   ar
    29    23    17   ar
    30    14    10   ar
    31     1    28    1
    32     1    29    1
    33     1    30    1
    34     6    31    1
    35     8    32    1
    36     9    33    1
    37    11    34    1
    38    13    35    1
    39    15    36    1
    40    16    37    1
    41    18    38    1
    42    19    39    1
    43    22    40    1
    44    23    41    1
    45    24    42    1
    46    27    43    1
