@<TRIPOS>MOLECULE
*****
 49 52 0 0 0
SMALL
GASTEIGER

@<TRIPOS>ATOM
      1 C           6.9253   -0.1607   -1.9494 C.3     1  UNL1       -0.0200
      2 C           6.3483    1.0409   -1.3096 C.ar    1  UNL1        0.0674
      3 N           6.8475    2.2890   -1.2889 N.ar    1  UNL1       -0.1780
      4 N           6.0508    3.0926   -0.6201 N.ar    1  UNL1       -0.2767
      5 C           5.0049    2.3654   -0.1894 C.ar    1  UNL1        0.0660
      6 C           3.9058    2.7081    0.5409 C.ar    1  UNL1       -0.0357
      7 C           2.9755    1.7378    0.8428 C.ar    1  UNL1       -0.0520
      8 C           3.1044    0.4248    0.4375 C.ar    1  UNL1       -0.0156
      9 C           2.0648   -0.5483    0.8026 C.ar    1  UNL1        0.0037
     10 C           2.3671   -1.8772    1.0132 C.ar    1  UNL1        0.0355
     11 N           1.3808   -2.7347    1.3469 N.ar    1  UNL1       -0.2590
     12 C           0.1021   -2.3440    1.4842 C.ar    1  UNL1        0.0692
     13 C          -0.2722   -1.0347    1.2888 C.ar    1  UNL1        0.1392
     14 O          -1.5178   -0.5086    1.3911 O.3     1  UNL1       -0.4889
     15 C          -2.7557   -0.9944    1.6734 C.3     1  UNL1        0.1050
     16 C          -3.2257   -1.9972    0.6565 C.3     1  UNL1        0.0434
     17 N          -4.5585   -2.4396    1.0763 N.3     1  UNL1       -0.3242
     18 C          -3.2995   -1.3505   -0.7184 C.3     1  UNL1       -0.0093
     19 C          -4.2440   -0.2102   -0.7249 C.ar    1  UNL1       -0.0458
     20 C          -5.5728   -0.4709   -1.0074 C.ar    1  UNL1       -0.0585
     21 C          -6.4822    0.5619   -1.0293 C.ar    1  UNL1       -0.0615
     22 C          -6.0523    1.8319   -0.7703 C.ar    1  UNL1       -0.0617
     23 C          -4.7473    2.1180   -0.4887 C.ar    1  UNL1       -0.0615
     24 C          -3.8351    1.0799   -0.4670 C.ar    1  UNL1       -0.0585
     25 C           0.7585   -0.1367    0.9401 C.ar    1  UNL1       -0.0093
     26 C           4.2101    0.0834   -0.2964 C.ar    1  UNL1       -0.0430
     27 C           5.1485    1.0531   -0.6031 C.ar    1  UNL1        0.0230
     28 H           6.8175   -1.0008   -1.2414 H       1  UNL1        0.0293
     29 H           6.4002   -0.3137   -2.9051 H       1  UNL1        0.0293
     30 H           8.0341   -0.0286   -2.0946 H       1  UNL1        0.0293
     31 H           6.2083    4.1149   -0.4556 H       1  UNL1        0.1889
     32 H           3.7628    3.7125    0.8769 H       1  UNL1        0.0639
     33 H           2.1155    2.0323    1.4209 H       1  UNL1        0.0624
     34 H           3.3854   -2.2365    0.9134 H       1  UNL1        0.0836
     35 H          -0.6061   -3.1007    1.7653 H       1  UNL1        0.0867
     36 H          -2.8854   -1.3819    2.7156 H       1  UNL1        0.0712
     37 H          -3.5188   -0.1538    1.6284 H       1  UNL1        0.0712
     38 H          -2.5604   -2.8440    0.5937 H       1  UNL1        0.0495
     39 H          -4.4212   -3.3390    1.5855 H       1  UNL1        0.1186
     40 H          -4.9687   -1.7651    1.7735 H       1  UNL1        0.1186
     41 H          -3.6239   -2.1147   -1.4606 H       1  UNL1        0.0329
     42 H          -2.2834   -1.0003   -0.9897 H       1  UNL1        0.0329
     43 H          -5.8608   -1.4826   -1.2038 H       1  UNL1        0.0620
     44 H          -7.5134    0.3133   -1.2551 H       1  UNL1        0.0618
     45 H          -6.8070    2.6206   -0.7981 H       1  UNL1        0.0618
     46 H          -4.3961    3.1306   -0.2806 H       1  UNL1        0.0618
     47 H          -2.7839    1.2801   -0.2461 H       1  UNL1        0.0620
     48 H           0.5347    0.9085    0.7721 H       1  UNL1        0.0661
     49 H           4.3392   -0.9300   -0.6264 H       1  UNL1        0.0631
@<TRIPOS>BOND
     1     1     2    1
     2     2     3   ar
     3     3     4   ar
     4     4     5   ar
     5     5     6   ar
     6     6     7   ar
     7     7     8   ar
     8     8     9    1
     9     9    10   ar
    10    10    11   ar
    11    11    12   ar
    12    12    13   ar
    13    13    14    1
    14    14    15    1
    15    15    16    1
    16    16    17    1
    17    16    18    1
    18    18    19    1
    19    19    20   ar
    20    20    21   ar
    21    21    22   ar
    22    22    23   ar
    23    23    24   ar
    24    13    25   ar
    25     8    26   ar
    26    26    27   ar
    27    27     2   ar
    28    27     5   ar
    29    25     9   ar
    30    24    19   ar
    31     1    28    1
    32     1    29    1
    33     1    30    1
    34     4    31    1
    35     6    32    1
    36     7    33    1
    37    10    34    1
    38    12    35    1
    39    15    36    1
    40    15    37    1
    41    16    38    1
    42    17    39    1
    43    17    40    1
    44    18    41    1
    45    18    42    1
    46    20    43    1
    47    21    44    1
    48    22    45    1
    49    23    46    1
    50    24    47    1
    51    25    48    1
    52    26    49    1
