@<TRIPOS>MOLECULE
*****
 33 34 0 0 0
SMALL
GASTEIGER

@<TRIPOS>ATOM
      1 O           5.9248    0.4491   -1.8848 O.2     1  UNL1       -0.2495
      2 C           5.3948   -0.0825   -0.8240 C.2     1  UNL1        0.3204
      3 O           5.8460    0.4755    0.3348 O.3     1  UNL1       -0.4797
      4 C           4.4115   -1.1114   -1.0568 C.3     1  UNL1        0.1144
      5 N           3.8816   -1.4080    0.3045 N.3     1  UNL1       -0.1792
      6 S           2.6241   -0.2896    0.3357 S.O2    1  UNL1        0.0589
      7 O           2.8918    0.5848   -0.9915 O.2     1  UNL1       -0.1530
      8 O           3.1801    0.7381    1.4410 O.2     1  UNL1       -0.1530
      9 C           1.0263   -0.4297    0.5029 C.ar    1  UNL1        0.1053
     10 C           0.3554    0.7719    0.8747 C.ar    1  UNL1       -0.0348
     11 C          -0.9343    0.8771    0.7300 C.ar    1  UNL1       -0.0522
     12 C          -1.6585   -0.2244    0.2168 C.ar    1  UNL1       -0.0178
     13 C          -2.9906    0.0688   -0.2429 C.ar    1  UNL1       -0.0178
     14 C          -3.2617    1.1251   -1.1182 C.ar    1  UNL1       -0.0530
     15 C          -4.5514    1.7085   -1.1762 C.ar    1  UNL1       -0.0472
     16 C          -5.5646    1.2555   -0.3800 C.ar    1  UNL1        0.0179
     17 BR         -7.2932    1.9978   -0.4312 Br      1  UNL1       -0.0503
     18 C          -5.2714    0.2036    0.4620 C.ar    1  UNL1       -0.0472
     19 C          -4.0290   -0.3689    0.5047 C.ar    1  UNL1       -0.0530
     20 C          -1.0122   -1.4060   -0.1112 C.ar    1  UNL1       -0.0522
     21 C           0.3286   -1.5317    0.0262 C.ar    1  UNL1       -0.0348
     22 H           5.7033    1.5690    0.4268 H       1  UNL1        0.2951
     23 H           4.6481   -1.9701   -1.7596 H       1  UNL1        0.0556
     24 H           5.5650   -1.9786   -0.4882 H       1  UNL1        0.0556
     25 H           3.1483   -2.3260   -0.1723 H       1  UNL1        0.1486
     26 H           0.9252    1.5494    1.4130 H       1  UNL1        0.0637
     27 H          -1.5550    1.7400    1.0658 H       1  UNL1        0.0624
     28 H          -2.5274    1.5424   -1.7423 H       1  UNL1        0.0624
     29 H          -4.7554    2.5334   -1.8453 H       1  UNL1        0.0629
     30 H          -6.0396   -0.1047    1.1668 H       1  UNL1        0.0629
     31 H          -3.8010   -1.2990    1.0325 H       1  UNL1        0.0624
     32 H          -1.5529   -2.2615   -0.4725 H       1  UNL1        0.0624
     33 H           0.9433   -2.3980   -0.2398 H       1  UNL1        0.0637
@<TRIPOS>BOND
     1     1     2    2
     2     2     3    1
     3     2     4    1
     4     4     5    1
     5     5     6    1
     6     6     7    2
     7     6     8    2
     8     6     9    1
     9     9    10   ar
    10    10    11   ar
    11    11    12   ar
    12    12    13    1
    13    13    14   ar
    14    14    15   ar
    15    15    16   ar
    16    16    17    1
    17    16    18   ar
    18    18    19   ar
    19    12    20   ar
    20    20    21   ar
    21    21     9   ar
    22    19    13   ar
    23     3    22    1
    24     4    23    1
    25     4    24    1
    26     5    25    1
    27    10    26    1
    28    11    27    1
    29    14    28    1
    30    15    29    1
    31    18    30    1
    32    19    31    1
    33    20    32    1
    34    21    33    1
