
     RDKit          3D

 33 34  0  0  0  0  0  0  0  0999 V2000
    5.9248    0.4491   -1.8848 O   0  0  0  0  0  0  0  0  0  0  0  0
    5.3948   -0.0825   -0.8240 C   0  0  0  0  0  0  0  0  0  0  0  0
    5.8460    0.4755    0.3348 O   0  0  0  0  0  0  0  0  0  0  0  0
    4.4115   -1.1114   -1.0568 C   0  0  0  0  0  0  0  0  0  0  0  0
    3.8816   -1.4080    0.3045 N   0  0  0  0  0  0  0  0  0  0  0  0
    2.6241   -0.2896    0.3357 S   0  0  0  0  0  6  0  0  0  0  0  0
    2.8918    0.5848   -0.9915 O   0  0  0  0  0  0  0  0  0  0  0  0
    3.1801    0.7381    1.4410 O   0  0  0  0  0  0  0  0  0  0  0  0
    1.0263   -0.4297    0.5029 C   0  0  0  0  0  0  0  0  0  0  0  0
    0.3554    0.7719    0.8747 C   0  0  0  0  0  0  0  0  0  0  0  0
   -0.9343    0.8771    0.7300 C   0  0  0  0  0  0  0  0  0  0  0  0
   -1.6585   -0.2244    0.2168 C   0  0  0  0  0  0  0  0  0  0  0  0
   -2.9906    0.0688   -0.2429 C   0  0  0  0  0  0  0  0  0  0  0  0
   -3.2617    1.1251   -1.1182 C   0  0  0  0  0  0  0  0  0  0  0  0
   -4.5514    1.7085   -1.1762 C   0  0  0  0  0  0  0  0  0  0  0  0
   -5.5646    1.2555   -0.3800 C   0  0  0  0  0  0  0  0  0  0  0  0
   -7.2932    1.9978   -0.4312 Br  0  0  0  0  0  0  0  0  0  0  0  0
   -5.2714    0.2036    0.4620 C   0  0  0  0  0  0  0  0  0  0  0  0
   -4.0290   -0.3689    0.5047 C   0  0  0  0  0  0  0  0  0  0  0  0
   -1.0122   -1.4060   -0.1112 C   0  0  0  0  0  0  0  0  0  0  0  0
    0.3286   -1.5317    0.0262 C   0  0  0  0  0  0  0  0  0  0  0  0
    5.7033    1.5690    0.4268 H   0  0  0  0  0  0  0  0  0  0  0  0
    4.6481   -1.9701   -1.7596 H   0  0  0  0  0  0  0  0  0  0  0  0
    5.5650   -1.9786   -0.4882 H   0  0  0  0  0  0  0  0  0  0  0  0
    3.1483   -2.3260   -0.1723 H   0  0  0  0  0  0  0  0  0  0  0  0
    0.9252    1.5494    1.4130 H   0  0  0  0  0  0  0  0  0  0  0  0
   -1.5550    1.7400    1.0658 H   0  0  0  0  0  0  0  0  0  0  0  0
   -2.5274    1.5424   -1.7423 H   0  0  0  0  0  0  0  0  0  0  0  0
   -4.7554    2.5334   -1.8453 H   0  0  0  0  0  0  0  0  0  0  0  0
   -6.0396   -0.1047    1.1668 H   0  0  0  0  0  0  0  0  0  0  0  0
   -3.8010   -1.2990    1.0325 H   0  0  0  0  0  0  0  0  0  0  0  0
   -1.5529   -2.2615   -0.4725 H   0  0  0  0  0  0  0  0  0  0  0  0
    0.9433   -2.3980   -0.2398 H   0  0  0  0  0  0  0  0  0  0  0  0
  1  2  2  0
  2  3  1  0
  2  4  1  0
  4  5  1  0
  5  6  1  0
  6  7  2  0
  6  8  2  0
  6  9  1  0
  9 10  2  0
 10 11  1  0
 11 12  2  0
 12 13  1  0
 13 14  2  0
 14 15  1  0
 15 16  2  0
 16 17  1  0
 16 18  1  0
 18 19  2  0
 12 20  1  0
 20 21  2  0
 21  9  1  0
 19 13  1  0
  3 22  1  0
  4 23  1  0
  4 24  1  0
  5 25  1  0
 10 26  1  0
 11 27  1  0
 14 28  1  0
 15 29  1  0
 18 30  1  0
 19 31  1  0
 20 32  1  0
 21 33  1  0
M  END
$$$$
