@<TRIPOS>MOLECULE
*****
 52 56 0 0 0
SMALL
GASTEIGER

@<TRIPOS>ATOM
      1 C           6.7738   -0.5337    1.8007 C.3     1  UNL1        0.0309
      2 N           5.3545   -0.3436    1.6366 N.ar    1  UNL1       -0.2660
      3 N           4.6547    0.7471    1.9904 N.ar    1  UNL1       -0.1687
      4 C           3.3610    0.5744    1.6907 C.ar    1  UNL1        0.1201
      5 C           2.2528    1.5282    1.9126 C.ar    1  UNL1        0.1104
      6 C           2.5151    2.7564    2.4901 C.ar    1  UNL1        0.0575
      7 N           1.5823    3.6897    2.7328 N.ar    1  UNL1       -0.2338
      8 C           0.3002    3.3855    2.3790 C.ar    1  UNL1        0.1574
      9 N          -0.8616    4.0702    2.4736 N.ar    1  UNL1       -0.3438
     10 C          -1.8434    3.3027    1.9703 C.ar    1  UNL1        0.0178
     11 C          -1.3369    2.0953    1.5355 C.ar    1  UNL1        0.0815
     12 C          -2.0623    0.9714    0.9216 C.2     1  UNL1        0.2481
     13 O          -2.6605    0.1251    1.6340 O.2     1  UNL1       -0.2701
     14 N          -2.1274    0.7815   -0.4854 N.am    1  UNL1       -0.3059
     15 C          -2.8311   -0.3095   -1.1189 C.3     1  UNL1        0.0344
     16 C          -2.2867   -1.6572   -0.6841 C.3     1  UNL1       -0.0436
     17 C          -4.3049   -0.2694   -0.7951 C.3     1  UNL1       -0.0192
     18 C          -5.0107   -1.2559   -1.7043 C.3     1  UNL1       -0.0022
     19 N          -4.9987   -0.7134   -3.0270 N.3     1  UNL1       -0.3158
     20 C          -3.9368    0.2083   -3.2893 C.3     1  UNL1       -0.0022
     21 C          -2.6693   -0.2448   -2.6172 C.3     1  UNL1       -0.0192
     22 C           0.0297    2.1607    1.8016 C.ar    1  UNL1        0.1202
     23 N           0.9935    1.2309    1.5658 N.ar    1  UNL1       -0.2397
     24 C           3.2714   -0.6788    1.1290 C.ar    1  UNL1        0.0293
     25 C           2.2074   -1.4123    0.6242 C.ar    1  UNL1       -0.0477
     26 C           2.3843   -2.6785    0.1028 C.ar    1  UNL1       -0.0257
     27 C           3.6393   -3.2471    0.0725 C.ar    1  UNL1        0.1254
     28 F           3.8138   -4.5067   -0.4467 F       1  UNL1       -0.2054
     29 C           4.7023   -2.5263    0.5715 C.ar    1  UNL1       -0.0008
     30 C           4.5213   -1.2442    1.0996 C.ar    1  UNL1        0.0720
     31 H           7.0470   -1.5904    1.8011 H       1  UNL1        0.0473
     32 H           7.3074   -0.0326    0.9815 H       1  UNL1        0.0473
     33 H           7.1445   -0.0858    2.7498 H       1  UNL1        0.0473
     34 H           3.5551    2.9480    2.7527 H       1  UNL1        0.0853
     35 H          -0.9104    5.0357    2.8835 H       1  UNL1        0.1668
     36 H          -2.8923    3.5843    1.9093 H       1  UNL1        0.0816
     37 H          -1.6414    1.4658   -1.1030 H       1  UNL1        0.1495
     38 H          -2.8621   -1.9886    0.1976 H       1  UNL1        0.0250
     39 H          -1.1968   -1.6269   -0.4999 H       1  UNL1        0.0250
     40 H          -2.4807   -2.4003   -1.4863 H       1  UNL1        0.0250
     41 H          -4.7377    0.7306   -1.0033 H       1  UNL1        0.0298
     42 H          -4.4272   -0.5371    0.2659 H       1  UNL1        0.0298
     43 H          -4.5067   -2.2298   -1.5952 H       1  UNL1        0.0425
     44 H          -6.0773   -1.3668   -1.3628 H       1  UNL1        0.0425
     45 H          -5.0403   -1.4446   -3.7574 H       1  UNL1        0.1219
     46 H          -3.7749    0.2695   -4.3854 H       1  UNL1        0.0425
     47 H          -4.1756    1.2421   -2.9361 H       1  UNL1        0.0425
     48 H          -1.8057    0.4260   -2.8774 H       1  UNL1        0.0298
     49 H          -2.4027   -1.2301   -3.0594 H       1  UNL1        0.0298
     50 H           1.2173   -0.9518    0.6526 H       1  UNL1        0.0626
     51 H           1.5644   -3.2589   -0.2933 H       1  UNL1        0.0646
     52 H           5.6689   -2.9645    0.5473 H       1  UNL1        0.0667
@<TRIPOS>BOND
     1     1     2    1
     2     2     3   ar
     3     3     4   ar
     4     4     5    1
     5     5     6   ar
     6     6     7   ar
     7     7     8   ar
     8     8     9   ar
     9     9    10   ar
    10    10    11   ar
    11    11    12    1
    12    12    13    2
    13    12    14   am
    14    14    15    1
    15    15    16    1
    16    15    17    1
    17    17    18    1
    18    18    19    1
    19    19    20    1
    20    20    21    1
    21    11    22   ar
    22    22    23   ar
    23     4    24   ar
    24    24    25   ar
    25    25    26   ar
    26    26    27   ar
    27    27    28    1
    28    27    29   ar
    29    29    30   ar
    30    30     2   ar
    31    23     5   ar
    32    30    24   ar
    33    22     8   ar
    34    21    15    1
    35     1    31    1
    36     1    32    1
    37     1    33    1
    38     6    34    1
    39     9    35    1
    40    10    36    1
    41    14    37    1
    42    16    38    1
    43    16    39    1
    44    16    40    1
    45    17    41    1
    46    17    42    1
    47    18    43    1
    48    18    44    1
    49    19    45    1
    50    20    46    1
    51    20    47    1
    52    21    48    1
    53    21    49    1
    54    25    50    1
    55    26    51    1
    56    29    52    1
