
     RDKit          3D

 52 56  0  0  0  0  0  0  0  0999 V2000
    6.7738   -0.5337    1.8007 C   0  0  0  0  0  0  0  0  0  0  0  0
    5.3545   -0.3436    1.6366 N   0  0  0  0  0  0  0  0  0  0  0  0
    4.6547    0.7471    1.9904 N   0  0  0  0  0  0  0  0  0  0  0  0
    3.3610    0.5744    1.6907 C   0  0  0  0  0  0  0  0  0  0  0  0
    2.2528    1.5282    1.9126 C   0  0  0  0  0  0  0  0  0  0  0  0
    2.5151    2.7564    2.4901 C   0  0  0  0  0  0  0  0  0  0  0  0
    1.5823    3.6897    2.7328 N   0  0  0  0  0  0  0  0  0  0  0  0
    0.3002    3.3855    2.3790 C   0  0  0  0  0  0  0  0  0  0  0  0
   -0.8616    4.0702    2.4736 N   0  0  0  0  0  0  0  0  0  0  0  0
   -1.8434    3.3027    1.9703 C   0  0  0  0  0  0  0  0  0  0  0  0
   -1.3369    2.0953    1.5355 C   0  0  0  0  0  0  0  0  0  0  0  0
   -2.0623    0.9714    0.9216 C   0  0  0  0  0  0  0  0  0  0  0  0
   -2.6605    0.1251    1.6340 O   0  0  0  0  0  0  0  0  0  0  0  0
   -2.1274    0.7815   -0.4854 N   0  0  0  0  0  0  0  0  0  0  0  0
   -2.8311   -0.3095   -1.1189 C   0  0  0  0  0  0  0  0  0  0  0  0
   -2.2867   -1.6572   -0.6841 C   0  0  0  0  0  0  0  0  0  0  0  0
   -4.3049   -0.2694   -0.7951 C   0  0  0  0  0  0  0  0  0  0  0  0
   -5.0107   -1.2559   -1.7043 C   0  0  0  0  0  0  0  0  0  0  0  0
   -4.9987   -0.7134   -3.0270 N   0  0  0  0  0  0  0  0  0  0  0  0
   -3.9368    0.2083   -3.2893 C   0  0  0  0  0  0  0  0  0  0  0  0
   -2.6693   -0.2448   -2.6172 C   0  0  0  0  0  0  0  0  0  0  0  0
    0.0297    2.1607    1.8016 C   0  0  0  0  0  0  0  0  0  0  0  0
    0.9935    1.2309    1.5658 N   0  0  0  0  0  0  0  0  0  0  0  0
    3.2714   -0.6788    1.1290 C   0  0  0  0  0  0  0  0  0  0  0  0
    2.2074   -1.4123    0.6242 C   0  0  0  0  0  0  0  0  0  0  0  0
    2.3843   -2.6785    0.1028 C   0  0  0  0  0  0  0  0  0  0  0  0
    3.6393   -3.2471    0.0725 C   0  0  0  0  0  0  0  0  0  0  0  0
    3.8138   -4.5067   -0.4467 F   0  0  0  0  0  0  0  0  0  0  0  0
    4.7023   -2.5263    0.5715 C   0  0  0  0  0  0  0  0  0  0  0  0
    4.5213   -1.2442    1.0996 C   0  0  0  0  0  0  0  0  0  0  0  0
    7.0470   -1.5904    1.8011 H   0  0  0  0  0  0  0  0  0  0  0  0
    7.3074   -0.0326    0.9815 H   0  0  0  0  0  0  0  0  0  0  0  0
    7.1445   -0.0858    2.7498 H   0  0  0  0  0  0  0  0  0  0  0  0
    3.5551    2.9480    2.7527 H   0  0  0  0  0  0  0  0  0  0  0  0
   -0.9104    5.0357    2.8835 H   0  0  0  0  0  0  0  0  0  0  0  0
   -2.8923    3.5843    1.9093 H   0  0  0  0  0  0  0  0  0  0  0  0
   -1.6414    1.4658   -1.1030 H   0  0  0  0  0  0  0  0  0  0  0  0
   -2.8621   -1.9886    0.1976 H   0  0  0  0  0  0  0  0  0  0  0  0
   -1.1968   -1.6269   -0.4999 H   0  0  0  0  0  0  0  0  0  0  0  0
   -2.4807   -2.4003   -1.4863 H   0  0  0  0  0  0  0  0  0  0  0  0
   -4.7377    0.7306   -1.0033 H   0  0  0  0  0  0  0  0  0  0  0  0
   -4.4272   -0.5371    0.2659 H   0  0  0  0  0  0  0  0  0  0  0  0
   -4.5067   -2.2298   -1.5952 H   0  0  0  0  0  0  0  0  0  0  0  0
   -6.0773   -1.3668   -1.3628 H   0  0  0  0  0  0  0  0  0  0  0  0
   -5.0403   -1.4446   -3.7574 H   0  0  0  0  0  0  0  0  0  0  0  0
   -3.7749    0.2695   -4.3854 H   0  0  0  0  0  0  0  0  0  0  0  0
   -4.1756    1.2421   -2.9361 H   0  0  0  0  0  0  0  0  0  0  0  0
   -1.8057    0.4260   -2.8774 H   0  0  0  0  0  0  0  0  0  0  0  0
   -2.4027   -1.2301   -3.0594 H   0  0  0  0  0  0  0  0  0  0  0  0
    1.2173   -0.9518    0.6526 H   0  0  0  0  0  0  0  0  0  0  0  0
    1.5644   -3.2589   -0.2933 H   0  0  0  0  0  0  0  0  0  0  0  0
    5.6689   -2.9645    0.5473 H   0  0  0  0  0  0  0  0  0  0  0  0
  1  2  1  0
  2  3  1  0
  3  4  2  0
  4  5  1  0
  5  6  2  0
  6  7  1  0
  7  8  2  0
  8  9  1  0
  9 10  1  0
 10 11  2  0
 11 12  1  0
 12 13  2  0
 12 14  1  0
 14 15  1  0
 15 16  1  0
 15 17  1  0
 17 18  1  0
 18 19  1  0
 19 20  1  0
 20 21  1  0
 11 22  1  0
 22 23  2  0
  4 24  1  0
 24 25  2  0
 25 26  1  0
 26 27  2  0
 27 28  1  0
 27 29  1  0
 29 30  2  0
 30  2  1  0
 23  5  1  0
 30 24  1  0
 22  8  1  0
 21 15  1  0
  1 31  1  0
  1 32  1  0
  1 33  1  0
  6 34  1  0
  9 35  1  0
 10 36  1  0
 14 37  1  0
 16 38  1  0
 16 39  1  0
 16 40  1  0
 17 41  1  0
 17 42  1  0
 18 43  1  0
 18 44  1  0
 19 45  1  0
 20 46  1  0
 20 47  1  0
 21 48  1  0
 21 49  1  0
 25 50  1  0
 26 51  1  0
 29 52  1  0
M  END
$$$$
