
     RDKit          3D

 56 60  0  0  0  0  0  0  0  0999 V2000
    2.8544    1.5269   -0.3071 C   0  0  0  0  0  0  0  0  0  0  0  0
    2.6173    0.3574    0.6279 C   0  0  1  0  0  0  0  0  0  0  0  0
    1.1782    0.0086    0.7556 C   0  0  0  0  0  0  0  0  0  0  0  0
    0.6839   -0.9850   -0.1604 N   0  0  0  0  0  0  0  0  0  0  0  0
   -0.7475   -1.0265   -0.3012 C   0  0  0  0  0  0  0  0  0  0  0  0
   -1.4728   -1.9941    0.3025 N   0  0  0  0  0  0  0  0  0  0  0  0
   -2.7846   -2.0529    0.2486 N   0  0  0  0  0  0  0  0  0  0  0  0
   -3.5357   -1.1326   -0.4285 C   0  0  0  0  0  0  0  0  0  0  0  0
   -4.9840   -1.2462   -0.3532 C   0  0  0  0  0  0  0  0  0  0  0  0
   -5.5888   -0.4770    0.7551 C   0  0  0  0  0  0  0  0  0  0  0  0
   -5.5827   -1.0361    2.0511 C   0  0  0  0  0  0  0  0  0  0  0  0
   -6.1482   -0.3459    3.0916 C   0  0  0  0  0  0  0  0  0  0  0  0
   -6.7300    0.8885    2.9259 C   0  0  0  0  0  0  0  0  0  0  0  0
   -6.7414    1.4419    1.6682 C   0  0  0  0  0  0  0  0  0  0  0  0
   -6.1673    0.7419    0.6086 C   0  0  0  0  0  0  0  0  0  0  0  0
   -2.8427   -0.1304   -1.0620 C   0  0  0  0  0  0  0  0  0  0  0  0
   -3.5351    0.8075   -1.7915 C   0  0  0  0  0  0  0  0  0  0  0  0
   -2.8082    1.7882   -2.4463 C   0  0  0  0  0  0  0  0  0  0  0  0
   -1.4323    1.8390   -2.3791 C   0  0  0  0  0  0  0  0  0  0  0  0
   -0.7256    0.9086   -1.6549 C   0  0  0  0  0  0  0  0  0  0  0  0
   -1.4462   -0.0723   -1.0001 C   0  0  0  0  0  0  0  0  0  0  0  0
    1.5966   -1.8311   -0.8547 C   0  0  0  0  0  0  0  0  0  0  0  0
    2.9008   -1.9935   -0.1064 C   0  0  0  0  0  0  0  0  0  0  0  0
    3.4804   -0.7033    0.2078 N   0  0  0  0  0  0  0  0  0  0  0  0
    4.8676   -0.4361    0.0867 C   0  0  0  0  0  0  0  0  0  0  0  0
    5.5162    0.4762    0.8780 C   0  0  0  0  0  0  0  0  0  0  0  0
    6.8756    0.7843    0.7397 C   0  0  0  0  0  0  0  0  0  0  0  0
    7.5941    0.1471   -0.2300 C   0  0  0  0  0  0  0  0  0  0  0  0
    8.9947    0.4155   -0.4501 C   0  0  0  0  0  0  0  0  0  0  0  0
   10.0961    0.6424   -0.6121 N   0  0  0  0  0  0  0  0  0  0  0  0
    6.9351   -0.7844   -1.0367 C   0  0  0  0  0  0  0  0  0  0  0  0
    5.6235   -1.0548   -0.8712 N   0  0  0  0  0  0  0  0  0  0  0  0
    2.1532    2.3748   -0.1213 H   0  0  0  0  0  0  0  0  0  0  0  0
    3.8733    1.9442   -0.2026 H   0  0  0  0  0  0  0  0  0  0  0  0
    2.7340    1.2479   -1.3737 H   0  0  0  0  0  0  0  0  0  0  0  0
    2.9570    0.7131    1.6377 H   0  0  0  0  0  0  0  0  0  0  0  0
    1.0546   -0.4573    1.7819 H   0  0  0  0  0  0  0  0  0  0  0  0
    0.5841    0.9369    0.7643 H   0  0  0  0  0  0  0  0  0  0  0  0
   -5.3081   -2.3133   -0.1715 H   0  0  0  0  0  0  0  0  0  0  0  0
   -5.5211   -0.9637   -1.2870 H   0  0  0  0  0  0  0  0  0  0  0  0
   -5.1166   -2.0178    2.1640 H   0  0  0  0  0  0  0  0  0  0  0  0
   -6.1433   -0.7761    4.0957 H   0  0  0  0  0  0  0  0  0  0  0  0
   -7.1769    1.4266    3.7790 H   0  0  0  0  0  0  0  0  0  0  0  0
   -7.1979    2.4144    1.5120 H   0  0  0  0  0  0  0  0  0  0  0  0
   -6.2315    1.2520   -0.3461 H   0  0  0  0  0  0  0  0  0  0  0  0
   -4.6054    0.7533   -1.8594 H   0  0  0  0  0  0  0  0  0  0  0  0
   -3.3559    2.5049   -3.0081 H   0  0  0  0  0  0  0  0  0  0  0  0
   -0.8392    2.6095   -2.8852 H   0  0  0  0  0  0  0  0  0  0  0  0
    0.3541    0.9342   -1.6015 H   0  0  0  0  0  0  0  0  0  0  0  0
    1.2177   -2.8454   -1.0666 H   0  0  0  0  0  0  0  0  0  0  0  0
    1.8718   -1.3651   -1.8433 H   0  0  0  0  0  0  0  0  0  0  0  0
    2.7080   -2.4956    0.8700 H   0  0  0  0  0  0  0  0  0  0  0  0
    3.6346   -2.5635   -0.6852 H   0  0  0  0  0  0  0  0  0  0  0  0
    4.9533    0.9743    1.6536 H   0  0  0  0  0  0  0  0  0  0  0  0
    7.3316    1.5194    1.4028 H   0  0  0  0  0  0  0  0  0  0  0  0
    7.5273   -1.2794   -1.7992 H   0  0  0  0  0  0  0  0  0  0  0  0
  1  2  1  0
  2  3  1  0
  3  4  1  0
  4  5  1  0
  5  6  2  0
  6  7  1  0
  7  8  2  0
  8  9  1  0
  9 10  1  0
 10 11  2  0
 11 12  1  0
 12 13  2  0
 13 14  1  0
 14 15  2  0
  8 16  1  0
 16 17  2  0
 17 18  1  0
 18 19  2  0
 19 20  1  0
 20 21  2  0
  4 22  1  0
 22 23  1  0
 23 24  1  0
 24 25  1  0
 25 26  2  0
 26 27  1  0
 27 28  2  0
 28 29  1  0
 29 30  3  0
 28 31  1  0
 31 32  2  0
 24  2  1  0
 32 25  1  0
 21  5  1  0
 15 10  1  0
 21 16  1  0
  1 33  1  0
  1 34  1  0
  1 35  1  0
  2 36  1  1
  3 37  1  0
  3 38  1  0
  9 39  1  0
  9 40  1  0
 11 41  1  0
 12 42  1  0
 13 43  1  0
 14 44  1  0
 15 45  1  0
 17 46  1  0
 18 47  1  0
 19 48  1  0
 20 49  1  0
 22 50  1  0
 22 51  1  0
 23 52  1  0
 23 53  1  0
 26 54  1  0
 27 55  1  0
 31 56  1  0
M  END
$$$$
