@<TRIPOS>MOLECULE
*****
 56 60 0 0 0
SMALL
GASTEIGER

@<TRIPOS>ATOM
      1 C           2.8544    1.5269   -0.3071 C.3     1  UNL1       -0.0450
      2 C           2.6173    0.3574    0.6279 C.3     1  UNL1        0.0378
      3 C           1.1782    0.0086    0.7556 C.3     1  UNL1        0.0320
      4 N           0.6839   -0.9850   -0.1604 N.pl3   1  UNL1       -0.3100
      5 C          -0.7475   -1.0265   -0.3012 C.ar    1  UNL1        0.1516
      6 N          -1.4728   -1.9941    0.3025 N.ar    1  UNL1       -0.1333
      7 N          -2.7846   -2.0529    0.2486 N.ar    1  UNL1       -0.1515
      8 C          -3.5357   -1.1326   -0.4285 C.ar    1  UNL1        0.0757
      9 C          -4.9840   -1.2462   -0.3532 C.3     1  UNL1        0.0172
     10 C          -5.5888   -0.4770    0.7551 C.ar    1  UNL1       -0.0415
     11 C          -5.5827   -1.0361    2.0511 C.ar    1  UNL1       -0.0582
     12 C          -6.1482   -0.3459    3.0916 C.ar    1  UNL1       -0.0615
     13 C          -6.7300    0.8885    2.9259 C.ar    1  UNL1       -0.0617
     14 C          -6.7414    1.4419    1.6682 C.ar    1  UNL1       -0.0615
     15 C          -6.1673    0.7419    0.6086 C.ar    1  UNL1       -0.0582
     16 C          -2.8427   -0.1304   -1.0620 C.ar    1  UNL1        0.0088
     17 C          -3.5351    0.8075   -1.7915 C.ar    1  UNL1       -0.0521
     18 C          -2.8082    1.7882   -2.4463 C.ar    1  UNL1       -0.0611
     19 C          -1.4323    1.8390   -2.3791 C.ar    1  UNL1       -0.0611
     20 C          -0.7256    0.9086   -1.6549 C.ar    1  UNL1       -0.0506
     21 C          -1.4462   -0.0723   -1.0001 C.ar    1  UNL1        0.0256
     22 C           1.5966   -1.8311   -0.8547 C.3     1  UNL1        0.0294
     23 C           2.9008   -1.9935   -0.1064 C.3     1  UNL1        0.0296
     24 N           3.4804   -0.7033    0.2078 N.pl3   1  UNL1       -0.3094
     25 C           4.8676   -0.4361    0.0867 C.ar    1  UNL1        0.1216
     26 C           5.5162    0.4762    0.8780 C.ar    1  UNL1       -0.0205
     27 C           6.8756    0.7843    0.7397 C.ar    1  UNL1       -0.0396
     28 C           7.5941    0.1471   -0.2300 C.ar    1  UNL1        0.0699
     29 C           8.9947    0.4155   -0.4501 C.1     1  UNL1        0.1007
     30 N          10.0961    0.6424   -0.6121 N.1     1  UNL1       -0.1908
     31 C           6.9351   -0.7844   -1.0367 C.ar    1  UNL1        0.0470
     32 N           5.6235   -1.0548   -0.8712 N.ar    1  UNL1       -0.2390
     33 H           2.1532    2.3748   -0.1213 H       1  UNL1        0.0248
     34 H           3.8733    1.9442   -0.2026 H       1  UNL1        0.0248
     35 H           2.7340    1.2479   -1.3737 H       1  UNL1        0.0248
     36 H           2.9570    0.7131    1.6377 H       1  UNL1        0.0513
     37 H           1.0546   -0.4573    1.7819 H       1  UNL1        0.0482
     38 H           0.5841    0.9369    0.7643 H       1  UNL1        0.0482
     39 H          -5.3081   -2.3133   -0.1715 H       1  UNL1        0.0377
     40 H          -5.5211   -0.9637   -1.2870 H       1  UNL1        0.0377
     41 H          -5.1166   -2.0178    2.1640 H       1  UNL1        0.0620
     42 H          -6.1433   -0.7761    4.0957 H       1  UNL1        0.0618
     43 H          -7.1769    1.4266    3.7790 H       1  UNL1        0.0618
     44 H          -7.1979    2.4144    1.5120 H       1  UNL1        0.0618
     45 H          -6.2315    1.2520   -0.3461 H       1  UNL1        0.0620
     46 H          -4.6054    0.7533   -1.8594 H       1  UNL1        0.0624
     47 H          -3.3559    2.5049   -3.0081 H       1  UNL1        0.0618
     48 H          -0.8392    2.6095   -2.8852 H       1  UNL1        0.0618
     49 H           0.3541    0.9342   -1.6015 H       1  UNL1        0.0625
     50 H           1.2177   -2.8454   -1.0666 H       1  UNL1        0.0480
     51 H           1.8718   -1.3651   -1.8433 H       1  UNL1        0.0480
     52 H           2.7080   -2.4956    0.8700 H       1  UNL1        0.0480
     53 H           3.6346   -2.5635   -0.6852 H       1  UNL1        0.0480
     54 H           4.9533    0.9743    1.6536 H       1  UNL1        0.0652
     55 H           7.3316    1.5194    1.4028 H       1  UNL1        0.0632
     56 H           7.5273   -1.2794   -1.7992 H       1  UNL1        0.0843
@<TRIPOS>BOND
     1     1     2    1
     2     2     3    1
     3     3     4    1
     4     4     5    1
     5     5     6   ar
     6     6     7   ar
     7     7     8   ar
     8     8     9    1
     9     9    10    1
    10    10    11   ar
    11    11    12   ar
    12    12    13   ar
    13    13    14   ar
    14    14    15   ar
    15     8    16   ar
    16    16    17   ar
    17    17    18   ar
    18    18    19   ar
    19    19    20   ar
    20    20    21   ar
    21     4    22    1
    22    22    23    1
    23    23    24    1
    24    24    25    1
    25    25    26   ar
    26    26    27   ar
    27    27    28   ar
    28    28    29    1
    29    29    30    3
    30    28    31   ar
    31    31    32   ar
    32    24     2    1
    33    32    25   ar
    34    21     5   ar
    35    15    10   ar
    36    21    16   ar
    37     1    33    1
    38     1    34    1
    39     1    35    1
    40     2    36    1
    41     3    37    1
    42     3    38    1
    43     9    39    1
    44     9    40    1
    45    11    41    1
    46    12    42    1
    47    13    43    1
    48    14    44    1
    49    15    45    1
    50    17    46    1
    51    18    47    1
    52    19    48    1
    53    20    49    1
    54    22    50    1
    55    22    51    1
    56    23    52    1
    57    23    53    1
    58    26    54    1
    59    27    55    1
    60    31    56    1
