@<TRIPOS>MOLECULE
*****
 55 58 0 0 0
SMALL
GASTEIGER

@<TRIPOS>ATOM
      1 C           0.9328    0.5793    0.5904 C.3     1  UNL1       -0.0242
      2 C           2.0420    1.5297    0.3936 C.3     1  UNL1       -0.0199
      3 C           3.1765    0.5790    0.8165 C.3     1  UNL1        0.0917
      4 O           2.9535    0.2507    2.1506 O.3     1  UNL1       -0.3885
      5 C           2.8212   -0.6281   -0.0266 C.3     1  UNL1        0.1570
      6 O           3.0173   -1.7667    0.7717 O.3     1  UNL1       -0.3778
      7 C           3.6858   -0.7858   -1.1970 C.2     1  UNL1        0.1927
      8 O           4.2934   -1.8596   -1.0839 O.2     1  UNL1       -0.2918
      9 C           4.5014   -0.8145   -2.4179 C.3     1  UNL1        0.1053
     10 O           5.2881   -1.9385   -2.5362 O.3     1  UNL1       -0.3874
     11 C           1.3540   -0.5653   -0.3188 C.3     1  UNL1        0.0119
     12 C           1.0519   -0.3012   -1.7697 C.3     1  UNL1       -0.0561
     13 C           0.5763   -1.7350    0.1647 C.3     1  UNL1       -0.0150
     14 C          -0.8703   -1.5198    0.3400 C.3     1  UNL1        0.0910
     15 O          -1.5209   -2.0496   -0.7957 O.3     1  UNL1       -0.3886
     16 C          -1.3304   -0.1452    0.6563 C.3     1  UNL1        0.1526
     17 F          -1.3403    0.0103    2.0514 F       1  UNL1       -0.2377
     18 C          -0.4357    0.9593    0.1616 C.3     1  UNL1        0.0004
     19 C          -0.8569    2.2617    0.8201 C.3     1  UNL1       -0.0432
     20 C          -2.2209    2.5674    0.1828 C.3     1  UNL1       -0.0301
     21 C          -3.1197    1.5000    0.7511 C.2     1  UNL1       -0.0532
     22 C          -4.0934    1.8021    1.5959 C.2     1  UNL1       -0.0148
     23 C          -4.8920    0.6917    2.0756 C.2     1  UNL1        0.1787
     24 O          -5.8209    0.9652    2.8791 O.2     1  UNL1       -0.2879
     25 C          -4.6815   -0.6846    1.6874 C.2     1  UNL1       -0.0180
     26 C          -3.6830   -0.8757    0.8397 C.2     1  UNL1       -0.0674
     27 C          -2.7574    0.1350    0.2400 C.3     1  UNL1        0.0443
     28 C          -2.9827    0.1295   -1.2352 C.3     1  UNL1       -0.0493
     29 H           0.9214    0.1933    1.6238 H       1  UNL1        0.0312
     30 H           2.0115    2.4407    1.0040 H       1  UNL1        0.0294
     31 H           2.2453    1.7304   -0.6829 H       1  UNL1        0.0294
     32 H           4.1654    0.9795    0.6567 H       1  UNL1        0.0627
     33 H           3.7574   -0.1298    2.5585 H       1  UNL1        0.2099
     34 H           3.9631   -1.8560    1.0624 H       1  UNL1        0.2109
     35 H           5.2060    0.0650   -2.3406 H       1  UNL1        0.0637
     36 H           3.9503   -0.6620   -3.3450 H       1  UNL1        0.0637
     37 H           5.2303   -2.3446   -3.4558 H       1  UNL1        0.2100
     38 H           0.0493   -0.7411   -1.9774 H       1  UNL1        0.0236
     39 H           1.7625   -0.8840   -2.3890 H       1  UNL1        0.0236
     40 H           1.1111    0.7399   -2.0814 H       1  UNL1        0.0236
     41 H           0.7796   -2.5893   -0.5166 H       1  UNL1        0.0297
     42 H           1.0513   -2.0502    1.1404 H       1  UNL1        0.0297
     43 H          -1.2164   -2.1899    1.1769 H       1  UNL1        0.0626
     44 H          -1.4881   -3.0554   -0.7239 H       1  UNL1        0.2099
     45 H          -0.5164    1.1306   -0.9172 H       1  UNL1        0.0336
     46 H          -0.9892    2.1309    1.9117 H       1  UNL1        0.0272
     47 H          -0.1648    3.0807    0.5461 H       1  UNL1        0.0272
     48 H          -2.5972    3.5573    0.4415 H       1  UNL1        0.0310
     49 H          -2.0684    2.4031   -0.9042 H       1  UNL1        0.0310
     50 H          -4.2587    2.8126    1.8895 H       1  UNL1        0.0656
     51 H          -5.2517   -1.5226    2.0229 H       1  UNL1        0.0653
     52 H          -3.4653   -1.8868    0.5032 H       1  UNL1        0.0583
     53 H          -3.4343   -0.8502   -1.5703 H       1  UNL1        0.0242
     54 H          -3.7329    0.9099   -1.5568 H       1  UNL1        0.0242
     55 H          -2.1092    0.2967   -1.8638 H       1  UNL1        0.0242
@<TRIPOS>BOND
     1     1     2    1
     2     2     3    1
     3     3     4    1
     4     3     5    1
     5     5     6    1
     6     5     7    1
     7     7     8    2
     8     7     9    1
     9     9    10    1
    10     5    11    1
    11    11    12    1
    12    11    13    1
    13    13    14    1
    14    14    15    1
    15    14    16    1
    16    16    17    1
    17    16    18    1
    18    18    19    1
    19    19    20    1
    20    20    21    1
    21    21    22    2
    22    22    23    1
    23    23    24    2
    24    23    25    1
    25    25    26    2
    26    26    27    1
    27    27    28    1
    28    11     1    1
    29    27    16    1
    30    18     1    1
    31    27    21    1
    32     1    29    1
    33     2    30    1
    34     2    31    1
    35     3    32    1
    36     4    33    1
    37     6    34    1
    38     9    35    1
    39     9    36    1
    40    10    37    1
    41    12    38    1
    42    12    39    1
    43    12    40    1
    44    13    41    1
    45    13    42    1
    46    14    43    1
    47    15    44    1
    48    18    45    1
    49    19    46    1
    50    19    47    1
    51    20    48    1
    52    20    49    1
    53    22    50    1
    54    25    51    1
    55    26    52    1
    56    28    53    1
    57    28    54    1
    58    28    55    1
