@<TRIPOS>MOLECULE
*****
 58 62 0 0 0
SMALL
GASTEIGER

@<TRIPOS>ATOM
      1 N          -8.6536    0.9940    1.9618 N.pl3   1  UNL1       -0.3134
      2 C          -7.8534    0.3347    0.9402 C.2     1  UNL1        0.2764
      3 N          -6.6130    0.1271    1.1232 N.2     1  UNL1       -0.2194
      4 C          -5.7281   -0.5007    0.2132 C.3     1  UNL1        0.1603
      5 C          -4.6536    0.4649   -0.1606 C.ar    1  UNL1        0.0228
      6 C          -3.3318    0.2578    0.0192 C.ar    1  UNL1       -0.0321
      7 C          -2.3363    1.1535   -0.3457 C.ar    1  UNL1        0.0342
      8 N          -0.9784    0.7820   -0.0844 N.am    1  UNL1       -0.2802
      9 C           0.1645    1.5415   -0.3773 C.2     1  UNL1        0.2681
     10 O           0.0714    2.6615   -0.9187 O.2     1  UNL1       -0.2681
     11 C           1.5076    1.0298   -0.0498 C.ar    1  UNL1        0.1439
     12 C           2.6421    1.7562   -0.3273 C.ar    1  UNL1        0.0619
     13 N           3.8712    1.2663   -0.0172 N.ar    1  UNL1       -0.2177
     14 C           4.0254    0.0651    0.5669 C.ar    1  UNL1        0.2335
     15 O           5.2762   -0.4623    0.8962 O.3     1  UNL1       -0.4751
     16 C           6.4785    0.1983    0.6543 C.3     1  UNL1        0.0941
     17 C           7.6013   -0.7111    1.1586 C.3     1  UNL1       -0.0067
     18 C           8.9437   -0.0692    0.9342 C.3     1  UNL1       -0.0471
     19 C           9.0417   -0.0496   -0.5802 C.3     1  UNL1       -0.0527
     20 C           8.2983   -1.2798   -1.0390 C.3     1  UNL1       -0.0527
     21 C           7.6554   -1.8839    0.1921 C.3     1  UNL1       -0.0471
     22 C           2.8852   -0.6586    0.8427 C.ar    1  UNL1        0.0899
     23 N           1.6484   -0.1718    0.5337 N.ar    1  UNL1       -0.2435
     24 C          -2.7171    2.3252   -0.9270 C.ar    1  UNL1       -0.0377
     25 C          -4.0780    2.5813   -1.1331 C.ar    1  UNL1       -0.0243
     26 C          -5.0342    1.6762   -0.7611 C.ar    1  UNL1        0.1292
     27 F          -6.3203    1.9778   -0.9842 F       1  UNL1       -0.2051
     28 C          -5.0770   -1.7158    0.8841 C.3     1  UNL1        0.2686
     29 F          -4.3770   -1.3713    2.0202 F       1  UNL1       -0.2062
     30 F          -6.0416   -2.6158    1.2820 F       1  UNL1       -0.2062
     31 C          -6.3504   -1.0001   -1.0599 C.3     1  UNL1        0.0344
     32 C          -7.3296   -2.0935   -1.1045 C.3     1  UNL1       -0.0064
     33 C          -7.7424   -0.6593   -1.2733 C.3     1  UNL1        0.1091
     34 O          -8.4407   -0.0710   -0.2395 O.2     1  UNL1       -0.4622
     35 H          -8.9822    1.9463    1.7158 H       1  UNL1        0.1466
     36 H          -8.8451    0.5034    2.8394 H       1  UNL1        0.1466
     37 H          -2.9990   -0.6687    0.4670 H       1  UNL1        0.0640
     38 H          -0.7733   -0.1607    0.3792 H       1  UNL1        0.1552
     39 H           2.5093    2.7219   -0.7974 H       1  UNL1        0.0854
     40 H           6.6362    0.5010   -0.3806 H       1  UNL1        0.0700
     41 H           6.4838    1.1241    1.2799 H       1  UNL1        0.0700
     42 H           7.4045   -1.0058    2.1882 H       1  UNL1        0.0334
     43 H           9.0248    0.9453    1.3761 H       1  UNL1        0.0269
     44 H           9.7047   -0.7482    1.3771 H       1  UNL1        0.0269
     45 H          10.0927   -0.1326   -0.9233 H       1  UNL1        0.0265
     46 H           8.5645    0.8953   -0.9246 H       1  UNL1        0.0265
     47 H           8.9527   -2.0248   -1.4903 H       1  UNL1        0.0265
     48 H           7.4686   -0.9387   -1.7029 H       1  UNL1        0.0265
     49 H           8.2808   -2.6753    0.6449 H       1  UNL1        0.0269
     50 H           6.6118   -2.2071    0.0033 H       1  UNL1        0.0269
     51 H           3.0000   -1.6182    1.3088 H       1  UNL1        0.0884
     52 H          -1.9870    3.0481   -1.2260 H       1  UNL1        0.0637
     53 H          -4.3052    3.5336   -1.6008 H       1  UNL1        0.0647
     54 H          -4.4416   -2.2483    0.1387 H       1  UNL1        0.1047
     55 H          -5.6643   -0.9561   -1.9464 H       1  UNL1        0.0366
     56 H          -7.7513   -2.6053   -0.2337 H       1  UNL1        0.0306
     57 H          -7.3667   -2.7525   -2.0201 H       1  UNL1        0.0306
     58 H          -8.0732   -0.3566   -2.2978 H       1  UNL1        0.0737
@<TRIPOS>BOND
     1     1     2    1
     2     2     3    2
     3     3     4    1
     4     4     5    1
     5     5     6   ar
     6     6     7   ar
     7     7     8    1
     8     8     9   am
     9     9    10    2
    10     9    11    1
    11    11    12   ar
    12    12    13   ar
    13    13    14   ar
    14    14    15    1
    15    15    16    1
    16    16    17    1
    17    17    18    1
    18    18    19    1
    19    19    20    1
    20    20    21    1
    21    14    22   ar
    22    22    23   ar
    23     7    24   ar
    24    24    25   ar
    25    25    26   ar
    26    26    27    1
    27     4    28    1
    28    28    29    1
    29    28    30    1
    30     4    31    1
    31    31    32    1
    32    32    33    1
    33    33    34    1
    34    34     2    1
    35    26     5   ar
    36    33    31    1
    37    23    11   ar
    38    21    17    1
    39     1    35    1
    40     1    36    1
    41     6    37    1
    42     8    38    1
    43    12    39    1
    44    16    40    1
    45    16    41    1
    46    17    42    1
    47    18    43    1
    48    18    44    1
    49    19    45    1
    50    19    46    1
    51    20    47    1
    52    20    48    1
    53    21    49    1
    54    21    50    1
    55    22    51    1
    56    24    52    1
    57    25    53    1
    58    28    54    1
    59    31    55    1
    60    32    56    1
    61    32    57    1
    62    33    58    1
