
     RDKit          3D

 58 62  0  0  0  0  0  0  0  0999 V2000
   -8.6536    0.9940    1.9618 N   0  0  0  0  0  0  0  0  0  0  0  0
   -7.8534    0.3347    0.9402 C   0  0  0  0  0  0  0  0  0  0  0  0
   -6.6130    0.1271    1.1232 N   0  0  0  0  0  0  0  0  0  0  0  0
   -5.7281   -0.5007    0.2132 C   0  0  1  0  0  0  0  0  0  0  0  0
   -4.6536    0.4649   -0.1606 C   0  0  0  0  0  0  0  0  0  0  0  0
   -3.3318    0.2578    0.0192 C   0  0  0  0  0  0  0  0  0  0  0  0
   -2.3363    1.1535   -0.3457 C   0  0  0  0  0  0  0  0  0  0  0  0
   -0.9784    0.7820   -0.0844 N   0  0  0  0  0  0  0  0  0  0  0  0
    0.1645    1.5415   -0.3773 C   0  0  0  0  0  0  0  0  0  0  0  0
    0.0714    2.6615   -0.9187 O   0  0  0  0  0  0  0  0  0  0  0  0
    1.5076    1.0298   -0.0498 C   0  0  0  0  0  0  0  0  0  0  0  0
    2.6421    1.7562   -0.3273 C   0  0  0  0  0  0  0  0  0  0  0  0
    3.8712    1.2663   -0.0172 N   0  0  0  0  0  0  0  0  0  0  0  0
    4.0254    0.0651    0.5669 C   0  0  0  0  0  0  0  0  0  0  0  0
    5.2762   -0.4623    0.8962 O   0  0  0  0  0  0  0  0  0  0  0  0
    6.4785    0.1983    0.6543 C   0  0  0  0  0  0  0  0  0  0  0  0
    7.6013   -0.7111    1.1586 C   0  0  0  0  0  0  0  0  0  0  0  0
    8.9437   -0.0692    0.9342 C   0  0  0  0  0  0  0  0  0  0  0  0
    9.0417   -0.0496   -0.5802 C   0  0  0  0  0  0  0  0  0  0  0  0
    8.2983   -1.2798   -1.0390 C   0  0  0  0  0  0  0  0  0  0  0  0
    7.6554   -1.8839    0.1921 C   0  0  0  0  0  0  0  0  0  0  0  0
    2.8852   -0.6586    0.8427 C   0  0  0  0  0  0  0  0  0  0  0  0
    1.6484   -0.1718    0.5337 N   0  0  0  0  0  0  0  0  0  0  0  0
   -2.7171    2.3252   -0.9270 C   0  0  0  0  0  0  0  0  0  0  0  0
   -4.0780    2.5813   -1.1331 C   0  0  0  0  0  0  0  0  0  0  0  0
   -5.0342    1.6762   -0.7611 C   0  0  0  0  0  0  0  0  0  0  0  0
   -6.3203    1.9778   -0.9842 F   0  0  0  0  0  0  0  0  0  0  0  0
   -5.0770   -1.7158    0.8841 C   0  0  0  0  0  0  0  0  0  0  0  0
   -4.3770   -1.3713    2.0202 F   0  0  0  0  0  0  0  0  0  0  0  0
   -6.0416   -2.6158    1.2820 F   0  0  0  0  0  0  0  0  0  0  0  0
   -6.3504   -1.0001   -1.0599 C   0  0  1  0  0  0  0  0  0  0  0  0
   -7.3296   -2.0935   -1.1045 C   0  0  0  0  0  0  0  0  0  0  0  0
   -7.7424   -0.6593   -1.2733 C   0  0  1  0  0  0  0  0  0  0  0  0
   -8.4407   -0.0710   -0.2395 O   0  0  0  0  0  0  0  0  0  0  0  0
   -8.9822    1.9463    1.7158 H   0  0  0  0  0  0  0  0  0  0  0  0
   -8.8451    0.5034    2.8394 H   0  0  0  0  0  0  0  0  0  0  0  0
   -2.9990   -0.6687    0.4670 H   0  0  0  0  0  0  0  0  0  0  0  0
   -0.7733   -0.1607    0.3792 H   0  0  0  0  0  0  0  0  0  0  0  0
    2.5093    2.7219   -0.7974 H   0  0  0  0  0  0  0  0  0  0  0  0
    6.6362    0.5010   -0.3806 H   0  0  0  0  0  0  0  0  0  0  0  0
    6.4838    1.1241    1.2799 H   0  0  0  0  0  0  0  0  0  0  0  0
    7.4045   -1.0058    2.1882 H   0  0  0  0  0  0  0  0  0  0  0  0
    9.0248    0.9453    1.3761 H   0  0  0  0  0  0  0  0  0  0  0  0
    9.7047   -0.7482    1.3771 H   0  0  0  0  0  0  0  0  0  0  0  0
   10.0927   -0.1326   -0.9233 H   0  0  0  0  0  0  0  0  0  0  0  0
    8.5645    0.8953   -0.9246 H   0  0  0  0  0  0  0  0  0  0  0  0
    8.9527   -2.0248   -1.4903 H   0  0  0  0  0  0  0  0  0  0  0  0
    7.4686   -0.9387   -1.7029 H   0  0  0  0  0  0  0  0  0  0  0  0
    8.2808   -2.6753    0.6449 H   0  0  0  0  0  0  0  0  0  0  0  0
    6.6118   -2.2071    0.0033 H   0  0  0  0  0  0  0  0  0  0  0  0
    3.0000   -1.6182    1.3088 H   0  0  0  0  0  0  0  0  0  0  0  0
   -1.9870    3.0481   -1.2260 H   0  0  0  0  0  0  0  0  0  0  0  0
   -4.3052    3.5336   -1.6008 H   0  0  0  0  0  0  0  0  0  0  0  0
   -4.4416   -2.2483    0.1387 H   0  0  0  0  0  0  0  0  0  0  0  0
   -5.6643   -0.9561   -1.9464 H   0  0  0  0  0  0  0  0  0  0  0  0
   -7.7513   -2.6053   -0.2337 H   0  0  0  0  0  0  0  0  0  0  0  0
   -7.3667   -2.7525   -2.0201 H   0  0  0  0  0  0  0  0  0  0  0  0
   -8.0732   -0.3566   -2.2978 H   0  0  0  0  0  0  0  0  0  0  0  0
  1  2  1  0
  2  3  2  0
  3  4  1  0
  4  5  1  0
  5  6  2  0
  6  7  1  0
  7  8  1  0
  8  9  1  0
  9 10  2  0
  9 11  1  0
 11 12  2  0
 12 13  1  0
 13 14  2  0
 14 15  1  0
 15 16  1  0
 16 17  1  0
 17 18  1  0
 18 19  1  0
 19 20  1  0
 20 21  1  0
 14 22  1  0
 22 23  2  0
  7 24  2  0
 24 25  1  0
 25 26  2  0
 26 27  1  0
  4 28  1  1
 28 29  1  0
 28 30  1  0
  4 31  1  0
 31 32  1  0
 32 33  1  0
 33 34  1  0
 34  2  1  0
 26  5  1  0
 33 31  1  0
 23 11  1  0
 21 17  1  0
  1 35  1  0
  1 36  1  0
  6 37  1  0
  8 38  1  0
 12 39  1  0
 16 40  1  0
 16 41  1  0
 17 42  1  0
 18 43  1  0
 18 44  1  0
 19 45  1  0
 19 46  1  0
 20 47  1  0
 20 48  1  0
 21 49  1  0
 21 50  1  0
 22 51  1  0
 24 52  1  0
 25 53  1  0
 28 54  1  0
 31 55  1  6
 32 56  1  0
 32 57  1  0
 33 58  1  6
M  END
$$$$
