@<TRIPOS>MOLECULE
*****
 43 45 0 0 0
SMALL
GASTEIGER

@<TRIPOS>ATOM
      1 O           0.4293    0.2973   -0.2476 O.2     1  UNL1       -0.2698
      2 C           0.9204   -0.8674   -0.3512 C.2     1  UNL1        0.2500
      3 N           2.2990   -0.8589   -0.6744 N.am    1  UNL1       -0.2814
      4 C           3.0432    0.3593   -0.8609 C.ar    1  UNL1        0.0342
      5 C           3.0967    0.8886   -2.1258 C.ar    1  UNL1       -0.0404
      6 C           3.7775    2.0480   -2.4238 C.ar    1  UNL1       -0.0595
      7 C           4.4277    2.6870   -1.3815 C.ar    1  UNL1       -0.0500
      8 C           4.3810    2.1646   -0.1062 C.ar    1  UNL1        0.0566
      9 C           5.0914    2.8800    0.9836 C.3     1  UNL1        0.4175
     10 F           5.9397    3.8325    0.4532 F       1  UNL1       -0.1659
     11 F           5.9178    1.9296    1.5991 F       1  UNL1       -0.1659
     12 F           4.2402    3.4510    1.8943 F       1  UNL1       -0.1659
     13 C           3.6870    1.0010    0.1459 C.ar    1  UNL1       -0.0288
     14 C           0.1026   -2.0404   -0.1479 C.ar    1  UNL1        0.0578
     15 C           0.7484   -3.2773   -0.2869 C.ar    1  UNL1       -0.0478
     16 C           0.1182   -4.4881   -0.1271 C.ar    1  UNL1       -0.0609
     17 C          -1.2154   -4.4910    0.1854 C.ar    1  UNL1       -0.0600
     18 C          -1.8737   -3.3042    0.3279 C.ar    1  UNL1       -0.0401
     19 C          -1.2168   -2.0624    0.1616 C.ar    1  UNL1        0.0396
     20 N          -1.9409   -0.8712    0.3194 N.pl3   1  UNL1       -0.3391
     21 C          -3.3513   -0.9454    0.6508 C.3     1  UNL1        0.0345
     22 C          -3.9627    0.4137    0.7806 C.ar    1  UNL1       -0.0276
     23 C          -4.5262    1.0603   -0.2983 C.ar    1  UNL1       -0.0389
     24 C          -5.0865    2.3061   -0.1788 C.ar    1  UNL1        0.0279
     25 N          -5.0825    2.9050    1.0219 N.ar    1  UNL1       -0.2632
     26 C          -4.5419    2.3010    2.0894 C.ar    1  UNL1        0.0279
     27 C          -3.9714    1.0491    2.0002 C.ar    1  UNL1       -0.0389
     28 H           2.8053   -1.7450   -0.7842 H       1  UNL1        0.1551
     29 H           2.5839    0.3822   -2.9409 H       1  UNL1        0.0636
     30 H           3.7918    2.4298   -3.4429 H       1  UNL1        0.0618
     31 H           4.9592    3.5979   -1.6308 H       1  UNL1        0.0623
     32 H           3.6512    0.5940    1.1417 H       1  UNL1        0.0642
     33 H           1.7820   -3.3111   -0.5288 H       1  UNL1        0.0626
     34 H           0.6335   -5.4213   -0.2386 H       1  UNL1        0.0618
     35 H          -1.7214   -5.4378    0.3135 H       1  UNL1        0.0618
     36 H          -2.9190   -3.2426    0.5723 H       1  UNL1        0.0636
     37 H          -1.5461    0.0510    0.2177 H       1  UNL1        0.1464
     38 H          -3.4958   -1.5412    1.5743 H       1  UNL1        0.0511
     39 H          -3.8509   -1.4320   -0.2306 H       1  UNL1        0.0511
     40 H          -4.5139    0.5471   -1.2615 H       1  UNL1        0.0636
     41 H          -5.5291    2.8009   -1.0519 H       1  UNL1        0.0829
     42 H          -4.5536    2.8077    3.0423 H       1  UNL1        0.0829
     43 H          -3.5279    0.5524    2.8737 H       1  UNL1        0.0636
@<TRIPOS>BOND
     1     1     2    2
     2     2     3   am
     3     3     4    1
     4     4     5   ar
     5     5     6   ar
     6     6     7   ar
     7     7     8   ar
     8     8     9    1
     9     9    10    1
    10     9    11    1
    11     9    12    1
    12     8    13   ar
    13     2    14    1
    14    14    15   ar
    15    15    16   ar
    16    16    17   ar
    17    17    18   ar
    18    18    19   ar
    19    19    20    1
    20    20    21    1
    21    21    22    1
    22    22    23   ar
    23    23    24   ar
    24    24    25   ar
    25    25    26   ar
    26    26    27   ar
    27    13     4   ar
    28    19    14   ar
    29    27    22   ar
    30     3    28    1
    31     5    29    1
    32     6    30    1
    33     7    31    1
    34    13    32    1
    35    15    33    1
    36    16    34    1
    37    17    35    1
    38    18    36    1
    39    20    37    1
    40    21    38    1
    41    21    39    1
    42    23    40    1
    43    24    41    1
    44    26    42    1
    45    27    43    1
