@<TRIPOS>MOLECULE
*****
 60 63 0 0 0
SMALL
GASTEIGER

@<TRIPOS>ATOM
      1 C           7.7980    1.4461   -3.6769 C.3     1  UNL1        0.0790
      2 O           7.9434    1.3381   -2.2753 O.3     1  UNL1       -0.4915
      3 C           6.9647    0.6529   -1.5736 C.ar    1  UNL1        0.1615
      4 C           5.8685    0.0763   -2.1559 C.ar    1  UNL1       -0.0156
      5 C           4.9095   -0.6048   -1.3999 C.ar    1  UNL1       -0.0459
      6 C           5.0260   -0.7232   -0.0514 C.ar    1  UNL1        0.0404
      7 C           4.0554   -1.4317    0.7785 C.2     1  UNL1        0.2445
      8 O           4.2329   -1.4479    2.0240 O.2     1  UNL1       -0.2702
      9 N           2.9310   -2.0987    0.2535 N.am    1  UNL1       -0.3072
     10 C           1.9915   -2.7859    1.0930 C.3     1  UNL1        0.0372
     11 C           1.0104   -1.8762    1.7767 C.ar    1  UNL1       -0.0296
     12 C           1.2003   -1.3805    3.0449 C.ar    1  UNL1       -0.0570
     13 C           0.2420   -0.5332    3.6165 C.ar    1  UNL1       -0.0607
     14 C          -0.8925   -0.1937    2.9129 C.ar    1  UNL1       -0.0496
     15 C          -1.0897   -0.6853    1.6453 C.ar    1  UNL1        0.0373
     16 C          -2.2807   -0.3504    0.8755 C.2     1  UNL1        0.2483
     17 O          -2.4060   -0.8307   -0.2904 O.2     1  UNL1       -0.2699
     18 N          -3.3336    0.4738    1.3074 N.am    1  UNL1       -0.2815
     19 C          -4.4807    0.7725    0.5189 C.ar    1  UNL1        0.0340
     20 C          -4.5237    1.8554   -0.3331 C.ar    1  UNL1       -0.0402
     21 C          -5.6300    2.1530   -1.1063 C.ar    1  UNL1       -0.0565
     22 C          -6.7562    1.3576   -1.0506 C.ar    1  UNL1       -0.0417
     23 C          -6.7195    0.2717   -0.1991 C.ar    1  UNL1       -0.0286
     24 C          -5.6147   -0.0246    0.5723 C.ar    1  UNL1       -0.0358
     25 C          -7.9593   -0.5732   -0.1594 C.3     1  UNL1        0.0216
     26 N          -8.3842   -0.7175   -1.5436 N.3     1  UNL1       -0.3117
     27 C          -8.9088    0.5579   -1.9863 C.3     1  UNL1        0.0002
     28 C          -7.9437    1.6872   -1.8917 C.3     1  UNL1       -0.0148
     29 C          -0.1466   -1.5111    1.0985 C.ar    1  UNL1       -0.0449
     30 C           6.1323   -0.1410    0.5364 C.ar    1  UNL1       -0.0042
     31 C           7.0827    0.5306   -0.1882 C.ar    1  UNL1        0.1622
     32 O           8.2018    1.1175    0.4159 O.3     1  UNL1       -0.4914
     33 C           8.3914    1.0339    1.8099 C.3     1  UNL1        0.0790
     34 H           6.8080    1.9282   -3.9169 H       1  UNL1        0.0660
     35 H           7.7911    0.4464   -4.1352 H       1  UNL1        0.0660
     36 H           8.5835    2.0797   -4.1326 H       1  UNL1        0.0660
     37 H           5.7779    0.1722   -3.2330 H       1  UNL1        0.0655
     38 H           4.0848   -1.0241   -1.9434 H       1  UNL1        0.0626
     39 H           2.8014   -2.0733   -0.8119 H       1  UNL1        0.1493
     40 H           2.4688   -3.4129    1.8665 H       1  UNL1        0.0512
     41 H           1.4153   -3.4934    0.4406 H       1  UNL1        0.0512
     42 H           2.0815   -1.6478    3.6089 H       1  UNL1        0.0621
     43 H           0.4320   -0.1660    4.6175 H       1  UNL1        0.0618
     44 H          -1.6289    0.4715    3.3832 H       1  UNL1        0.0625
     45 H          -3.2763    0.8925    2.2594 H       1  UNL1        0.1551
     46 H          -3.6166    2.4692   -0.3569 H       1  UNL1        0.0636
     47 H          -5.6171    3.0217   -1.7675 H       1  UNL1        0.0621
     48 H          -5.6166   -0.8967    1.2406 H       1  UNL1        0.0639
     49 H          -8.7266    0.0139    0.4153 H       1  UNL1        0.0474
     50 H          -7.8035   -1.5232    0.3528 H       1  UNL1        0.0474
     51 H          -9.1358   -1.4216   -1.6520 H       1  UNL1        0.1223
     52 H          -9.2427    0.4077   -3.0511 H       1  UNL1        0.0427
     53 H          -9.8400    0.8474   -1.4392 H       1  UNL1        0.0427
     54 H          -7.6276    1.9665   -2.9274 H       1  UNL1        0.0326
     55 H          -8.3909    2.6076   -1.4661 H       1  UNL1        0.0326
     56 H          -0.2654   -1.9275    0.0841 H       1  UNL1        0.0628
     57 H           6.2346   -0.2294    1.6095 H       1  UNL1        0.0663
     58 H           8.8084    0.0388    2.0758 H       1  UNL1        0.0660
     59 H           7.4787    1.1777    2.3982 H       1  UNL1        0.0660
     60 H           9.1104    1.8604    2.0823 H       1  UNL1        0.0660
@<TRIPOS>BOND
     1     1     2    1
     2     2     3    1
     3     3     4   ar
     4     4     5   ar
     5     5     6   ar
     6     6     7    1
     7     7     8    2
     8     7     9   am
     9     9    10    1
    10    10    11    1
    11    11    12   ar
    12    12    13   ar
    13    13    14   ar
    14    14    15   ar
    15    15    16    1
    16    16    17    2
    17    16    18   am
    18    18    19    1
    19    19    20   ar
    20    20    21   ar
    21    21    22   ar
    22    22    23   ar
    23    23    24   ar
    24    23    25    1
    25    25    26    1
    26    26    27    1
    27    27    28    1
    28    15    29   ar
    29     6    30   ar
    30    30    31   ar
    31    31    32    1
    32    32    33    1
    33    31     3   ar
    34    29    11   ar
    35    24    19   ar
    36    28    22    1
    37     1    34    1
    38     1    35    1
    39     1    36    1
    40     4    37    1
    41     5    38    1
    42     9    39    1
    43    10    40    1
    44    10    41    1
    45    12    42    1
    46    13    43    1
    47    14    44    1
    48    18    45    1
    49    20    46    1
    50    21    47    1
    51    24    48    1
    52    25    49    1
    53    25    50    1
    54    26    51    1
    55    27    52    1
    56    27    53    1
    57    28    54    1
    58    28    55    1
    59    29    56    1
    60    30    57    1
    61    33    58    1
    62    33    59    1
    63    33    60    1
