
     RDKit          3D

 54 56  0  0  0  0  0  0  0  0999 V2000
    4.4369   -1.3362    1.3322 C   0  0  0  0  0  0  0  0  0  0  0  0
    4.6633   -0.2527    0.3535 C   0  0  0  0  0  0  0  0  0  0  0  0
    5.9635    0.2815    0.3071 C   0  0  0  0  0  0  0  0  0  0  0  0
    6.2938    1.2377   -0.5803 C   0  0  0  0  0  0  0  0  0  0  0  0
    7.5132    1.8079   -0.6976 O   0  0  0  0  0  0  0  0  0  0  0  0
    8.6344    1.5098    0.0722 C   0  0  0  0  0  0  0  0  0  0  0  0
    9.7191    1.1285   -0.7060 F   0  0  0  0  0  0  0  0  0  0  0  0
    9.0364    2.6716    0.7400 F   0  0  0  0  0  0  0  0  0  0  0  0
    5.2763    1.6638   -1.4451 C   0  0  0  0  0  0  0  0  0  0  0  0
    4.0543    1.1412   -1.3781 N   0  0  0  0  0  0  0  0  0  0  0  0
    3.6892    0.1660   -0.4827 C   0  0  0  0  0  0  0  0  0  0  0  0
    2.3254   -0.2500   -0.4861 C   0  0  0  0  0  0  0  0  0  0  0  0
    1.6900   -0.0833   -1.6122 O   0  0  0  0  0  0  0  0  0  0  0  0
    1.5716   -0.8151    0.5767 N   0  0  0  0  0  0  0  0  0  0  0  0
    0.1915   -1.1577    0.2891 C   0  0  0  0  0  0  0  0  0  0  0  0
   -0.1988   -2.3721   -0.1811 C   0  0  0  0  0  0  0  0  0  0  0  0
   -1.5440   -2.6141   -0.4295 C   0  0  0  0  0  0  0  0  0  0  0  0
   -1.9133   -3.9506   -0.9395 C   0  0  0  0  0  0  0  0  0  0  0  0
   -2.4630   -1.6129   -0.1933 C   0  0  0  0  0  0  0  0  0  0  0  0
   -3.7647   -1.8903   -0.4484 F   0  0  0  0  0  0  0  0  0  0  0  0
   -2.0958   -0.3514    0.2904 C   0  0  0  0  0  0  0  0  0  0  0  0
   -3.1379    0.6936    0.5334 C   0  0  2  0  0  0  0  0  0  0  0  0
   -2.4059    1.9927    0.8871 C   0  0  0  0  0  0  0  0  0  0  0  0
   -1.5860    2.3734   -0.1580 F   0  0  0  0  0  0  0  0  0  0  0  0
   -4.1071    0.2914    1.5809 C   0  0  0  0  0  0  0  0  0  0  0  0
   -5.5509    0.4501    1.2973 C   0  0  1  0  0  0  0  0  0  0  0  0
   -6.1618    1.7605    1.7397 C   0  0  0  0  0  0  0  0  0  0  0  0
   -6.0588    1.9888    3.0833 F   0  0  0  0  0  0  0  0  0  0  0  0
   -5.7880    2.8232    0.9473 F   0  0  0  0  0  0  0  0  0  0  0  0
   -7.5457    1.6299    1.5043 F   0  0  0  0  0  0  0  0  0  0  0  0
   -5.8804    0.2250   -0.0440 O   0  0  0  0  0  0  0  0  0  0  0  0
   -4.9978    0.7011   -1.0108 C   0  0  0  0  0  0  0  0  0  0  0  0
   -5.4574    0.9691   -2.3354 N   0  0  0  0  0  0  0  0  0  0  0  0
   -3.7731    0.9093   -0.7490 N   0  0  0  0  0  0  0  0  0  0  0  0
   -0.7574   -0.1646    0.5189 C   0  0  0  0  0  0  0  0  0  0  0  0
    4.0986   -0.9157    2.2848 H   0  0  0  0  0  0  0  0  0  0  0  0
    5.4499   -1.8219    1.5671 H   0  0  0  0  0  0  0  0  0  0  0  0
    3.7907   -2.1362    0.9299 H   0  0  0  0  0  0  0  0  0  0  0  0
    6.6939   -0.1014    1.0105 H   0  0  0  0  0  0  0  0  0  0  0  0
    8.4526    0.7377    0.8235 H   0  0  0  0  0  0  0  0  0  0  0  0
    5.5338    2.4354   -2.1658 H   0  0  0  0  0  0  0  0  0  0  0  0
    1.9693   -0.9510    1.5008 H   0  0  0  0  0  0  0  0  0  0  0  0
    0.5598   -3.1296   -0.3522 H   0  0  0  0  0  0  0  0  0  0  0  0
   -1.4348   -4.0714   -1.9372 H   0  0  0  0  0  0  0  0  0  0  0  0
   -3.0009   -4.1140   -0.9649 H   0  0  0  0  0  0  0  0  0  0  0  0
   -1.4258   -4.7105   -0.2835 H   0  0  0  0  0  0  0  0  0  0  0  0
   -3.1247    2.8355    0.9984 H   0  0  0  0  0  0  0  0  0  0  0  0
   -1.8517    1.8125    1.8292 H   0  0  0  0  0  0  0  0  0  0  0  0
   -3.8686    0.7373    2.5878 H   0  0  0  0  0  0  0  0  0  0  0  0
   -3.9233   -0.8144    1.7642 H   0  0  0  0  0  0  0  0  0  0  0  0
   -6.0927   -0.3434    1.9057 H   0  0  0  0  0  0  0  0  0  0  0  0
   -5.2555    0.3630   -3.1498 H   0  0  0  0  0  0  0  0  0  0  0  0
   -6.0320    1.8406   -2.4575 H   0  0  0  0  0  0  0  0  0  0  0  0
   -0.4095    0.7825    0.8955 H   0  0  0  0  0  0  0  0  0  0  0  0
  1  2  1  0
  2  3  2  0
  3  4  1  0
  4  5  1  0
  5  6  1  0
  6  7  1  0
  6  8  1  0
  4  9  2  0
  9 10  1  0
 10 11  2  0
 11 12  1  0
 12 13  2  0
 12 14  1  0
 14 15  1  0
 15 16  2  0
 16 17  1  0
 17 18  1  0
 17 19  2  0
 19 20  1  0
 19 21  1  0
 21 22  1  0
 22 23  1  1
 23 24  1  0
 22 25  1  0
 25 26  1  0
 26 27  1  0
 27 28  1  0
 27 29  1  0
 27 30  1  0
 26 31  1  0
 31 32  1  0
 32 33  1  0
 32 34  2  0
 21 35  2  0
 11  2  1  0
 35 15  1  0
 34 22  1  0
  1 36  1  0
  1 37  1  0
  1 38  1  0
  3 39  1  0
  6 40  1  0
  9 41  1  0
 14 42  1  0
 16 43  1  0
 18 44  1  0
 18 45  1  0
 18 46  1  0
 23 47  1  0
 23 48  1  0
 25 49  1  0
 25 50  1  0
 26 51  1  1
 33 52  1  0
 33 53  1  0
 35 54  1  0
M  END
$$$$
