@<TRIPOS>MOLECULE
*****
 54 56 0 0 0
SMALL
GASTEIGER

@<TRIPOS>ATOM
      1 C           4.4369   -1.3362    1.3322 C.3     1  UNL1       -0.0374
      2 C           4.6633   -0.2527    0.3535 C.ar    1  UNL1       -0.0165
      3 C           5.9635    0.2815    0.3071 C.ar    1  UNL1       -0.0131
      4 C           6.2938    1.2377   -0.5803 C.ar    1  UNL1        0.1452
      5 O           7.5132    1.8079   -0.6976 O.3     1  UNL1       -0.4327
      6 C           8.6344    1.5098    0.0722 C.3     1  UNL1        0.3893
      7 F           9.7191    1.1285   -0.7060 F       1  UNL1       -0.1663
      8 F           9.0364    2.6716    0.7400 F       1  UNL1       -0.1663
      9 C           5.2763    1.6638   -1.4451 C.ar    1  UNL1        0.0703
     10 N           4.0543    1.1412   -1.3781 N.ar    1  UNL1       -0.2465
     11 C           3.6892    0.1660   -0.4827 C.ar    1  UNL1        0.1288
     12 C           2.3254   -0.2500   -0.4861 C.2     1  UNL1        0.2668
     13 O           1.6900   -0.0833   -1.6122 O.2     1  UNL1       -0.2682
     14 N           1.5716   -0.8151    0.5767 N.am    1  UNL1       -0.2802
     15 C           0.1915   -1.1577    0.2891 C.ar    1  UNL1        0.0345
     16 C          -0.1988   -2.3721   -0.1811 C.ar    1  UNL1       -0.0348
     17 C          -1.5440   -2.6141   -0.4295 C.ar    1  UNL1       -0.0132
     18 C          -1.9133   -3.9506   -0.9395 C.3     1  UNL1       -0.0369
     19 C          -2.4630   -1.6129   -0.1933 C.ar    1  UNL1        0.1319
     20 F          -3.7647   -1.8903   -0.4484 F       1  UNL1       -0.2048
     21 C          -2.0958   -0.3514    0.2904 C.ar    1  UNL1        0.0198
     22 C          -3.1379    0.6936    0.5334 C.3     1  UNL1        0.1258
     23 C          -2.4059    1.9927    0.8871 C.3     1  UNL1        0.1196
     24 F          -1.5860    2.3734   -0.1580 F       1  UNL1       -0.2462
     25 C          -4.1071    0.2914    1.5809 C.3     1  UNL1        0.0251
     26 C          -5.5509    0.4501    1.2973 C.3     1  UNL1        0.1998
     27 C          -6.1618    1.7605    1.7397 C.3     1  UNL1        0.4266
     28 F          -6.0588    1.9888    3.0833 F       1  UNL1       -0.1669
     29 F          -5.7880    2.8232    0.9473 F       1  UNL1       -0.1669
     30 F          -7.5457    1.6299    1.5043 F       1  UNL1       -0.1669
     31 O          -5.8804    0.2250   -0.0440 O.2     1  UNL1       -0.4534
     32 C          -4.9978    0.7011   -1.0108 C.2     1  UNL1        0.2766
     33 N          -5.4574    0.9691   -2.3354 N.pl3   1  UNL1       -0.3134
     34 N          -3.7731    0.9093   -0.7490 N.2     1  UNL1       -0.2228
     35 C          -0.7574   -0.1646    0.5189 C.ar    1  UNL1       -0.0321
     36 H           4.0986   -0.9157    2.2848 H       1  UNL1        0.0278
     37 H           5.4499   -1.8219    1.5671 H       1  UNL1        0.0278
     38 H           3.7907   -2.1362    0.9299 H       1  UNL1        0.0278
     39 H           6.6939   -0.1014    1.0105 H       1  UNL1        0.0658
     40 H           8.4526    0.7377    0.8235 H       1  UNL1        0.1520
     41 H           5.5338    2.4354   -2.1658 H       1  UNL1        0.0867
     42 H           1.9693   -0.9510    1.5008 H       1  UNL1        0.1552
     43 H           0.5598   -3.1296   -0.3522 H       1  UNL1        0.0640
     44 H          -1.4348   -4.0714   -1.9372 H       1  UNL1        0.0278
     45 H          -3.0009   -4.1140   -0.9649 H       1  UNL1        0.0278
     46 H          -1.4258   -4.7105   -0.2835 H       1  UNL1        0.0278
     47 H          -3.1247    2.8355    0.9984 H       1  UNL1        0.0643
     48 H          -1.8517    1.8125    1.8292 H       1  UNL1        0.0643
     49 H          -3.8686    0.7373    2.5878 H       1  UNL1        0.0331
     50 H          -3.9233   -0.8144    1.7642 H       1  UNL1        0.0331
     51 H          -6.0927   -0.3434    1.9057 H       1  UNL1        0.0826
     52 H          -5.2555    0.3630   -3.1498 H       1  UNL1        0.1466
     53 H          -6.0320    1.8406   -2.4575 H       1  UNL1        0.1466
     54 H          -0.4095    0.7825    0.8955 H       1  UNL1        0.0640
@<TRIPOS>BOND
     1     1     2    1
     2     2     3   ar
     3     3     4   ar
     4     4     5    1
     5     5     6    1
     6     6     7    1
     7     6     8    1
     8     4     9   ar
     9     9    10   ar
    10    10    11   ar
    11    11    12    1
    12    12    13    2
    13    12    14   am
    14    14    15    1
    15    15    16   ar
    16    16    17   ar
    17    17    18    1
    18    17    19   ar
    19    19    20    1
    20    19    21   ar
    21    21    22    1
    22    22    23    1
    23    23    24    1
    24    22    25    1
    25    25    26    1
    26    26    27    1
    27    27    28    1
    28    27    29    1
    29    27    30    1
    30    26    31    1
    31    31    32    1
    32    32    33    1
    33    32    34    2
    34    21    35   ar
    35    11     2   ar
    36    35    15   ar
    37    34    22    1
    38     1    36    1
    39     1    37    1
    40     1    38    1
    41     3    39    1
    42     6    40    1
    43     9    41    1
    44    14    42    1
    45    16    43    1
    46    18    44    1
    47    18    45    1
    48    18    46    1
    49    23    47    1
    50    23    48    1
    51    25    49    1
    52    25    50    1
    53    26    51    1
    54    33    52    1
    55    33    53    1
    56    35    54    1
