@<TRIPOS>MOLECULE
*****
 18 17 0 0 0
SMALL
GASTEIGER

@<TRIPOS>ATOM
      1 N           2.5504   -0.4838    0.4386 N.3     1  UNL1       -0.3300
      2 C           1.9434    0.5357   -0.3456 C.3     1  UNL1       -0.0069
      3 C           0.5138    0.8206    0.0034 C.3     1  UNL1       -0.0395
      4 C          -0.4006   -0.3420   -0.1473 C.3     1  UNL1       -0.0395
      5 C          -1.8046    0.1288    0.2487 C.3     1  UNL1       -0.0069
      6 N          -2.7675   -0.9437    0.1322 N.3     1  UNL1       -0.3300
      7 H           2.3028   -1.4578    0.1541 H       1  UNL1        0.1182
      8 H           3.5870   -0.4269    0.2585 H       1  UNL1        0.1182
      9 H           2.5428    1.4610   -0.2285 H       1  UNL1        0.0422
     10 H           2.0208    0.2444   -1.4203 H       1  UNL1        0.0422
     11 H           0.1364    1.6280   -0.6557 H       1  UNL1        0.0278
     12 H           0.4475    1.1726    1.0539 H       1  UNL1        0.0278
     13 H          -0.1449   -1.1958    0.5040 H       1  UNL1        0.0278
     14 H          -0.5034   -0.6653   -1.1995 H       1  UNL1        0.0278
     15 H          -1.7692    0.5771    1.2618 H       1  UNL1        0.0422
     16 H          -2.0783    0.8806   -0.5319 H       1  UNL1        0.0422
     17 H          -3.6677   -0.6269   -0.2829 H       1  UNL1        0.1182
     18 H          -2.9086   -1.3065    1.1165 H       1  UNL1        0.1182
@<TRIPOS>BOND
     1     1     2    1
     2     2     3    1
     3     3     4    1
     4     4     5    1
     5     5     6    1
     6     1     7    1
     7     1     8    1
     8     2     9    1
     9     2    10    1
    10     3    11    1
    11     3    12    1
    12     4    13    1
    13     4    14    1
    14     5    15    1
    15     5    16    1
    16     6    17    1
    17     6    18    1
