
     RDKit          3D

 18 17  0  0  0  0  0  0  0  0999 V2000
    2.5504   -0.4838    0.4386 N   0  0  0  0  0  0  0  0  0  0  0  0
    1.9434    0.5357   -0.3456 C   0  0  0  0  0  0  0  0  0  0  0  0
    0.5138    0.8206    0.0034 C   0  0  0  0  0  0  0  0  0  0  0  0
   -0.4006   -0.3420   -0.1473 C   0  0  0  0  0  0  0  0  0  0  0  0
   -1.8046    0.1288    0.2487 C   0  0  0  0  0  0  0  0  0  0  0  0
   -2.7675   -0.9437    0.1322 N   0  0  0  0  0  0  0  0  0  0  0  0
    2.3028   -1.4578    0.1541 H   0  0  0  0  0  0  0  0  0  0  0  0
    3.5870   -0.4269    0.2585 H   0  0  0  0  0  0  0  0  0  0  0  0
    2.5428    1.4610   -0.2285 H   0  0  0  0  0  0  0  0  0  0  0  0
    2.0208    0.2444   -1.4203 H   0  0  0  0  0  0  0  0  0  0  0  0
    0.1364    1.6280   -0.6557 H   0  0  0  0  0  0  0  0  0  0  0  0
    0.4475    1.1726    1.0539 H   0  0  0  0  0  0  0  0  0  0  0  0
   -0.1449   -1.1958    0.5040 H   0  0  0  0  0  0  0  0  0  0  0  0
   -0.5034   -0.6653   -1.1995 H   0  0  0  0  0  0  0  0  0  0  0  0
   -1.7692    0.5771    1.2618 H   0  0  0  0  0  0  0  0  0  0  0  0
   -2.0783    0.8806   -0.5319 H   0  0  0  0  0  0  0  0  0  0  0  0
   -3.6677   -0.6269   -0.2829 H   0  0  0  0  0  0  0  0  0  0  0  0
   -2.9086   -1.3065    1.1165 H   0  0  0  0  0  0  0  0  0  0  0  0
  1  2  1  0
  2  3  1  0
  3  4  1  0
  4  5  1  0
  5  6  1  0
  1  7  1  0
  1  8  1  0
  2  9  1  0
  2 10  1  0
  3 11  1  0
  3 12  1  0
  4 13  1  0
  4 14  1  0
  5 15  1  0
  5 16  1  0
  6 17  1  0
  6 18  1  0
M  END
$$$$
