@<TRIPOS>MOLECULE
*****
 49 52 0 0 0
SMALL
GASTEIGER

@<TRIPOS>ATOM
      1 C           2.4955    0.6886    1.4508 C.3     1  UNL1       -0.0569
      2 C           2.3825    0.4987   -0.0115 C.3     1  UNL1       -0.0030
      3 C           1.6770    1.6054   -0.7435 C.3     1  UNL1       -0.0447
      4 C           0.2386    1.6881   -0.3111 C.3     1  UNL1       -0.0486
      5 C          -0.4790    0.3565   -0.5586 C.3     1  UNL1       -0.0288
      6 C           0.2761   -0.6581    0.2507 C.3     1  UNL1       -0.0337
      7 C          -0.4223   -1.9619    0.4431 C.3     1  UNL1       -0.0459
      8 C          -1.6768   -1.6101    1.2592 C.3     1  UNL1       -0.0305
      9 C          -2.4966   -0.7990    0.3239 C.2     1  UNL1       -0.0601
     10 C          -3.7106   -1.2504    0.0555 C.2     1  UNL1       -0.0194
     11 C          -4.6133   -0.5522   -0.8430 C.2     1  UNL1        0.1561
     12 O          -5.7516   -0.9925   -1.0579 O.2     1  UNL1       -0.2927
     13 C          -4.1313    0.6781   -1.4776 C.3     1  UNL1        0.0107
     14 C          -2.6570    0.6984   -1.5614 C.3     1  UNL1       -0.0367
     15 C          -1.9404    0.4411   -0.2537 C.3     1  UNL1       -0.0072
     16 C          -2.2942    1.5707    0.6785 C.3     1  UNL1       -0.0556
     17 C           1.6297   -0.7884   -0.3849 C.3     1  UNL1       -0.0301
     18 C           2.5152   -1.8247    0.1562 C.3     1  UNL1       -0.0470
     19 C           3.9078   -1.2826   -0.0827 C.3     1  UNL1       -0.0261
     20 C           3.7322    0.1656   -0.5602 C.3     1  UNL1        0.0609
     21 O           4.7091    0.9047    0.1301 O.3     1  UNL1       -0.3912
     22 H           2.3434   -0.2763    1.9858 H       1  UNL1        0.0236
     23 H           1.8463    1.4223    1.9086 H       1  UNL1        0.0236
     24 H           3.5508    0.9891    1.7060 H       1  UNL1        0.0236
     25 H           2.1541    2.5662   -0.5160 H       1  UNL1        0.0271
     26 H           1.7865    1.4080   -1.8274 H       1  UNL1        0.0271
     27 H           0.2458    1.9525    0.7640 H       1  UNL1        0.0268
     28 H          -0.2399    2.4784   -0.9270 H       1  UNL1        0.0268
     29 H          -0.2841    0.1265   -1.6276 H       1  UNL1        0.0312
     30 H           0.4369   -0.2028    1.2641 H       1  UNL1        0.0307
     31 H           0.2382   -2.6438    0.9701 H       1  UNL1        0.0271
     32 H          -0.7369   -2.3328   -0.5610 H       1  UNL1        0.0271
     33 H          -2.1801   -2.5023    1.6164 H       1  UNL1        0.0310
     34 H          -1.3218   -1.0258    2.1293 H       1  UNL1        0.0310
     35 H          -4.0880   -2.1781    0.5043 H       1  UNL1        0.0652
     36 H          -4.5141    0.7207   -2.5369 H       1  UNL1        0.0345
     37 H          -4.5991    1.5377   -0.9760 H       1  UNL1        0.0345
     38 H          -2.3233    1.6591   -2.0244 H       1  UNL1        0.0278
     39 H          -2.3391   -0.1220   -2.2527 H       1  UNL1        0.0278
     40 H          -1.7037    2.4880    0.4938 H       1  UNL1        0.0238
     41 H          -3.3573    1.8737    0.5993 H       1  UNL1        0.0238
     42 H          -2.1263    1.3080    1.7462 H       1  UNL1        0.0238
     43 H           1.5724   -0.8213   -1.4791 H       1  UNL1        0.0310
     44 H           2.3411   -2.1511    1.1811 H       1  UNL1        0.0269
     45 H           2.4374   -2.7525   -0.4830 H       1  UNL1        0.0269
     46 H           4.4884   -1.8730   -0.8041 H       1  UNL1        0.0290
     47 H           4.4433   -1.3211    0.8892 H       1  UNL1        0.0290
     48 H           3.8243    0.2475   -1.6463 H       1  UNL1        0.0599
     49 H           4.7144    1.8492   -0.1115 H       1  UNL1        0.2098
@<TRIPOS>BOND
     1     2     1    1
     2     2     3    1
     3     3     4    1
     4     4     5    1
     5     5     6    1
     6     6     7    1
     7     7     8    1
     8     8     9    1
     9     9    10    2
    10    10    11    1
    11    11    12    2
    12    11    13    1
    13    13    14    1
    14    14    15    1
    15    15    16    1
    16     6    17    1
    17    17    18    1
    18    18    19    1
    19    19    20    1
    20    20    21    1
    21    17     2    1
    22    20     2    1
    23    15     5    1
    24    15     9    1
    25     1    22    1
    26     1    23    1
    27     1    24    1
    28     3    25    1
    29     3    26    1
    30     4    27    1
    31     4    28    1
    32     5    29    1
    33     6    30    1
    34     7    31    1
    35     7    32    1
    36     8    33    1
    37     8    34    1
    38    10    35    1
    39    13    36    1
    40    13    37    1
    41    14    38    1
    42    14    39    1
    43    16    40    1
    44    16    41    1
    45    16    42    1
    46    17    43    1
    47    18    44    1
    48    18    45    1
    49    19    46    1
    50    19    47    1
    51    20    48    1
    52    21    49    1
