
     RDKit          3D

 49 52  0  0  0  0  0  0  0  0999 V2000
    2.4955    0.6886    1.4508 C   0  0  0  0  0  0  0  0  0  0  0  0
    2.3825    0.4987   -0.0115 C   0  0  2  0  0  0  0  0  0  0  0  0
    1.6770    1.6054   -0.7435 C   0  0  0  0  0  0  0  0  0  0  0  0
    0.2386    1.6881   -0.3111 C   0  0  0  0  0  0  0  0  0  0  0  0
   -0.4790    0.3565   -0.5586 C   0  0  1  0  0  0  0  0  0  0  0  0
    0.2761   -0.6581    0.2507 C   0  0  1  0  0  0  0  0  0  0  0  0
   -0.4223   -1.9619    0.4431 C   0  0  0  0  0  0  0  0  0  0  0  0
   -1.6768   -1.6101    1.2592 C   0  0  0  0  0  0  0  0  0  0  0  0
   -2.4966   -0.7990    0.3239 C   0  0  0  0  0  0  0  0  0  0  0  0
   -3.7106   -1.2504    0.0555 C   0  0  0  0  0  0  0  0  0  0  0  0
   -4.6133   -0.5522   -0.8430 C   0  0  0  0  0  0  0  0  0  0  0  0
   -5.7516   -0.9925   -1.0579 O   0  0  0  0  0  0  0  0  0  0  0  0
   -4.1313    0.6781   -1.4776 C   0  0  0  0  0  0  0  0  0  0  0  0
   -2.6570    0.6984   -1.5614 C   0  0  0  0  0  0  0  0  0  0  0  0
   -1.9404    0.4411   -0.2537 C   0  0  2  0  0  0  0  0  0  0  0  0
   -2.2942    1.5707    0.6785 C   0  0  0  0  0  0  0  0  0  0  0  0
    1.6297   -0.7884   -0.3849 C   0  0  2  0  0  0  0  0  0  0  0  0
    2.5152   -1.8247    0.1562 C   0  0  0  0  0  0  0  0  0  0  0  0
    3.9078   -1.2826   -0.0827 C   0  0  0  0  0  0  0  0  0  0  0  0
    3.7322    0.1656   -0.5602 C   0  0  2  0  0  0  0  0  0  0  0  0
    4.7091    0.9047    0.1301 O   0  0  0  0  0  0  0  0  0  0  0  0
    2.3434   -0.2763    1.9858 H   0  0  0  0  0  0  0  0  0  0  0  0
    1.8463    1.4223    1.9086 H   0  0  0  0  0  0  0  0  0  0  0  0
    3.5508    0.9891    1.7060 H   0  0  0  0  0  0  0  0  0  0  0  0
    2.1541    2.5662   -0.5160 H   0  0  0  0  0  0  0  0  0  0  0  0
    1.7865    1.4080   -1.8274 H   0  0  0  0  0  0  0  0  0  0  0  0
    0.2458    1.9525    0.7640 H   0  0  0  0  0  0  0  0  0  0  0  0
   -0.2399    2.4784   -0.9270 H   0  0  0  0  0  0  0  0  0  0  0  0
   -0.2841    0.1265   -1.6276 H   0  0  0  0  0  0  0  0  0  0  0  0
    0.4369   -0.2028    1.2641 H   0  0  0  0  0  0  0  0  0  0  0  0
    0.2382   -2.6438    0.9701 H   0  0  0  0  0  0  0  0  0  0  0  0
   -0.7369   -2.3328   -0.5610 H   0  0  0  0  0  0  0  0  0  0  0  0
   -2.1801   -2.5023    1.6164 H   0  0  0  0  0  0  0  0  0  0  0  0
   -1.3218   -1.0258    2.1293 H   0  0  0  0  0  0  0  0  0  0  0  0
   -4.0880   -2.1781    0.5043 H   0  0  0  0  0  0  0  0  0  0  0  0
   -4.5141    0.7207   -2.5369 H   0  0  0  0  0  0  0  0  0  0  0  0
   -4.5991    1.5377   -0.9760 H   0  0  0  0  0  0  0  0  0  0  0  0
   -2.3233    1.6591   -2.0244 H   0  0  0  0  0  0  0  0  0  0  0  0
   -2.3391   -0.1220   -2.2527 H   0  0  0  0  0  0  0  0  0  0  0  0
   -1.7037    2.4880    0.4938 H   0  0  0  0  0  0  0  0  0  0  0  0
   -3.3573    1.8737    0.5993 H   0  0  0  0  0  0  0  0  0  0  0  0
   -2.1263    1.3080    1.7462 H   0  0  0  0  0  0  0  0  0  0  0  0
    1.5724   -0.8213   -1.4791 H   0  0  0  0  0  0  0  0  0  0  0  0
    2.3411   -2.1511    1.1811 H   0  0  0  0  0  0  0  0  0  0  0  0
    2.4374   -2.7525   -0.4830 H   0  0  0  0  0  0  0  0  0  0  0  0
    4.4884   -1.8730   -0.8041 H   0  0  0  0  0  0  0  0  0  0  0  0
    4.4433   -1.3211    0.8892 H   0  0  0  0  0  0  0  0  0  0  0  0
    3.8243    0.2475   -1.6463 H   0  0  0  0  0  0  0  0  0  0  0  0
    4.7144    1.8492   -0.1115 H   0  0  0  0  0  0  0  0  0  0  0  0
  2  1  1  1
  2  3  1  0
  3  4  1  0
  4  5  1  0
  5  6  1  0
  6  7  1  0
  7  8  1  0
  8  9  1  0
  9 10  2  0
 10 11  1  0
 11 12  2  0
 11 13  1  0
 13 14  1  0
 14 15  1  0
 15 16  1  1
  6 17  1  0
 17 18  1  0
 18 19  1  0
 19 20  1  0
 20 21  1  0
 17  2  1  0
 20  2  1  0
 15  5  1  0
 15  9  1  0
  1 22  1  0
  1 23  1  0
  1 24  1  0
  3 25  1  0
  3 26  1  0
  4 27  1  0
  4 28  1  0
  5 29  1  6
  6 30  1  1
  7 31  1  0
  7 32  1  0
  8 33  1  0
  8 34  1  0
 10 35  1  0
 13 36  1  0
 13 37  1  0
 14 38  1  0
 14 39  1  0
 16 40  1  0
 16 41  1  0
 16 42  1  0
 17 43  1  6
 18 44  1  0
 18 45  1  0
 19 46  1  0
 19 47  1  0
 20 48  1  6
 21 49  1  0
M  END
$$$$
