@<TRIPOS>MOLECULE
*****
 45 47 0 0 0
SMALL
GASTEIGER

@<TRIPOS>ATOM
      1 C           4.6525   -1.4891    1.0357 C.3     1  UNL1       -0.0131
      2 N           3.2620   -1.3215    0.7313 N.3     1  UNL1       -0.3083
      3 C           2.3876   -2.1320    1.5017 C.3     1  UNL1       -0.0131
      4 C           3.0061   -1.2704   -0.6767 C.3     1  UNL1       -0.0016
      5 C           1.5755   -1.0972   -1.0512 C.3     1  UNL1       -0.0370
      6 C           1.0187    0.1867   -0.4852 C.3     1  UNL1       -0.0142
      7 C          -0.4250    0.3973   -0.8416 C.3     1  UNL1        0.1201
      8 C          -1.2955   -0.6961   -0.3338 C.ar    1  UNL1       -0.0113
      9 C          -1.4426   -1.0018    1.0000 C.ar    1  UNL1       -0.0528
     10 C          -2.2490   -2.0223    1.4728 C.ar    1  UNL1       -0.0261
     11 C          -2.9569   -2.7914    0.5637 C.ar    1  UNL1        0.1234
     12 F          -3.7508   -3.7961    1.0302 F       1  UNL1       -0.2055
     13 C          -2.8196   -2.4974   -0.7750 C.ar    1  UNL1       -0.0261
     14 C          -2.0129   -1.4776   -1.2351 C.ar    1  UNL1       -0.0528
     15 O          -0.6185    0.5825   -2.2177 O.3     1  UNL1       -0.3595
     16 C          -1.6876    1.4405   -2.3485 C.3     1  UNL1        0.0747
     17 C          -1.6354    2.3136   -1.1613 C.ar    1  UNL1       -0.0144
     18 C          -2.1749    3.5560   -0.8315 C.ar    1  UNL1       -0.0386
     19 C          -1.9395    4.1396    0.3883 C.ar    1  UNL1        0.0521
     20 C          -2.4846    5.4238    0.7619 C.1     1  UNL1        0.0992
     21 N          -2.9303    6.4420    1.0719 N.1     1  UNL1       -0.1909
     22 C          -1.1536    3.4925    1.3156 C.ar    1  UNL1       -0.0440
     23 C          -0.6245    2.2732    0.9910 C.ar    1  UNL1       -0.0540
     24 C          -0.8562    1.6812   -0.2297 C.ar    1  UNL1       -0.0060
     25 H           5.2164   -1.4652    0.0754 H       1  UNL1        0.0391
     26 H           5.0796   -0.7088    1.6759 H       1  UNL1        0.0391
     27 H           4.8039   -2.5076    1.4494 H       1  UNL1        0.0391
     28 H           2.8946   -3.0458    1.9172 H       1  UNL1        0.0391
     29 H           2.1180   -1.5404    2.4268 H       1  UNL1        0.0391
     30 H           1.4402   -2.4182    1.0512 H       1  UNL1        0.0391
     31 H           3.5687   -0.4152   -1.1330 H       1  UNL1        0.0426
     32 H           3.4547   -2.1806   -1.1265 H       1  UNL1        0.0426
     33 H           0.9141   -1.9499   -0.8519 H       1  UNL1        0.0279
     34 H           1.5620   -0.9872   -2.1778 H       1  UNL1        0.0279
     35 H           1.1253    0.2691    0.5949 H       1  UNL1        0.0300
     36 H           1.5952    1.0140   -0.9529 H       1  UNL1        0.0300
     37 H          -0.9153   -0.4398    1.7555 H       1  UNL1        0.0622
     38 H          -2.3295   -2.2215    2.5334 H       1  UNL1        0.0646
     39 H          -3.3954   -3.1296   -1.4597 H       1  UNL1        0.0646
     40 H          -1.9797   -1.3403   -2.3062 H       1  UNL1        0.0622
     41 H          -1.5820    2.0656   -3.2653 H       1  UNL1        0.0610
     42 H          -2.6840    0.9334   -2.3244 H       1  UNL1        0.0610
     43 H          -2.7822    4.0511   -1.5539 H       1  UNL1        0.0634
     44 H          -0.9534    3.9377    2.2905 H       1  UNL1        0.0630
     45 H           0.0040    1.7434    1.7044 H       1  UNL1        0.0622
@<TRIPOS>BOND
     1     1     2    1
     2     2     3    1
     3     2     4    1
     4     4     5    1
     5     5     6    1
     6     6     7    1
     7     7     8    1
     8     8     9   ar
     9     9    10   ar
    10    10    11   ar
    11    11    12    1
    12    11    13   ar
    13    13    14   ar
    14     7    15    1
    15    15    16    1
    16    16    17    1
    17    17    18   ar
    18    18    19   ar
    19    19    20    1
    20    20    21    3
    21    19    22   ar
    22    22    23   ar
    23    23    24   ar
    24    24     7    1
    25    14     8   ar
    26    24    17   ar
    27     1    25    1
    28     1    26    1
    29     1    27    1
    30     3    28    1
    31     3    29    1
    32     3    30    1
    33     4    31    1
    34     4    32    1
    35     5    33    1
    36     5    34    1
    37     6    35    1
    38     6    36    1
    39     9    37    1
    40    10    38    1
    41    13    39    1
    42    14    40    1
    43    16    41    1
    44    16    42    1
    45    18    43    1
    46    22    44    1
    47    23    45    1
