
     RDKit          3D

 76 82  0  0  0  0  0  0  0  0999 V2000
   -6.1366   -2.4106    1.2252 C   0  0  0  0  0  0  0  0  0  0  0  0
   -5.8776   -1.8550   -0.1391 C   0  0  0  0  0  0  0  0  0  0  0  0
   -6.5281   -2.3403   -1.2478 C   0  0  0  0  0  0  0  0  0  0  0  0
   -6.2956   -1.8352   -2.5037 C   0  0  0  0  0  0  0  0  0  0  0  0
   -5.3731   -0.8089   -2.6148 C   0  0  0  0  0  0  0  0  0  0  0  0
   -4.7251   -0.3283   -1.4967 C   0  0  0  0  0  0  0  0  0  0  0  0
   -4.9378   -0.8154   -0.2271 C   0  0  0  0  0  0  0  0  0  0  0  0
   -4.2938   -0.3251    0.9863 C   0  0  0  0  0  0  0  0  0  0  0  0
   -3.8667    1.0503    0.9784 N   0  0  0  0  0  0  0  0  0  0  0  0
   -4.7451    2.0901    1.4113 C   0  0  0  0  0  0  0  0  0  0  0  0
   -5.6455    1.8497    2.2472 O   0  0  0  0  0  0  0  0  0  0  0  0
   -4.5269    3.4489    0.8182 C   0  0  0  0  0  0  0  0  0  0  0  0
   -3.0959    3.8098    1.1224 C   0  0  0  0  0  0  0  0  0  0  0  0
   -2.2286    2.7259    0.5710 C   0  0  0  0  0  0  0  0  0  0  0  0
   -0.9913    3.0716    0.0718 C   0  0  0  0  0  0  0  0  0  0  0  0
   -0.0602    2.1868   -0.4547 C   0  0  0  0  0  0  0  0  0  0  0  0
   -0.3964    0.8564   -0.4884 C   0  0  0  0  0  0  0  0  0  0  0  0
   -1.6413    0.4243    0.0135 C   0  0  0  0  0  0  0  0  0  0  0  0
   -2.5465    1.3775    0.5351 C   0  0  0  0  0  0  0  0  0  0  0  0
   -2.0830   -0.8530    0.0653 O   0  0  0  0  0  0  0  0  0  0  0  0
   -1.6499   -2.1229    0.4687 C   0  0  0  0  0  0  0  0  0  0  0  0
   -0.4267   -2.5838   -0.2469 C   0  0  0  0  0  0  0  0  0  0  0  0
    0.7851   -2.9557    0.0428 C   0  0  0  0  0  0  0  0  0  0  0  0
    1.9718   -3.4121   -0.7417 C   0  0  0  0  0  0  0  0  0  0  0  0
    3.1371   -2.7315   -0.6633 O   0  0  0  0  0  0  0  0  0  0  0  0
    3.9470   -2.8015    0.4086 C   0  0  1  0  0  0  0  0  0  0  0  0
    5.4125   -2.7886   -0.1303 C   0  0  0  0  0  0  0  0  0  0  0  0
    5.9554   -1.3842    0.1652 C   0  0  1  0  0  0  0  0  0  0  0  0
    6.6481   -0.8016   -1.0278 C   0  0  0  0  0  0  0  0  0  0  0  0
    5.7785   -0.8703   -2.1167 O   0  0  0  0  0  0  0  0  0  0  0  0
    4.7279   -0.6157    0.4462 N   0  0  0  0  0  0  0  0  0  0  0  0
    4.0495   -1.6284    1.3299 C   0  0  0  0  0  0  0  0  0  0  0  0
    4.1623    0.6538    0.1170 C   0  0  0  0  0  0  0  0  0  0  0  0
    2.9141    0.9534   -0.3919 C   0  0  0  0  0  0  0  0  0  0  0  0
    2.5594    2.2858   -0.4556 C   0  0  0  0  0  0  0  0  0  0  0  0
    3.4646    3.2301   -0.0319 N   0  0  0  0  0  0  0  0  0  0  0  0
    3.3654    4.5737   -0.0065 N   0  0  0  0  0  0  0  0  0  0  0  0
    4.4528    5.1451    0.4679 C   0  0  0  0  0  0  0  0  0  0  0  0
    5.3341    4.1374    0.7792 C   0  0  0  0  0  0  0  0  0  0  0  0
    6.9345    4.2148    1.4416 Cl  0  0  0  0  0  0  0  0  0  0  0  0
    4.6745    2.9647    0.4506 C   0  0  0  0  0  0  0  0  0  0  0  0
    5.0018    1.6757    0.5186 N   0  0  0  0  0  0  0  0  0  0  0  0
    1.2270    2.8178   -0.7745 N   0  0  0  0  0  0  0  0  0  0  0  0
   -5.1965   -2.4570    1.8131 H   0  0  0  0  0  0  0  0  0  0  0  0
   -6.7922   -1.6480    1.7267 H   0  0  0  0  0  0  0  0  0  0  0  0
   -6.6973   -3.3426    1.1918 H   0  0  0  0  0  0  0  0  0  0  0  0
   -7.2424   -3.1385   -1.1414 H   0  0  0  0  0  0  0  0  0  0  0  0
   -6.8074   -2.2112   -3.3881 H   0  0  0  0  0  0  0  0  0  0  0  0
   -5.2064   -0.4214   -3.6202 H   0  0  0  0  0  0  0  0  0  0  0  0
   -4.0087    0.4877   -1.6674 H   0  0  0  0  0  0  0  0  0  0  0  0
   -3.7620   -1.0157    1.6279 H   0  0  0  0  0  0  0  0  0  0  0  0
   -5.2472   -0.2349    1.6830 H   0  0  0  0  0  0  0  0  0  0  0  0
   -4.6404    3.4076   -0.2817 H   0  0  0  0  0  0  0  0  0  0  0  0
   -5.1755    4.2179    1.2724 H   0  0  0  0  0  0  0  0  0  0  0  0
   -2.8606    4.7541    0.5736 H   0  0  0  0  0  0  0  0  0  0  0  0
   -2.9161    3.9427    2.2115 H   0  0  0  0  0  0  0  0  0  0  0  0
   -0.7828    4.1589    0.1178 H   0  0  0  0  0  0  0  0  0  0  0  0
    0.2244    0.0454   -1.0056 H   0  0  0  0  0  0  0  0  0  0  0  0
   -2.5370   -2.8025    0.1557 H   0  0  0  0  0  0  0  0  0  0  0  0
   -1.7180   -2.1922    1.5476 H   0  0  0  0  0  0  0  0  0  0  0  0
   -0.8450   -2.5106   -1.3344 H   0  0  0  0  0  0  0  0  0  0  0  0
    1.2310   -2.9887    1.1141 H   0  0  0  0  0  0  0  0  0  0  0  0
    1.8477   -3.7204   -1.7934 H   0  0  0  0  0  0  0  0  0  0  0  0
    2.2584   -4.4770   -0.3109 H   0  0  0  0  0  0  0  0  0  0  0  0
    3.8299   -3.7431    0.9433 H   0  0  0  0  0  0  0  0  0  0  0  0
    6.0253   -3.5106    0.4031 H   0  0  0  0  0  0  0  0  0  0  0  0
    5.4302   -2.9638   -1.2042 H   0  0  0  0  0  0  0  0  0  0  0  0
    6.6051   -1.3685    1.0576 H   0  0  0  0  0  0  0  0  0  0  0  0
    7.5766   -1.3443   -1.2798 H   0  0  0  0  0  0  0  0  0  0  0  0
    6.8892    0.2533   -0.8913 H   0  0  0  0  0  0  0  0  0  0  0  0
    6.0464   -1.5505   -2.7609 H   0  0  0  0  0  0  0  0  0  0  0  0
    3.1285   -1.1712    1.6153 H   0  0  0  0  0  0  0  0  0  0  0  0
    4.7277   -1.8125    2.1594 H   0  0  0  0  0  0  0  0  0  0  0  0
    2.2765    0.1143   -0.8424 H   0  0  0  0  0  0  0  0  0  0  0  0
    4.7013    6.1935    0.6212 H   0  0  0  0  0  0  0  0  0  0  0  0
    1.2059    3.7742   -1.2360 H   0  0  0  0  0  0  0  0  0  0  0  0
  1  2  1  0
  2  3  2  0
  3  4  1  0
  4  5  2  0
  5  6  1  0
  6  7  2  0
  7  8  1  0
  8  9  1  0
  9 10  1  0
 10 11  2  0
 10 12  1  0
 12 13  1  0
 13 14  1  0
 14 15  2  0
 15 16  1  0
 16 17  2  0
 17 18  1  0
 18 19  2  0
 18 20  1  0
 20 21  1  0
 21 22  1  0
 22 23  2  0
 23 24  1  0
 24 25  1  0
 25 26  1  0
 26 27  1  0
 27 28  1  0
 28 29  1  0
 29 30  1  0
 28 31  1  0
 31 32  1  0
 31 33  1  0
 33 34  1  0
 34 35  2  0
 35 36  1  0
 36 37  1  0
 37 38  2  0
 38 39  1  0
 39 40  1  0
 39 41  2  0
 41 42  1  0
 35 43  1  0
  7  2  1  0
 19  9  1  0
 32 26  1  0
 42 33  2  0
 19 14  1  0
 41 36  1  0
 43 16  1  0
  1 44  1  0
  1 45  1  0
  1 46  1  0
  3 47  1  0
  4 48  1  0
  5 49  1  0
  6 50  1  0
  8 51  1  0
  8 52  1  0
 12 53  1  0
 12 54  1  0
 13 55  1  0
 13 56  1  0
 15 57  1  0
 17 58  1  0
 21 59  1  0
 21 60  1  0
 22 61  1  0
 23 62  1  0
 24 63  1  0
 24 64  1  0
 26 65  1  1
 27 66  1  0
 27 67  1  0
 28 68  1  1
 29 69  1  0
 29 70  1  0
 30 71  1  0
 32 72  1  0
 32 73  1  0
 34 74  1  0
 38 75  1  0
 43 76  1  0
M  END
$$$$
