@<TRIPOS>MOLECULE
*****
 76 82 0 0 0
SMALL
GASTEIGER

@<TRIPOS>ATOM
      1 C          -6.1366   -2.4106    1.2252 C.3     1  UNL1       -0.0394
      2 C          -5.8776   -1.8550   -0.1391 C.ar    1  UNL1       -0.0458
      3 C          -6.5281   -2.3403   -1.2478 C.ar    1  UNL1       -0.0585
      4 C          -6.2956   -1.8352   -2.5037 C.ar    1  UNL1       -0.0615
      5 C          -5.3731   -0.8089   -2.6148 C.ar    1  UNL1       -0.0614
      6 C          -4.7251   -0.3283   -1.4967 C.ar    1  UNL1       -0.0568
      7 C          -4.9378   -0.8154   -0.2271 C.ar    1  UNL1       -0.0268
      8 C          -4.2938   -0.3251    0.9863 C.3     1  UNL1        0.0452
      9 N          -3.8667    1.0503    0.9784 N.am    1  UNL1       -0.2636
     10 C          -4.7451    2.0901    1.4113 C.2     1  UNL1        0.2205
     11 O          -5.6455    1.8497    2.2472 O.2     1  UNL1       -0.2752
     12 C          -4.5269    3.4489    0.8182 C.3     1  UNL1        0.0285
     13 C          -3.0959    3.8098    1.1224 C.3     1  UNL1       -0.0175
     14 C          -2.2286    2.7259    0.5710 C.ar    1  UNL1       -0.0202
     15 C          -0.9913    3.0716    0.0718 C.ar    1  UNL1       -0.0353
     16 C          -0.0602    2.1868   -0.4547 C.ar    1  UNL1        0.0362
     17 C          -0.3964    0.8564   -0.4884 C.ar    1  UNL1        0.0032
     18 C          -1.6413    0.4243    0.0135 C.ar    1  UNL1        0.1443
     19 C          -2.5465    1.3775    0.5351 C.ar    1  UNL1        0.0818
     20 O          -2.0830   -0.8530    0.0653 O.3     1  UNL1       -0.4860
     21 C          -1.6499   -2.1229    0.4687 C.3     1  UNL1        0.1080
     22 C          -0.4267   -2.5838   -0.2469 C.2     1  UNL1       -0.0489
     23 C           0.7851   -2.9557    0.0428 C.2     1  UNL1       -0.0594
     24 C           1.9718   -3.4121   -0.7417 C.3     1  UNL1        0.0664
     25 O           3.1371   -2.7315   -0.6633 O.3     1  UNL1       -0.3710
     26 C           3.9470   -2.8015    0.4086 C.3     1  UNL1        0.0765
     27 C           5.4125   -2.7886   -0.1303 C.3     1  UNL1       -0.0043
     28 C           5.9554   -1.3842    0.1652 C.3     1  UNL1        0.0504
     29 C           6.6481   -0.8016   -1.0278 C.3     1  UNL1        0.0628
     30 O           5.7785   -0.8703   -2.1167 O.3     1  UNL1       -0.3932
     31 N           4.7279   -0.6157    0.4462 N.pl3   1  UNL1       -0.3073
     32 C           4.0495   -1.6284    1.3299 C.3     1  UNL1        0.0402
     33 C           4.1623    0.6538    0.1170 C.ar    1  UNL1        0.1273
     34 C           2.9141    0.9534   -0.3919 C.ar    1  UNL1        0.0185
     35 C           2.5594    2.2858   -0.4556 C.ar    1  UNL1        0.1300
     36 N           3.4646    3.2301   -0.0319 N.ar    1  UNL1       -0.1987
     37 N           3.3654    4.5737   -0.0065 N.ar    1  UNL1       -0.1702
     38 C           4.4528    5.1451    0.4679 C.ar    1  UNL1        0.0704
     39 C           5.3341    4.1374    0.7792 C.ar    1  UNL1        0.1048
     40 CL          6.9345    4.2148    1.4416 Cl      1  UNL1       -0.0781
     41 C           4.6745    2.9647    0.4506 C.ar    1  UNL1        0.1778
     42 N           5.0018    1.6757    0.5186 N.ar    1  UNL1       -0.2115
     43 N           1.2270    2.8178   -0.7745 N.pl3   1  UNL1       -0.2991
     44 H          -5.1965   -2.4570    1.8131 H       1  UNL1        0.0278
     45 H          -6.7922   -1.6480    1.7267 H       1  UNL1        0.0278
     46 H          -6.6973   -3.3426    1.1918 H       1  UNL1        0.0278
     47 H          -7.2424   -3.1385   -1.1414 H       1  UNL1        0.0620
     48 H          -6.8074   -2.2112   -3.3881 H       1  UNL1        0.0618
     49 H          -5.2064   -0.4214   -3.6202 H       1  UNL1        0.0618
     50 H          -4.0087    0.4877   -1.6674 H       1  UNL1        0.0621
     51 H          -3.7620   -1.0157    1.6279 H       1  UNL1        0.0518
     52 H          -5.2472   -0.2349    1.6830 H       1  UNL1        0.0518
     53 H          -4.6404    3.4076   -0.2817 H       1  UNL1        0.0362
     54 H          -5.1755    4.2179    1.2724 H       1  UNL1        0.0362
     55 H          -2.8606    4.7541    0.5736 H       1  UNL1        0.0318
     56 H          -2.9161    3.9427    2.2115 H       1  UNL1        0.0318
     57 H          -0.7828    4.1589    0.1178 H       1  UNL1        0.0639
     58 H           0.2244    0.0454   -1.0056 H       1  UNL1        0.0673
     59 H          -2.5370   -2.8025    0.1557 H       1  UNL1        0.0742
     60 H          -1.7180   -2.1922    1.5476 H       1  UNL1        0.0742
     61 H          -0.8450   -2.5106   -1.3344 H       1  UNL1        0.0603
     62 H           1.2310   -2.9887    1.1141 H       1  UNL1        0.0593
     63 H           1.8477   -3.7204   -1.7934 H       1  UNL1        0.0604
     64 H           2.2584   -4.4770   -0.3109 H       1  UNL1        0.0604
     65 H           3.8299   -3.7431    0.9433 H       1  UNL1        0.0612
     66 H           6.0253   -3.5106    0.4031 H       1  UNL1        0.0309
     67 H           5.4302   -2.9638   -1.2042 H       1  UNL1        0.0309
     68 H           6.6051   -1.3685    1.0576 H       1  UNL1        0.0523
     69 H           7.5766   -1.3443   -1.2798 H       1  UNL1        0.0576
     70 H           6.8892    0.2533   -0.8913 H       1  UNL1        0.0576
     71 H           6.0464   -1.5505   -2.7609 H       1  UNL1        0.2095
     72 H           3.1285   -1.1712    1.6153 H       1  UNL1        0.0490
     73 H           4.7277   -1.8125    2.1594 H       1  UNL1        0.0490
     74 H           2.2765    0.1143   -0.8424 H       1  UNL1        0.0686
     75 H           4.7013    6.1935    0.6212 H       1  UNL1        0.0864
     76 H           1.2059    3.7742   -1.2360 H       1  UNL1        0.1536
@<TRIPOS>BOND
     1     1     2    1
     2     2     3   ar
     3     3     4   ar
     4     4     5   ar
     5     5     6   ar
     6     6     7   ar
     7     7     8    1
     8     8     9    1
     9     9    10   am
    10    10    11    2
    11    10    12    1
    12    12    13    1
    13    13    14    1
    14    14    15   ar
    15    15    16   ar
    16    16    17   ar
    17    17    18   ar
    18    18    19   ar
    19    18    20    1
    20    20    21    1
    21    21    22    1
    22    22    23    2
    23    23    24    1
    24    24    25    1
    25    25    26    1
    26    26    27    1
    27    27    28    1
    28    28    29    1
    29    29    30    1
    30    28    31    1
    31    31    32    1
    32    31    33    1
    33    33    34   ar
    34    34    35   ar
    35    35    36   ar
    36    36    37   ar
    37    37    38   ar
    38    38    39   ar
    39    39    40    1
    40    39    41   ar
    41    41    42   ar
    42    35    43    1
    43     7     2   ar
    44    19     9    1
    45    32    26    1
    46    42    33   ar
    47    19    14   ar
    48    41    36   ar
    49    43    16    1
    50     1    44    1
    51     1    45    1
    52     1    46    1
    53     3    47    1
    54     4    48    1
    55     5    49    1
    56     6    50    1
    57     8    51    1
    58     8    52    1
    59    12    53    1
    60    12    54    1
    61    13    55    1
    62    13    56    1
    63    15    57    1
    64    17    58    1
    65    21    59    1
    66    21    60    1
    67    22    61    1
    68    23    62    1
    69    24    63    1
    70    24    64    1
    71    26    65    1
    72    27    66    1
    73    27    67    1
    74    28    68    1
    75    29    69    1
    76    29    70    1
    77    30    71    1
    78    32    72    1
    79    32    73    1
    80    34    74    1
    81    38    75    1
    82    43    76    1
