@<TRIPOS>MOLECULE
*****
 37 39 0 0 0
SMALL
GASTEIGER

@<TRIPOS>ATOM
      1 C          -5.8909    0.1339    0.0818 C.3     1  UNL1        0.0152
      2 N          -5.2126   -0.1076   -1.1748 N.ar    1  UNL1       -0.3114
      3 C          -5.5808    0.4034   -2.3717 C.ar    1  UNL1        0.1202
      4 N          -4.6863   -0.0690   -3.2673 N.ar    1  UNL1       -0.1370
      5 N          -3.8052   -0.8369   -2.6530 N.ar    1  UNL1       -0.1224
      6 C          -4.1056   -0.8826   -1.3416 C.ar    1  UNL1        0.1959
      7 S          -3.2800   -1.7538   -0.0167 S.3     1  UNL1       -0.0499
      8 C          -2.0134   -0.7610    0.7559 C.ar    1  UNL1        0.0164
      9 C          -2.3148    0.0458    1.8310 C.ar    1  UNL1       -0.0461
     10 C          -1.3135    0.7895    2.3922 C.ar    1  UNL1       -0.0393
     11 C          -0.0276    0.7031    1.8555 C.ar    1  UNL1        0.0369
     12 N           0.9482    1.5141    2.5065 N.pl3   1  UNL1       -0.3574
     13 C           0.3075   -0.1030    0.7699 C.ar    1  UNL1        0.0587
     14 C          -0.7364   -0.8325    0.2402 C.ar    1  UNL1       -0.0340
     15 C           1.6879   -0.1065    0.3016 C.2     1  UNL1        0.2515
     16 O           2.4827    0.6248    0.9177 O.2     1  UNL1       -0.2697
     17 N           2.0244   -0.9261   -0.8013 N.am    1  UNL1       -0.2606
     18 C           3.4502   -0.8025   -1.1312 C.ar    1  UNL1        0.1648
     19 N           4.3612   -0.1711   -0.6744 N.ar    1  UNL1       -0.2298
     20 C           5.5946   -0.2099   -1.1358 C.ar    1  UNL1        0.0475
     21 C           6.5879    0.6554   -0.4239 C.3     1  UNL1       -0.0218
     22 C           5.8322   -1.0892   -2.2782 C.ar    1  UNL1       -0.0001
     23 S           4.0981   -1.7842   -2.5352 S.2     1  UNL1       -0.0602
     24 H          -6.9502    0.4508   -0.1489 H       1  UNL1        0.0457
     25 H          -5.9807   -0.7937    0.6792 H       1  UNL1        0.0457
     26 H          -5.3973    0.9614    0.6171 H       1  UNL1        0.0457
     27 H          -6.4367    1.0611   -2.5320 H       1  UNL1        0.1048
     28 H          -3.3192    0.0537    2.1783 H       1  UNL1        0.0629
     29 H          -1.5340    1.4220    3.2298 H       1  UNL1        0.0636
     30 H           1.2388    2.4887    2.2449 H       1  UNL1        0.1423
     31 H           1.5461    1.3019    3.3458 H       1  UNL1        0.1423
     32 H          -0.5042   -1.4655   -0.6019 H       1  UNL1        0.0637
     33 H           1.3965   -1.5365   -1.3273 H       1  UNL1        0.1571
     34 H           7.6067    0.5024   -0.8015 H       1  UNL1        0.0293
     35 H           6.6283    0.4598    0.6652 H       1  UNL1        0.0293
     36 H           6.3473    1.7272   -0.5526 H       1  UNL1        0.0293
     37 H           6.9509   -1.0672   -2.6276 H       1  UNL1        0.0712
@<TRIPOS>BOND
     1     1     2    1
     2     2     3   ar
     3     3     4   ar
     4     4     5   ar
     5     5     6   ar
     6     6     7    1
     7     7     8    1
     8     8     9   ar
     9     9    10   ar
    10    10    11   ar
    11    11    12    1
    12    11    13   ar
    13    13    14   ar
    14    13    15    1
    15    15    16    2
    16    15    17   am
    17    17    18    1
    18    18    19   ar
    19    19    20   ar
    20    20    21    1
    21    20    22   ar
    22    22    23   ar
    23     6     2   ar
    24    14     8   ar
    25    23    18   ar
    26     1    24    1
    27     1    25    1
    28     1    26    1
    29     3    27    1
    30     9    28    1
    31    10    29    1
    32    12    30    1
    33    12    31    1
    34    14    32    1
    35    17    33    1
    36    21    34    1
    37    21    35    1
    38    21    36    1
    39    22    37    1
