
     RDKit          3D

 38 40  0  0  0  0  0  0  0  0999 V2000
    5.6057   -1.9586   -1.6526 C   0  0  0  0  0  0  0  0  0  0  0  0
    4.9218   -1.8863   -0.3190 C   0  0  0  0  0  0  0  0  0  0  0  0
    3.8936   -0.8158   -0.2786 C   0  0  0  0  0  0  0  0  0  0  0  0
    3.7071   -0.1331   -1.3104 O   0  0  0  0  0  0  0  0  0  0  0  0
    3.1122   -0.5228    0.8601 N   0  0  0  0  0  0  0  0  0  0  0  0
    2.1163    0.5219    0.8845 C   0  0  0  0  0  0  0  0  0  0  0  0
    2.5015    1.7825    1.2513 C   0  0  0  0  0  0  0  0  0  0  0  0
    1.5989    2.8045    1.2909 C   0  0  0  0  0  0  0  0  0  0  0  0
    0.2806    2.5567    0.9551 C   0  0  0  0  0  0  0  0  0  0  0  0
   -0.6133    3.5616    0.9922 N   0  0  0  0  0  0  0  0  0  0  0  0
   -1.8816    3.2886    0.6613 C   0  0  0  0  0  0  0  0  0  0  0  0
   -2.2563    2.0518    0.3024 N   0  0  0  0  0  0  0  0  0  0  0  0
   -1.4354    0.9900    0.2369 C   0  0  0  0  0  0  0  0  0  0  0  0
   -1.8692   -0.2967   -0.1435 N   0  0  0  0  0  0  0  0  0  0  0  0
   -3.2418   -0.5701   -0.3735 C   0  0  0  0  0  0  0  0  0  0  0  0
   -4.2007    0.1028    0.3247 C   0  0  0  0  0  0  0  0  0  0  0  0
   -5.5580   -0.1293    0.1093 C   0  0  0  0  0  0  0  0  0  0  0  0
   -5.9384   -1.0526   -0.8217 C   0  0  0  0  0  0  0  0  0  0  0  0
   -4.9906   -1.7379   -1.5308 C   0  0  0  0  0  0  0  0  0  0  0  0
   -5.5881   -3.0134   -2.8136 Br  0  0  0  0  0  0  0  0  0  0  0  0
   -3.6473   -1.5045   -1.3147 C   0  0  0  0  0  0  0  0  0  0  0  0
   -0.1068    1.2741    0.5830 C   0  0  0  0  0  0  0  0  0  0  0  0
    0.8219    0.2654    0.5520 C   0  0  0  0  0  0  0  0  0  0  0  0
    5.4942   -1.0239   -2.2456 H   0  0  0  0  0  0  0  0  0  0  0  0
    6.6833   -2.1608   -1.4766 H   0  0  0  0  0  0  0  0  0  0  0  0
    5.2062   -2.8494   -2.2182 H   0  0  0  0  0  0  0  0  0  0  0  0
    5.6798   -1.6206    0.4445 H   0  0  0  0  0  0  0  0  0  0  0  0
    4.5047   -2.8800   -0.0830 H   0  0  0  0  0  0  0  0  0  0  0  0
    3.2607   -1.0863    1.7214 H   0  0  0  0  0  0  0  0  0  0  0  0
    3.5485    1.9772    1.5183 H   0  0  0  0  0  0  0  0  0  0  0  0
    1.8479    3.8237    1.5744 H   0  0  0  0  0  0  0  0  0  0  0  0
   -2.5764    4.1225    0.7010 H   0  0  0  0  0  0  0  0  0  0  0  0
   -1.2456   -1.1210   -0.2844 H   0  0  0  0  0  0  0  0  0  0  0  0
   -3.9909    0.8501    1.1027 H   0  0  0  0  0  0  0  0  0  0  0  0
   -6.3103    0.4036    0.6608 H   0  0  0  0  0  0  0  0  0  0  0  0
   -6.9993   -1.2251   -0.9810 H   0  0  0  0  0  0  0  0  0  0  0  0
   -2.8968   -2.0292   -1.8585 H   0  0  0  0  0  0  0  0  0  0  0  0
    0.5618   -0.7596    0.2661 H   0  0  0  0  0  0  0  0  0  0  0  0
  1  2  1  0
  2  3  1  0
  3  4  2  0
  3  5  1  0
  5  6  1  0
  6  7  2  0
  7  8  1  0
  8  9  2  0
  9 10  1  0
 10 11  2  0
 11 12  1  0
 12 13  2  0
 13 14  1  0
 14 15  1  0
 15 16  2  0
 16 17  1  0
 17 18  2  0
 18 19  1  0
 19 20  1  0
 19 21  2  0
 13 22  1  0
 22 23  2  0
 23  6  1  0
 22  9  1  0
 21 15  1  0
  1 24  1  0
  1 25  1  0
  1 26  1  0
  2 27  1  0
  2 28  1  0
  5 29  1  0
  7 30  1  0
  8 31  1  0
 11 32  1  0
 14 33  1  0
 16 34  1  0
 17 35  1  0
 18 36  1  0
 21 37  1  0
 23 38  1  0
M  END
$$$$
