@<TRIPOS>MOLECULE
*****
 38 40 0 0 0
SMALL
GASTEIGER

@<TRIPOS>ATOM
      1 C           5.6057   -1.9586   -1.6526 C.3     1  UNL1       -0.0570
      2 C           4.9218   -1.8863   -0.3190 C.3     1  UNL1        0.0215
      3 C           3.8936   -0.8158   -0.2786 C.2     1  UNL1        0.2169
      4 O           3.7071   -0.1331   -1.3104 O.2     1  UNL1       -0.2755
      5 N           3.1122   -0.5228    0.8601 N.am    1  UNL1       -0.2855
      6 C           2.1163    0.5219    0.8845 C.ar    1  UNL1        0.0342
      7 C           2.5015    1.7825    1.2513 C.ar    1  UNL1       -0.0384
      8 C           1.5989    2.8045    1.2909 C.ar    1  UNL1       -0.0338
      9 C           0.2806    2.5567    0.9551 C.ar    1  UNL1        0.0761
     10 N          -0.6133    3.5616    0.9922 N.ar    1  UNL1       -0.2353
     11 C          -1.8816    3.2886    0.6613 C.ar    1  UNL1        0.1187
     12 N          -2.2563    2.0518    0.3024 N.ar    1  UNL1       -0.2200
     13 C          -1.4354    0.9900    0.2369 C.ar    1  UNL1        0.1339
     14 N          -1.8692   -0.2967   -0.1435 N.pl3   1  UNL1       -0.2988
     15 C          -3.2418   -0.5701   -0.3735 C.ar    1  UNL1        0.0334
     16 C          -4.2007    0.1028    0.3247 C.ar    1  UNL1       -0.0404
     17 C          -5.5580   -0.1293    0.1093 C.ar    1  UNL1       -0.0590
     18 C          -5.9384   -1.0526   -0.8217 C.ar    1  UNL1       -0.0476
     19 C          -4.9906   -1.7379   -1.5308 C.ar    1  UNL1        0.0196
     20 BR         -5.5881   -3.0134   -2.8136 Br      1  UNL1       -0.0502
     21 C          -3.6473   -1.5045   -1.3147 C.ar    1  UNL1       -0.0265
     22 C          -0.1068    1.2741    0.5830 C.ar    1  UNL1        0.0422
     23 C           0.8219    0.2654    0.5520 C.ar    1  UNL1       -0.0280
     24 H           5.4942   -1.0239   -2.2456 H       1  UNL1        0.0234
     25 H           6.6833   -2.1608   -1.4766 H       1  UNL1        0.0234
     26 H           5.2062   -2.8494   -2.2182 H       1  UNL1        0.0234
     27 H           5.6798   -1.6206    0.4445 H       1  UNL1        0.0356
     28 H           4.5047   -2.8800   -0.0830 H       1  UNL1        0.0356
     29 H           3.2607   -1.0863    1.7214 H       1  UNL1        0.1548
     30 H           3.5485    1.9772    1.5183 H       1  UNL1        0.0637
     31 H           1.8479    3.8237    1.5744 H       1  UNL1        0.0639
     32 H          -2.5764    4.1225    0.7010 H       1  UNL1        0.1048
     33 H          -1.2456   -1.1210   -0.2844 H       1  UNL1        0.1536
     34 H          -3.9909    0.8501    1.1027 H       1  UNL1        0.0636
     35 H          -6.3103    0.4036    0.6608 H       1  UNL1        0.0618
     36 H          -6.9993   -1.2251   -0.9810 H       1  UNL1        0.0629
     37 H          -2.8968   -2.0292   -1.8585 H       1  UNL1        0.0647
     38 H           0.5618   -0.7596    0.2661 H       1  UNL1        0.0644
@<TRIPOS>BOND
     1     1     2    1
     2     2     3    1
     3     3     4    2
     4     3     5   am
     5     5     6    1
     6     6     7   ar
     7     7     8   ar
     8     8     9   ar
     9     9    10   ar
    10    10    11   ar
    11    11    12   ar
    12    12    13   ar
    13    13    14    1
    14    14    15    1
    15    15    16   ar
    16    16    17   ar
    17    17    18   ar
    18    18    19   ar
    19    19    20    1
    20    19    21   ar
    21    13    22   ar
    22    22    23   ar
    23    23     6   ar
    24    22     9   ar
    25    21    15   ar
    26     1    24    1
    27     1    25    1
    28     1    26    1
    29     2    27    1
    30     2    28    1
    31     5    29    1
    32     7    30    1
    33     8    31    1
    34    11    32    1
    35    14    33    1
    36    16    34    1
    37    17    35    1
    38    18    36    1
    39    21    37    1
    40    23    38    1
