
     RDKit          3D

 57 61  0  0  0  0  0  0  0  0999 V2000
    0.9253   -0.6763    0.8815 C   0  0  2  0  0  0  0  0  0  0  0  0
    1.7375   -0.9052    2.0855 C   0  0  0  0  0  0  0  0  0  0  0  0
    3.0887   -0.9904    1.4882 C   0  0  0  0  0  0  0  0  0  0  0  0
    3.1485   -0.3221    0.3151 C   0  0  0  0  0  0  0  0  0  0  0  0
    4.4504   -0.3546   -0.3412 C   0  0  0  0  0  0  0  0  0  0  0  0
    5.5401   -1.0525    0.1240 C   0  0  0  0  0  0  0  0  0  0  0  0
    6.7629   -1.0462   -0.5159 C   0  0  0  0  0  0  0  0  0  0  0  0
    6.9590   -0.3276   -1.6752 C   0  0  0  0  0  0  0  0  0  0  0  0
    5.8919    0.3663   -2.1460 N   0  0  0  0  0  0  0  0  0  0  0  0
    4.7310    0.3337   -1.4988 C   0  0  0  0  0  0  0  0  0  0  0  0
    1.8306    0.2370    0.0621 C   0  0  2  0  0  0  0  0  0  0  0  0
    1.8213    1.6557    0.5771 C   0  0  0  0  0  0  0  0  0  0  0  0
    1.2620    0.1093   -1.3103 C   0  0  0  0  0  0  0  0  0  0  0  0
   -0.1641    0.6818   -1.2538 C   0  0  0  0  0  0  0  0  0  0  0  0
   -1.0503   -0.0736   -0.3138 C   0  0  1  0  0  0  0  0  0  0  0  0
   -0.4527   -0.1693    1.0787 C   0  0  1  0  0  0  0  0  0  0  0  0
   -1.2214   -1.2856    1.7875 C   0  0  0  0  0  0  0  0  0  0  0  0
   -2.6602   -0.8757    1.7532 C   0  0  0  0  0  0  0  0  0  0  0  0
   -3.1973   -0.0484    0.8483 C   0  0  0  0  0  0  0  0  0  0  0  0
   -4.6473    0.2896    0.9130 C   0  0  0  0  0  0  0  0  0  0  0  0
   -5.3034   -0.3237   -0.3103 C   0  0  1  0  0  0  0  0  0  0  0  0
   -6.2486    0.5467   -0.8558 O   0  0  0  0  0  0  0  0  0  0  0  0
   -4.2659   -0.7341   -1.3248 C   0  0  0  0  0  0  0  0  0  0  0  0
   -3.2090    0.3338   -1.5150 C   0  0  0  0  0  0  0  0  0  0  0  0
   -2.3906    0.5778   -0.2651 C   0  0  2  0  0  0  0  0  0  0  0  0
   -2.3322    2.0439    0.0221 C   0  0  0  0  0  0  0  0  0  0  0  0
    0.8348   -1.6282    0.2997 H   0  0  0  0  0  0  0  0  0  0  0  0
    1.6691   -0.0044    2.7361 H   0  0  0  0  0  0  0  0  0  0  0  0
    1.4756   -1.8331    2.6358 H   0  0  0  0  0  0  0  0  0  0  0  0
    3.8178   -1.5670    2.0787 H   0  0  0  0  0  0  0  0  0  0  0  0
    5.4885   -1.6414    1.0157 H   0  0  0  0  0  0  0  0  0  0  0  0
    7.5928   -1.6100   -0.1141 H   0  0  0  0  0  0  0  0  0  0  0  0
    7.9370   -0.3592   -2.1334 H   0  0  0  0  0  0  0  0  0  0  0  0
    4.0171    0.9341   -1.9959 H   0  0  0  0  0  0  0  0  0  0  0  0
    0.9382    1.9424    1.1449 H   0  0  0  0  0  0  0  0  0  0  0  0
    2.7036    1.8688    1.2184 H   0  0  0  0  0  0  0  0  0  0  0  0
    1.8719    2.3986   -0.2695 H   0  0  0  0  0  0  0  0  0  0  0  0
    1.7478    0.6223   -2.1224 H   0  0  0  0  0  0  0  0  0  0  0  0
    1.2324   -0.9687   -1.5586 H   0  0  0  0  0  0  0  0  0  0  0  0
   -0.6202    0.6937   -2.2450 H   0  0  0  0  0  0  0  0  0  0  0  0
   -0.0153    1.7134   -0.8236 H   0  0  0  0  0  0  0  0  0  0  0  0
   -1.1622   -1.1108   -0.7020 H   0  0  0  0  0  0  0  0  0  0  0  0
   -0.5866    0.7123    1.6949 H   0  0  0  0  0  0  0  0  0  0  0  0
   -0.8638   -1.4162    2.8200 H   0  0  0  0  0  0  0  0  0  0  0  0
   -1.0994   -2.2032    1.1945 H   0  0  0  0  0  0  0  0  0  0  0  0
   -3.3239   -1.2823    2.5256 H   0  0  0  0  0  0  0  0  0  0  0  0
   -5.0761   -0.1460    1.8427 H   0  0  0  0  0  0  0  0  0  0  0  0
   -4.8492    1.3737    0.9723 H   0  0  0  0  0  0  0  0  0  0  0  0
   -5.8396   -1.2412    0.0087 H   0  0  0  0  0  0  0  0  0  0  0  0
   -6.8814    0.7718   -0.1289 H   0  0  0  0  0  0  0  0  0  0  0  0
   -3.8299   -1.7275   -1.0888 H   0  0  0  0  0  0  0  0  0  0  0  0
   -4.7686   -0.8325   -2.3086 H   0  0  0  0  0  0  0  0  0  0  0  0
   -2.5576   -0.0102   -2.3449 H   0  0  0  0  0  0  0  0  0  0  0  0
   -3.7543    1.2605   -1.7722 H   0  0  0  0  0  0  0  0  0  0  0  0
   -3.3784    2.4325    0.0369 H   0  0  0  0  0  0  0  0  0  0  0  0
   -1.8807    2.2535    1.0046 H   0  0  0  0  0  0  0  0  0  0  0  0
   -1.8454    2.6138   -0.8114 H   0  0  0  0  0  0  0  0  0  0  0  0
  1  2  1  0
  2  3  1  0
  3  4  2  0
  4  5  1  0
  5  6  2  0
  6  7  1  0
  7  8  2  0
  8  9  1  0
  9 10  2  0
  4 11  1  0
 11 12  1  1
 11 13  1  0
 13 14  1  0
 14 15  1  0
 15 16  1  0
 16 17  1  0
 17 18  1  0
 18 19  2  0
 19 20  1  0
 20 21  1  0
 21 22  1  0
 21 23  1  0
 23 24  1  0
 24 25  1  0
 25 26  1  1
 11  1  1  0
 25 15  1  0
 16  1  1  0
 25 19  1  0
 10  5  1  0
  1 27  1  6
  2 28  1  0
  2 29  1  0
  3 30  1  0
  6 31  1  0
  7 32  1  0
  8 33  1  0
 10 34  1  0
 12 35  1  0
 12 36  1  0
 12 37  1  0
 13 38  1  0
 13 39  1  0
 14 40  1  0
 14 41  1  0
 15 42  1  6
 16 43  1  1
 17 44  1  0
 17 45  1  0
 18 46  1  0
 20 47  1  0
 20 48  1  0
 21 49  1  1
 22 50  1  0
 23 51  1  0
 23 52  1  0
 24 53  1  0
 24 54  1  0
 26 55  1  0
 26 56  1  0
 26 57  1  0
M  END
$$$$
