
     RDKit          3D

 66 70  0  0  0  0  0  0  0  0999 V2000
    6.8669   -2.4685    1.3048 C   0  0  0  0  0  0  0  0  0  0  0  0
    5.3821   -2.4776    1.1330 C   0  0  0  0  0  0  0  0  0  0  0  0
    4.6863   -3.6675    1.2037 C   0  0  0  0  0  0  0  0  0  0  0  0
    3.3202   -3.6946    1.0487 C   0  0  0  0  0  0  0  0  0  0  0  0
    2.6353   -2.5218    0.8199 C   0  0  0  0  0  0  0  0  0  0  0  0
    1.1766   -2.5421    0.6546 C   0  0  0  0  0  0  0  0  0  0  0  0
    0.5939   -3.6779    0.7340 O   0  0  0  0  0  0  0  0  0  0  0  0
    0.4033   -1.3911    0.4174 N   0  0  0  0  0  0  0  0  0  0  0  0
   -1.0165   -1.4506    0.2623 C   0  0  0  0  0  0  0  0  0  0  0  0
   -1.8544   -1.3263    1.3574 C   0  0  0  0  0  0  0  0  0  0  0  0
   -3.2205   -1.3860    1.1917 C   0  0  0  0  0  0  0  0  0  0  0  0
   -3.8207   -1.5682   -0.0412 C   0  0  0  0  0  0  0  0  0  0  0  0
   -5.2928   -1.6238   -0.1469 C   0  0  0  0  0  0  0  0  0  0  0  0
   -5.8650   -0.4127   -0.6800 N   0  0  0  0  0  0  0  0  0  0  0  0
   -7.2882   -0.5671   -0.7302 C   0  0  0  0  0  0  0  0  0  0  0  0
   -8.0218    0.5709   -0.0544 C   0  0  0  0  0  0  0  0  0  0  0  0
   -7.5390    1.7985   -0.6447 N   0  0  0  0  0  0  0  0  0  0  0  0
   -8.2370    2.9302   -0.0619 C   0  0  0  0  0  0  0  0  0  0  0  0
   -6.1072    1.9564   -0.5413 C   0  0  0  0  0  0  0  0  0  0  0  0
   -5.5215    0.7253    0.1460 C   0  0  0  0  0  0  0  0  0  0  0  0
   -2.9927   -1.6926   -1.1350 C   0  0  0  0  0  0  0  0  0  0  0  0
   -3.6029   -1.8876   -2.4648 C   0  0  0  0  0  0  0  0  0  0  0  0
   -4.3751   -3.0337   -2.5404 F   0  0  0  0  0  0  0  0  0  0  0  0
   -4.3149   -0.7650   -2.8829 F   0  0  0  0  0  0  0  0  0  0  0  0
   -2.5793   -2.0498   -3.3805 F   0  0  0  0  0  0  0  0  0  0  0  0
   -1.6108   -1.6321   -0.9665 C   0  0  0  0  0  0  0  0  0  0  0  0
    3.3468   -1.3464    0.7528 C   0  0  0  0  0  0  0  0  0  0  0  0
    4.7265   -1.2795    0.9045 C   0  0  0  0  0  0  0  0  0  0  0  0
    5.4461   -0.0297    0.8270 C   0  0  0  0  0  0  0  0  0  0  0  0
    6.0561    1.0076    0.7802 C   0  0  0  0  0  0  0  0  0  0  0  0
    6.7953    2.2382    0.7057 C   0  0  0  0  0  0  0  0  0  0  0  0
    7.1105    3.1050    1.7384 C   0  0  0  0  0  0  0  0  0  0  0  0
    7.8126    4.1471    1.2698 N   0  0  0  0  0  0  0  0  0  0  0  0
    7.9471    3.9558   -0.0380 C   0  0  0  0  0  0  0  0  0  0  0  0
    8.5684    4.6922   -1.0326 C   0  0  0  0  0  0  0  0  0  0  0  0
    8.5623    4.2620   -2.3424 C   0  0  0  0  0  0  0  0  0  0  0  0
    7.9084    3.0689   -2.5996 C   0  0  0  0  0  0  0  0  0  0  0  0
    7.3045    2.3532   -1.6321 N   0  0  0  0  0  0  0  0  0  0  0  0
    7.3395    2.8063   -0.4042 N   0  0  0  0  0  0  0  0  0  0  0  0
    7.1998   -3.3470    1.9211 H   0  0  0  0  0  0  0  0  0  0  0  0
    7.1301   -1.5772    1.9215 H   0  0  0  0  0  0  0  0  0  0  0  0
    7.4014   -2.4538    0.3366 H   0  0  0  0  0  0  0  0  0  0  0  0
    5.2102   -4.6032    1.3839 H   0  0  0  0  0  0  0  0  0  0  0  0
    2.7593   -4.6422    1.1043 H   0  0  0  0  0  0  0  0  0  0  0  0
    0.8711   -0.4699    0.3524 H   0  0  0  0  0  0  0  0  0  0  0  0
   -1.3728   -1.1831    2.3233 H   0  0  0  0  0  0  0  0  0  0  0  0
   -3.8754   -1.2895    2.0439 H   0  0  0  0  0  0  0  0  0  0  0  0
   -5.6444   -2.5154   -0.7031 H   0  0  0  0  0  0  0  0  0  0  0  0
   -5.7214   -1.7447    0.8874 H   0  0  0  0  0  0  0  0  0  0  0  0
   -7.6188   -1.5435   -0.2786 H   0  0  0  0  0  0  0  0  0  0  0  0
   -7.6233   -0.5925   -1.7900 H   0  0  0  0  0  0  0  0  0  0  0  0
   -9.0894    0.4771   -0.3396 H   0  0  0  0  0  0  0  0  0  0  0  0
   -7.9521    0.5512    1.0377 H   0  0  0  0  0  0  0  0  0  0  0  0
   -9.2061    2.5406    0.3391 H   0  0  0  0  0  0  0  0  0  0  0  0
   -7.6696    3.3033    0.8059 H   0  0  0  0  0  0  0  0  0  0  0  0
   -8.4338    3.7157   -0.8229 H   0  0  0  0  0  0  0  0  0  0  0  0
   -5.8135    2.8831   -0.0226 H   0  0  0  0  0  0  0  0  0  0  0  0
   -5.7018    1.9374   -1.5920 H   0  0  0  0  0  0  0  0  0  0  0  0
   -5.9153    0.5739    1.1539 H   0  0  0  0  0  0  0  0  0  0  0  0
   -4.4112    0.8375    0.2224 H   0  0  0  0  0  0  0  0  0  0  0  0
   -0.9568   -1.7309   -1.8328 H   0  0  0  0  0  0  0  0  0  0  0  0
    2.8654   -0.3854    0.5748 H   0  0  0  0  0  0  0  0  0  0  0  0
    6.8404    2.9794    2.7772 H   0  0  0  0  0  0  0  0  0  0  0  0
    9.0700    5.6211   -0.7961 H   0  0  0  0  0  0  0  0  0  0  0  0
    9.0399    4.8233   -3.1227 H   0  0  0  0  0  0  0  0  0  0  0  0
    7.8895    2.7094   -3.6238 H   0  0  0  0  0  0  0  0  0  0  0  0
  1  2  1  0
  2  3  2  0
  3  4  1  0
  4  5  2  0
  5  6  1  0
  6  7  2  0
  6  8  1  0
  8  9  1  0
  9 10  2  0
 10 11  1  0
 11 12  2  0
 12 13  1  0
 13 14  1  0
 14 15  1  0
 15 16  1  0
 16 17  1  0
 17 18  1  0
 17 19  1  0
 19 20  1  0
 12 21  1  0
 21 22  1  0
 22 23  1  0
 22 24  1  0
 22 25  1  0
 21 26  2  0
  5 27  1  0
 27 28  2  0
 28 29  1  0
 29 30  3  0
 30 31  1  0
 31 32  2  0
 32 33  1  0
 33 34  2  0
 34 35  1  0
 35 36  2  0
 36 37  1  0
 37 38  2  0
 38 39  1  0
 28  2  1  0
 39 31  1  0
 26  9  1  0
 39 34  1  0
 20 14  1  0
  1 40  1  0
  1 41  1  0
  1 42  1  0
  3 43  1  0
  4 44  1  0
  8 45  1  0
 10 46  1  0
 11 47  1  0
 13 48  1  0
 13 49  1  0
 15 50  1  0
 15 51  1  0
 16 52  1  0
 16 53  1  0
 18 54  1  0
 18 55  1  0
 18 56  1  0
 19 57  1  0
 19 58  1  0
 20 59  1  0
 20 60  1  0
 26 61  1  0
 27 62  1  0
 32 63  1  0
 35 64  1  0
 36 65  1  0
 37 66  1  0
M  END
$$$$
