@<TRIPOS>MOLECULE
*****
 66 70 0 0 0
SMALL
GASTEIGER

@<TRIPOS>ATOM
      1 C           6.8669   -2.4685    1.3048 C.3     1  UNL1       -0.0386
      2 C           5.3821   -2.4776    1.1330 C.ar    1  UNL1       -0.0350
      3 C           4.6863   -3.6675    1.2037 C.ar    1  UNL1       -0.0570
      4 C           3.3202   -3.6946    1.0487 C.ar    1  UNL1       -0.0493
      5 C           2.6353   -2.5218    0.8199 C.ar    1  UNL1        0.0382
      6 C           1.1766   -2.5421    0.6546 C.2     1  UNL1        0.2483
      7 O           0.5939   -3.6779    0.7340 O.2     1  UNL1       -0.2699
      8 N           0.4033   -1.3911    0.4174 N.am    1  UNL1       -0.2815
      9 C          -1.0165   -1.4506    0.2623 C.ar    1  UNL1        0.0342
     10 C          -1.8544   -1.3263    1.3574 C.ar    1  UNL1       -0.0401
     11 C          -3.2205   -1.3860    1.1917 C.ar    1  UNL1       -0.0551
     12 C          -3.8207   -1.5682   -0.0412 C.ar    1  UNL1       -0.0216
     13 C          -5.2928   -1.6238   -0.1469 C.3     1  UNL1        0.0247
     14 N          -5.8650   -0.4127   -0.6800 N.3     1  UNL1       -0.2957
     15 C          -7.2882   -0.5671   -0.7302 C.3     1  UNL1        0.0120
     16 C          -8.0218    0.5709   -0.0544 C.3     1  UNL1        0.0114
     17 N          -7.5390    1.7985   -0.6447 N.3     1  UNL1       -0.3029
     18 C          -8.2370    2.9302   -0.0619 C.3     1  UNL1       -0.0127
     19 C          -6.1072    1.9564   -0.5413 C.3     1  UNL1        0.0114
     20 C          -5.5215    0.7253    0.1460 C.3     1  UNL1        0.0120
     21 C          -2.9927   -1.6926   -1.1350 C.ar    1  UNL1        0.0609
     22 C          -3.6029   -1.8876   -2.4648 C.3     1  UNL1        0.4178
     23 F          -4.3751   -3.0337   -2.5404 F       1  UNL1       -0.1659
     24 F          -4.3149   -0.7650   -2.8829 F       1  UNL1       -0.1659
     25 F          -2.5793   -2.0498   -3.3805 F       1  UNL1       -0.1659
     26 C          -1.6108   -1.6321   -0.9665 C.ar    1  UNL1       -0.0285
     27 C           3.3468   -1.3464    0.7528 C.ar    1  UNL1       -0.0339
     28 C           4.7265   -1.2795    0.9045 C.ar    1  UNL1        0.0289
     29 C           5.4461   -0.0297    0.8270 C.1     1  UNL1       -0.0592
     30 C           6.0561    1.0076    0.7802 C.1     1  UNL1       -0.0395
     31 C           6.7953    2.2382    0.7057 C.ar    1  UNL1        0.1356
     32 C           7.1105    3.1050    1.7384 C.ar    1  UNL1        0.0639
     33 N           7.8126    4.1471    1.2698 N.ar    1  UNL1       -0.2334
     34 C           7.9471    3.9558   -0.0380 C.ar    1  UNL1        0.1554
     35 C           8.5684    4.6922   -1.0326 C.ar    1  UNL1       -0.0159
     36 C           8.5623    4.2620   -2.3424 C.ar    1  UNL1       -0.0384
     37 C           7.9084    3.0689   -2.5996 C.ar    1  UNL1        0.0485
     38 N           7.3045    2.3532   -1.6321 N.ar    1  UNL1       -0.1723
     39 N           7.3395    2.8063   -0.4042 N.ar    1  UNL1       -0.2049
     40 H           7.1998   -3.3470    1.9211 H       1  UNL1        0.0278
     41 H           7.1301   -1.5772    1.9215 H       1  UNL1        0.0278
     42 H           7.4014   -2.4538    0.3366 H       1  UNL1        0.0278
     43 H           5.2102   -4.6032    1.3839 H       1  UNL1        0.0621
     44 H           2.7593   -4.6422    1.1043 H       1  UNL1        0.0625
     45 H           0.8711   -0.4699    0.3524 H       1  UNL1        0.1551
     46 H          -1.3728   -1.1831    2.3233 H       1  UNL1        0.0636
     47 H          -3.8754   -1.2895    2.0439 H       1  UNL1        0.0621
     48 H          -5.6444   -2.5154   -0.7031 H       1  UNL1        0.0476
     49 H          -5.7214   -1.7447    0.8874 H       1  UNL1        0.0476
     50 H          -7.6188   -1.5435   -0.2786 H       1  UNL1        0.0439
     51 H          -7.6233   -0.5925   -1.7900 H       1  UNL1        0.0439
     52 H          -9.0894    0.4771   -0.3396 H       1  UNL1        0.0439
     53 H          -7.9521    0.5512    1.0377 H       1  UNL1        0.0439
     54 H          -9.2061    2.5406    0.3391 H       1  UNL1        0.0391
     55 H          -7.6696    3.3033    0.8059 H       1  UNL1        0.0391
     56 H          -8.4338    3.7157   -0.8229 H       1  UNL1        0.0391
     57 H          -5.8135    2.8831   -0.0226 H       1  UNL1        0.0439
     58 H          -5.7018    1.9374   -1.5920 H       1  UNL1        0.0439
     59 H          -5.9153    0.5739    1.1539 H       1  UNL1        0.0439
     60 H          -4.4112    0.8375    0.2224 H       1  UNL1        0.0439
     61 H          -0.9568   -1.7309   -1.8328 H       1  UNL1        0.0642
     62 H           2.8654   -0.3854    0.5748 H       1  UNL1        0.0637
     63 H           6.8404    2.9794    2.7772 H       1  UNL1        0.0859
     64 H           9.0700    5.6211   -0.7961 H       1  UNL1        0.0655
     65 H           9.0399    4.8233   -3.1227 H       1  UNL1        0.0634
     66 H           7.8895    2.7094   -3.6238 H       1  UNL1        0.0847
@<TRIPOS>BOND
     1     1     2    1
     2     2     3   ar
     3     3     4   ar
     4     4     5   ar
     5     5     6    1
     6     6     7    2
     7     6     8   am
     8     8     9    1
     9     9    10   ar
    10    10    11   ar
    11    11    12   ar
    12    12    13    1
    13    13    14    1
    14    14    15    1
    15    15    16    1
    16    16    17    1
    17    17    18    1
    18    17    19    1
    19    19    20    1
    20    12    21   ar
    21    21    22    1
    22    22    23    1
    23    22    24    1
    24    22    25    1
    25    21    26   ar
    26     5    27   ar
    27    27    28   ar
    28    28    29    1
    29    29    30    3
    30    30    31    1
    31    31    32   ar
    32    32    33   ar
    33    33    34   ar
    34    34    35   ar
    35    35    36   ar
    36    36    37   ar
    37    37    38   ar
    38    38    39   ar
    39    28     2   ar
    40    39    31   ar
    41    26     9   ar
    42    39    34   ar
    43    20    14    1
    44     1    40    1
    45     1    41    1
    46     1    42    1
    47     3    43    1
    48     4    44    1
    49     8    45    1
    50    10    46    1
    51    11    47    1
    52    13    48    1
    53    13    49    1
    54    15    50    1
    55    15    51    1
    56    16    52    1
    57    16    53    1
    58    18    54    1
    59    18    55    1
    60    18    56    1
    61    19    57    1
    62    19    58    1
    63    20    59    1
    64    20    60    1
    65    26    61    1
    66    27    62    1
    67    32    63    1
    68    35    64    1
    69    36    65    1
    70    37    66    1
