@<TRIPOS>MOLECULE
*****
 58 62 0 0 0
SMALL
GASTEIGER

@<TRIPOS>ATOM
      1 C          -2.2562    3.6055    1.5579 C.3     1  UNL1       -0.0376
      2 C          -1.9237    2.8685    0.3285 C.ar    1  UNL1       -0.0226
      3 C          -1.2450    3.5220   -0.6887 C.ar    1  UNL1       -0.0567
      4 C          -0.9361    2.8440   -1.8260 C.ar    1  UNL1       -0.0607
      5 C          -1.3068    1.5317   -1.9311 C.ar    1  UNL1       -0.0475
      6 C          -1.9903    0.8349   -0.9333 C.ar    1  UNL1        0.0642
      7 C          -2.3652   -0.5573   -1.1041 C.2     1  UNL1        0.2491
      8 O          -3.4632   -0.8122   -1.6331 O.2     1  UNL1       -0.2699
      9 N          -1.5386   -1.6520   -0.6949 N.am    1  UNL1       -0.2895
     10 C          -1.9688   -3.0040   -0.8882 C.3     1  UNL1        0.0414
     11 C          -1.0005   -4.0600   -0.4900 C.3     1  UNL1        0.0717
     12 C          -0.4960   -4.7456   -1.7673 C.3     1  UNL1       -0.0372
     13 O           0.0187   -3.6918    0.3205 O.3     1  UNL1       -0.3734
     14 C          -0.0386   -2.4727    0.9329 C.3     1  UNL1        0.0669
     15 C          -0.2503   -1.3753   -0.0643 C.3     1  UNL1        0.0538
     16 C           0.8515   -1.2672   -1.0415 C.3     1  UNL1       -0.0040
     17 C           2.1469   -0.9493   -0.4185 C.ar    1  UNL1       -0.0083
     18 C           2.4673    0.4160   -0.2676 C.ar    1  UNL1       -0.0286
     19 C           3.6128    0.7976    0.3393 C.ar    1  UNL1        0.0866
     20 N           3.9865    2.1803    0.5195 N.ar    1  UNL1       -0.1503
     21 N           3.4076    3.2479   -0.0090 N.ar    1  UNL1       -0.1556
     22 C           4.0395    4.3698    0.3894 C.ar    1  UNL1        0.0697
     23 C           5.0643    3.9600    1.2095 C.ar    1  UNL1        0.0697
     24 N           4.9938    2.6209    1.2599 N.ar    1  UNL1       -0.1556
     25 C           4.4693   -0.1708    0.8113 C.ar    1  UNL1       -0.0318
     26 C           4.1846   -1.4795    0.6775 C.ar    1  UNL1       -0.0241
     27 C           3.0198   -1.8841    0.0599 C.ar    1  UNL1        0.1267
     28 F           2.8012   -3.2383   -0.0993 F       1  UNL1       -0.2052
     29 C          -2.2999    1.5312    0.2175 C.ar    1  UNL1        0.1011
     30 N          -2.9951    0.9072    1.2832 N.ar    1  UNL1       -0.1493
     31 N          -4.2820    1.1684    1.5689 N.ar    1  UNL1       -0.1556
     32 C          -4.6824    0.4460    2.6226 C.ar    1  UNL1        0.0697
     33 C          -3.5866   -0.2941    3.0007 C.ar    1  UNL1        0.0697
     34 N          -2.6015    0.0141    2.1723 N.ar    1  UNL1       -0.1556
     35 H          -2.0993    2.9393    2.4423 H       1  UNL1        0.0278
     36 H          -3.3224    3.8981    1.5177 H       1  UNL1        0.0278
     37 H          -1.5697    4.4748    1.6598 H       1  UNL1        0.0278
     38 H          -0.9796    4.5627   -0.5459 H       1  UNL1        0.0621
     39 H          -0.4072    3.3095   -2.6480 H       1  UNL1        0.0618
     40 H          -1.0801    0.9640   -2.8166 H       1  UNL1        0.0626
     41 H          -2.9714   -3.1799   -0.3705 H       1  UNL1        0.0490
     42 H          -2.2254   -3.1465   -1.9758 H       1  UNL1        0.0490
     43 H          -1.6042   -4.8729    0.0184 H       1  UNL1        0.0609
     44 H          -1.2756   -5.4588   -2.0825 H       1  UNL1        0.0255
     45 H           0.4480   -5.2890   -1.5690 H       1  UNL1        0.0255
     46 H          -0.3785   -3.9754   -2.5815 H       1  UNL1        0.0255
     47 H           0.9106   -2.2660    1.4748 H       1  UNL1        0.0578
     48 H          -0.8625   -2.4786    1.7052 H       1  UNL1        0.0578
     49 H          -0.3887   -0.3889    0.4933 H       1  UNL1        0.0526
     50 H           0.6567   -0.5486   -1.8704 H       1  UNL1        0.0333
     51 H           0.9448   -2.2562   -1.5596 H       1  UNL1        0.0333
     52 H           1.7664    1.1641   -0.6541 H       1  UNL1        0.0643
     53 H           3.8041    5.4105    0.1269 H       1  UNL1        0.0864
     54 H           5.7554    4.6322    1.6878 H       1  UNL1        0.0864
     55 H           5.3914    0.1221    1.3004 H       1  UNL1        0.0640
     56 H           4.8470   -2.2827    1.0449 H       1  UNL1        0.0647
     57 H          -5.6738    0.4607    3.0679 H       1  UNL1        0.0864
     58 H          -3.5230   -1.0060    3.8253 H       1  UNL1        0.0864
@<TRIPOS>BOND
     1     1     2    1
     2     2     3   ar
     3     3     4   ar
     4     4     5   ar
     5     5     6   ar
     6     6     7    1
     7     7     8    2
     8     7     9   am
     9     9    10    1
    10    10    11    1
    11    11    12    1
    12    11    13    1
    13    13    14    1
    14    14    15    1
    15    15    16    1
    16    16    17    1
    17    17    18   ar
    18    18    19   ar
    19    19    20    1
    20    20    21   ar
    21    21    22   ar
    22    22    23   ar
    23    23    24   ar
    24    19    25   ar
    25    25    26   ar
    26    26    27   ar
    27    27    28    1
    28     6    29   ar
    29    29    30    1
    30    30    31   ar
    31    31    32   ar
    32    32    33   ar
    33    33    34   ar
    34    29     2   ar
    35    34    30   ar
    36    15     9    1
    37    27    17   ar
    38    24    20   ar
    39     1    35    1
    40     1    36    1
    41     1    37    1
    42     3    38    1
    43     4    39    1
    44     5    40    1
    45    10    41    1
    46    10    42    1
    47    11    43    1
    48    12    44    1
    49    12    45    1
    50    12    46    1
    51    14    47    1
    52    14    48    1
    53    15    49    1
    54    16    50    1
    55    16    51    1
    56    18    52    1
    57    22    53    1
    58    23    54    1
    59    25    55    1
    60    26    56    1
    61    32    57    1
    62    33    58    1
