@<TRIPOS>MOLECULE
*****
 32 32 0 0 0
SMALL
GASTEIGER

@<TRIPOS>ATOM
      1 O           1.5909    2.8480    1.0572 O.2     1  UNL1       -0.2492
      2 C           2.5945    2.2684    0.5676 C.2     1  UNL1        0.3221
      3 O           3.7394    3.0103    0.3625 O.3     1  UNL1       -0.4795
      4 C           2.6082    0.8458    0.2047 C.3     1  UNL1        0.1088
      5 N           1.3400    0.1918    0.4742 N.am    1  UNL1       -0.3046
      6 C           1.0973   -1.1713    0.2141 C.2     1  UNL1        0.2176
      7 O           2.0551   -1.8254   -0.2723 O.2     1  UNL1       -0.2755
      8 C          -0.1801   -1.8706    0.4711 C.3     1  UNL1        0.0482
      9 C           0.0759   -3.3750    0.2359 C.3     1  UNL1        0.0021
     10 S           1.3585   -3.9728    1.3602 S.3     1  UNL1       -0.1775
     11 C          -1.2763   -1.5119   -0.5174 C.3     1  UNL1       -0.0158
     12 C          -1.6229   -0.0877   -0.5442 C.ar    1  UNL1       -0.0466
     13 C          -2.5831    0.3575    0.3563 C.ar    1  UNL1       -0.0586
     14 C          -2.9650    1.6773    0.3704 C.ar    1  UNL1       -0.0615
     15 C          -2.3770    2.5633   -0.5302 C.ar    1  UNL1       -0.0617
     16 C          -1.4285    2.0981   -1.4123 C.ar    1  UNL1       -0.0615
     17 C          -1.0264    0.7837   -1.4497 C.ar    1  UNL1       -0.0586
     18 H           3.9791    3.8280    0.9212 H       1  UNL1        0.2951
     19 H           3.3543    0.3437    0.8873 H       1  UNL1        0.0577
     20 H           2.9160    0.7122   -0.8660 H       1  UNL1        0.0577
     21 H           0.5846    0.7682    0.8896 H       1  UNL1        0.1493
     22 H          -0.5332   -1.7750    1.5079 H       1  UNL1        0.0405
     23 H           0.4150   -3.5609   -0.7882 H       1  UNL1        0.0381
     24 H          -0.8348   -3.9595    0.4097 H       1  UNL1        0.0381
     25 H           0.9448   -3.6750    2.6690 H       1  UNL1        0.1017
     26 H          -2.1565   -2.1193   -0.2287 H       1  UNL1        0.0321
     27 H          -0.9618   -1.8793   -1.5156 H       1  UNL1        0.0321
     28 H          -3.0447   -0.3236    1.0590 H       1  UNL1        0.0620
     29 H          -3.7040    2.0355    1.0588 H       1  UNL1        0.0618
     30 H          -2.6889    3.5943   -0.5046 H       1  UNL1        0.0618
     31 H          -0.9837    2.8011   -2.1034 H       1  UNL1        0.0618
     32 H          -0.2866    0.3803   -2.1253 H       1  UNL1        0.0620
@<TRIPOS>BOND
     1     1     2    2
     2     2     3    1
     3     2     4    1
     4     4     5    1
     5     5     6   am
     6     6     7    2
     7     6     8    1
     8     8     9    1
     9     9    10    1
    10     8    11    1
    11    11    12    1
    12    12    13   ar
    13    13    14   ar
    14    14    15   ar
    15    15    16   ar
    16    16    17   ar
    17    17    12   ar
    18     3    18    1
    19     4    19    1
    20     4    20    1
    21     5    21    1
    22     8    22    1
    23     9    23    1
    24     9    24    1
    25    10    25    1
    26    11    26    1
    27    11    27    1
    28    13    28    1
    29    14    29    1
    30    15    30    1
    31    16    31    1
    32    17    32    1
