
     RDKit          3D

 32 32  0  0  0  0  0  0  0  0999 V2000
    1.5909    2.8480    1.0572 O   0  0  0  0  0  0  0  0  0  0  0  0
    2.5945    2.2684    0.5676 C   0  0  0  0  0  0  0  0  0  0  0  0
    3.7394    3.0103    0.3625 O   0  0  0  0  0  0  0  0  0  0  0  0
    2.6082    0.8458    0.2047 C   0  0  0  0  0  0  0  0  0  0  0  0
    1.3400    0.1918    0.4742 N   0  0  0  0  0  0  0  0  0  0  0  0
    1.0973   -1.1713    0.2141 C   0  0  0  0  0  0  0  0  0  0  0  0
    2.0551   -1.8254   -0.2723 O   0  0  0  0  0  0  0  0  0  0  0  0
   -0.1801   -1.8706    0.4711 C   0  0  0  0  0  0  0  0  0  0  0  0
    0.0759   -3.3750    0.2359 C   0  0  0  0  0  0  0  0  0  0  0  0
    1.3585   -3.9728    1.3602 S   0  0  0  0  0  0  0  0  0  0  0  0
   -1.2763   -1.5119   -0.5174 C   0  0  0  0  0  0  0  0  0  0  0  0
   -1.6229   -0.0877   -0.5442 C   0  0  0  0  0  0  0  0  0  0  0  0
   -2.5831    0.3575    0.3563 C   0  0  0  0  0  0  0  0  0  0  0  0
   -2.9650    1.6773    0.3704 C   0  0  0  0  0  0  0  0  0  0  0  0
   -2.3770    2.5633   -0.5302 C   0  0  0  0  0  0  0  0  0  0  0  0
   -1.4285    2.0981   -1.4123 C   0  0  0  0  0  0  0  0  0  0  0  0
   -1.0264    0.7837   -1.4497 C   0  0  0  0  0  0  0  0  0  0  0  0
    3.9791    3.8280    0.9212 H   0  0  0  0  0  0  0  0  0  0  0  0
    3.3543    0.3437    0.8873 H   0  0  0  0  0  0  0  0  0  0  0  0
    2.9160    0.7122   -0.8660 H   0  0  0  0  0  0  0  0  0  0  0  0
    0.5846    0.7682    0.8896 H   0  0  0  0  0  0  0  0  0  0  0  0
   -0.5332   -1.7750    1.5079 H   0  0  0  0  0  0  0  0  0  0  0  0
    0.4150   -3.5609   -0.7882 H   0  0  0  0  0  0  0  0  0  0  0  0
   -0.8348   -3.9595    0.4097 H   0  0  0  0  0  0  0  0  0  0  0  0
    0.9448   -3.6750    2.6690 H   0  0  0  0  0  0  0  0  0  0  0  0
   -2.1565   -2.1193   -0.2287 H   0  0  0  0  0  0  0  0  0  0  0  0
   -0.9618   -1.8793   -1.5156 H   0  0  0  0  0  0  0  0  0  0  0  0
   -3.0447   -0.3236    1.0590 H   0  0  0  0  0  0  0  0  0  0  0  0
   -3.7040    2.0355    1.0588 H   0  0  0  0  0  0  0  0  0  0  0  0
   -2.6889    3.5943   -0.5046 H   0  0  0  0  0  0  0  0  0  0  0  0
   -0.9837    2.8011   -2.1034 H   0  0  0  0  0  0  0  0  0  0  0  0
   -0.2866    0.3803   -2.1253 H   0  0  0  0  0  0  0  0  0  0  0  0
  1  2  2  0
  2  3  1  0
  2  4  1  0
  4  5  1  0
  5  6  1  0
  6  7  2  0
  6  8  1  0
  8  9  1  0
  9 10  1  0
  8 11  1  0
 11 12  1  0
 12 13  2  0
 13 14  1  0
 14 15  2  0
 15 16  1  0
 16 17  2  0
 17 12  1  0
  3 18  1  0
  4 19  1  0
  4 20  1  0
  5 21  1  0
  8 22  1  0
  9 23  1  0
  9 24  1  0
 10 25  1  0
 11 26  1  0
 11 27  1  0
 13 28  1  0
 14 29  1  0
 15 30  1  0
 16 31  1  0
 17 32  1  0
M  END
$$$$
