@<TRIPOS>MOLECULE
*****
 36 39 0 0 0
SMALL
GASTEIGER

@<TRIPOS>ATOM
      1 O           0.5339   -3.5293    1.3478 O.2     1  UNL1       -0.2638
      2 C           0.5279   -2.2859    1.1566 C.ar    1  UNL1        0.2947
      3 N          -0.5366   -1.5394    1.5090 N.ar    1  UNL1       -0.3068
      4 C          -0.5863   -0.2077    1.3233 C.ar    1  UNL1        0.1247
      5 C          -1.7608    0.6123    1.7117 C.3     1  UNL1        0.0571
      6 N          -2.7386    0.7596    0.6875 N.3     1  UNL1       -0.2927
      7 C          -2.1720    1.4008   -0.4792 C.3     1  UNL1        0.0018
      8 C          -3.3429    1.3400   -1.4396 C.3     1  UNL1       -0.0128
      9 C          -3.8293   -0.0783   -1.2204 C.3     1  UNL1        0.0691
     10 O          -3.2395   -0.8797   -2.2051 O.3     1  UNL1       -0.3905
     11 C          -3.2891   -0.4463    0.1698 C.3     1  UNL1        0.0254
     12 N           0.4911    0.3691    0.7589 N.ar    1  UNL1       -0.2286
     13 C           1.5795   -0.2969    0.3834 C.ar    1  UNL1        0.1241
     14 C           1.6199   -1.6682    0.5794 C.ar    1  UNL1        0.2183
     15 O           2.7751   -2.0762    0.1343 O.2     1  UNL1       -0.4477
     16 C           3.4923   -1.0879   -0.3356 C.ar    1  UNL1        0.1381
     17 C           4.7532   -1.0119   -0.9028 C.ar    1  UNL1       -0.0176
     18 C           5.2704    0.2025   -1.3198 C.ar    1  UNL1       -0.0442
     19 C           4.5530    1.3771   -1.1870 C.ar    1  UNL1        0.0187
     20 BR          5.3046    3.0260   -1.7750 Br      1  UNL1       -0.0503
     21 C           3.2908    1.3043   -0.6198 C.ar    1  UNL1       -0.0349
     22 C           2.7727    0.0961   -0.2033 C.ar    1  UNL1        0.0475
     23 H          -1.3475   -2.0450    1.9457 H       1  UNL1        0.1702
     24 H          -1.4016    1.6547    1.9621 H       1  UNL1        0.0506
     25 H          -2.1979    0.2375    2.6612 H       1  UNL1        0.0506
     26 H          -1.3377    0.7745   -0.9117 H       1  UNL1        0.0427
     27 H          -1.8259    2.4301   -0.2905 H       1  UNL1        0.0427
     28 H          -3.0256    1.5170   -2.4873 H       1  UNL1        0.0303
     29 H          -4.1008    2.0818   -1.0895 H       1  UNL1        0.0303
     30 H          -4.9361   -0.1452   -1.2499 H       1  UNL1        0.0606
     31 H          -2.8972   -0.3544   -2.9630 H       1  UNL1        0.2098
     32 H          -2.5620   -1.2703    0.0308 H       1  UNL1        0.0452
     33 H          -4.1489   -0.8005    0.7641 H       1  UNL1        0.0452
     34 H           5.3551   -1.9249   -1.0255 H       1  UNL1        0.0655
     35 H           6.2625    0.2606   -1.7658 H       1  UNL1        0.0630
     36 H           2.6943    2.2041   -0.4974 H       1  UNL1        0.0636
@<TRIPOS>BOND
     1     1     2    2
     2     2     3   ar
     3     3     4   ar
     4     4     5    1
     5     5     6    1
     6     6     7    1
     7     7     8    1
     8     8     9    1
     9     9    10    1
    10     9    11    1
    11     4    12   ar
    12    12    13   ar
    13    13    14   ar
    14    14    15   ar
    15    15    16   ar
    16    16    17   ar
    17    17    18   ar
    18    18    19   ar
    19    19    20    1
    20    19    21   ar
    21    21    22   ar
    22    14     2   ar
    23    22    16   ar
    24    11     6    1
    25    22    13   ar
    26     3    23    1
    27     5    24    1
    28     5    25    1
    29     7    26    1
    30     7    27    1
    31     8    28    1
    32     8    29    1
    33     9    30    1
    34    10    31    1
    35    11    32    1
    36    11    33    1
    37    17    34    1
    38    18    35    1
    39    21    36    1
