
     RDKit          3D

 36 39  0  0  0  0  0  0  0  0999 V2000
    0.5339   -3.5293    1.3478 O   0  0  0  0  0  0  0  0  0  0  0  0
    0.5279   -2.2859    1.1566 C   0  0  0  0  0  0  0  0  0  0  0  0
   -0.5366   -1.5394    1.5090 N   0  0  0  0  0  0  0  0  0  0  0  0
   -0.5863   -0.2077    1.3233 C   0  0  0  0  0  0  0  0  0  0  0  0
   -1.7608    0.6123    1.7117 C   0  0  0  0  0  0  0  0  0  0  0  0
   -2.7386    0.7596    0.6875 N   0  0  0  0  0  0  0  0  0  0  0  0
   -2.1720    1.4008   -0.4792 C   0  0  0  0  0  0  0  0  0  0  0  0
   -3.3429    1.3400   -1.4396 C   0  0  0  0  0  0  0  0  0  0  0  0
   -3.8293   -0.0783   -1.2204 C   0  0  1  0  0  0  0  0  0  0  0  0
   -3.2395   -0.8797   -2.2051 O   0  0  0  0  0  0  0  0  0  0  0  0
   -3.2891   -0.4463    0.1698 C   0  0  0  0  0  0  0  0  0  0  0  0
    0.4911    0.3691    0.7589 N   0  0  0  0  0  0  0  0  0  0  0  0
    1.5795   -0.2969    0.3834 C   0  0  0  0  0  0  0  0  0  0  0  0
    1.6199   -1.6682    0.5794 C   0  0  0  0  0  0  0  0  0  0  0  0
    2.7751   -2.0762    0.1343 O   0  0  0  0  0  0  0  0  0  0  0  0
    3.4923   -1.0879   -0.3356 C   0  0  0  0  0  0  0  0  0  0  0  0
    4.7532   -1.0119   -0.9028 C   0  0  0  0  0  0  0  0  0  0  0  0
    5.2704    0.2025   -1.3198 C   0  0  0  0  0  0  0  0  0  0  0  0
    4.5530    1.3771   -1.1870 C   0  0  0  0  0  0  0  0  0  0  0  0
    5.3046    3.0260   -1.7750 Br  0  0  0  0  0  0  0  0  0  0  0  0
    3.2908    1.3043   -0.6198 C   0  0  0  0  0  0  0  0  0  0  0  0
    2.7727    0.0961   -0.2033 C   0  0  0  0  0  0  0  0  0  0  0  0
   -1.3475   -2.0450    1.9457 H   0  0  0  0  0  0  0  0  0  0  0  0
   -1.4016    1.6547    1.9621 H   0  0  0  0  0  0  0  0  0  0  0  0
   -2.1979    0.2375    2.6612 H   0  0  0  0  0  0  0  0  0  0  0  0
   -1.3377    0.7745   -0.9117 H   0  0  0  0  0  0  0  0  0  0  0  0
   -1.8259    2.4301   -0.2905 H   0  0  0  0  0  0  0  0  0  0  0  0
   -3.0256    1.5170   -2.4873 H   0  0  0  0  0  0  0  0  0  0  0  0
   -4.1008    2.0818   -1.0895 H   0  0  0  0  0  0  0  0  0  0  0  0
   -4.9361   -0.1452   -1.2499 H   0  0  0  0  0  0  0  0  0  0  0  0
   -2.8972   -0.3544   -2.9630 H   0  0  0  0  0  0  0  0  0  0  0  0
   -2.5620   -1.2703    0.0308 H   0  0  0  0  0  0  0  0  0  0  0  0
   -4.1489   -0.8005    0.7641 H   0  0  0  0  0  0  0  0  0  0  0  0
    5.3551   -1.9249   -1.0255 H   0  0  0  0  0  0  0  0  0  0  0  0
    6.2625    0.2606   -1.7658 H   0  0  0  0  0  0  0  0  0  0  0  0
    2.6943    2.2041   -0.4974 H   0  0  0  0  0  0  0  0  0  0  0  0
  1  2  2  0
  2  3  1  0
  3  4  1  0
  4  5  1  0
  5  6  1  0
  6  7  1  0
  7  8  1  0
  8  9  1  0
  9 10  1  0
  9 11  1  0
  4 12  2  0
 12 13  1  0
 13 14  2  0
 14 15  1  0
 15 16  1  0
 16 17  2  0
 17 18  1  0
 18 19  2  0
 19 20  1  0
 19 21  1  0
 21 22  2  0
 14  2  1  0
 22 16  1  0
 11  6  1  0
 22 13  1  0
  3 23  1  0
  5 24  1  0
  5 25  1  0
  7 26  1  0
  7 27  1  0
  8 28  1  0
  8 29  1  0
  9 30  1  1
 10 31  1  0
 11 32  1  0
 11 33  1  0
 17 34  1  0
 18 35  1  0
 21 36  1  0
M  END
$$$$
