@<TRIPOS>MOLECULE
*****
 23 23 0 0 0
SMALL
GASTEIGER

@<TRIPOS>ATOM
      1 C          -2.1618    1.2202    0.9420 C.3     1  UNL1       -0.0587
      2 C          -1.7738    0.3467   -0.2577 C.3     1  UNL1       -0.0215
      3 C          -2.5663   -0.9180   -0.2829 C.3     1  UNL1       -0.0587
      4 C          -0.3040    0.1460   -0.2684 C.ar    1  UNL1       -0.0447
      5 C           0.5039    0.6272   -1.2793 C.ar    1  UNL1       -0.0566
      6 C           1.8716    0.4419   -1.2916 C.ar    1  UNL1       -0.0408
      7 C           2.4786   -0.2591   -0.2459 C.ar    1  UNL1        0.0246
      8 N           3.9019   -0.4588   -0.2472 N.pl3   1  UNL1       -0.3580
      9 C           1.6816   -0.7403    0.7623 C.ar    1  UNL1       -0.0408
     10 C           0.3167   -0.5447    0.7566 C.ar    1  UNL1       -0.0566
     11 H          -1.2257    1.6352    1.3902 H       1  UNL1        0.0235
     12 H          -2.6583    0.5950    1.7144 H       1  UNL1        0.0235
     13 H          -2.7695    2.0707    0.6179 H       1  UNL1        0.0235
     14 H          -2.0194    0.9245   -1.1806 H       1  UNL1        0.0343
     15 H          -1.9514   -1.8251   -0.3798 H       1  UNL1        0.0235
     16 H          -3.2912   -0.9786   -1.1409 H       1  UNL1        0.0235
     17 H          -3.2112   -1.0045    0.6181 H       1  UNL1        0.0235
     18 H           0.0125    1.1726   -2.0884 H       1  UNL1        0.0621
     19 H           2.4748    0.8409   -2.1138 H       1  UNL1        0.0636
     20 H           4.4713    0.0701   -0.9401 H       1  UNL1        0.1423
     21 H           4.2843   -1.1294    0.4542 H       1  UNL1        0.1423
     22 H           2.1845   -1.2805    1.5599 H       1  UNL1        0.0636
     23 H          -0.2492   -0.9519    1.5838 H       1  UNL1        0.0621
@<TRIPOS>BOND
     1     1     2    1
     2     2     3    1
     3     2     4    1
     4     4     5   ar
     5     5     6   ar
     6     6     7   ar
     7     7     8    1
     8     7     9   ar
     9     9    10   ar
    10    10     4   ar
    11     1    11    1
    12     1    12    1
    13     1    13    1
    14     2    14    1
    15     3    15    1
    16     3    16    1
    17     3    17    1
    18     5    18    1
    19     6    19    1
    20     8    20    1
    21     8    21    1
    22     9    22    1
    23    10    23    1
