
     RDKit          3D

 21 21  0  0  0  0  0  0  0  0999 V2000
    3.1499   -0.5820    0.0998 C   0  0  0  0  0  0  0  0  0  0  0  0
    1.6629   -0.4724   -0.0252 C   0  0  0  0  0  0  0  0  0  0  0  0
    0.9622   -1.5046   -0.5529 N   0  0  0  0  0  0  0  0  0  0  0  0
   -0.3817   -1.4843   -0.6999 C   0  0  0  0  0  0  0  0  0  0  0  0
   -1.1287   -0.3886   -0.3127 C   0  0  0  0  0  0  0  0  0  0  0  0
   -2.6077   -0.2768   -0.4358 C   0  0  0  0  0  0  0  0  0  0  0  0
   -3.0438   -1.4922   -1.0124 O   0  0  0  0  0  0  0  0  0  0  0  0
   -0.4187    0.6827    0.2329 C   0  0  0  0  0  0  0  0  0  0  0  0
   -1.0689    1.9214    0.6932 C   0  0  0  0  0  0  0  0  0  0  0  0
   -1.3691    3.0322    0.1490 O   0  0  0  0  0  0  0  0  0  0  0  0
    0.9724    0.6534    0.3816 C   0  0  0  0  0  0  0  0  0  0  0  0
    1.6639    1.7217    0.9238 O   0  0  0  0  0  0  0  0  0  0  0  0
    3.5757   -1.1804   -0.7045 H   0  0  0  0  0  0  0  0  0  0  0  0
    3.5542    0.4432    0.0306 H   0  0  0  0  0  0  0  0  0  0  0  0
    3.4618   -1.0227    1.0642 H   0  0  0  0  0  0  0  0  0  0  0  0
   -0.9279   -2.3159   -1.1229 H   0  0  0  0  0  0  0  0  0  0  0  0
   -2.9247    0.5934   -1.0467 H   0  0  0  0  0  0  0  0  0  0  0  0
   -3.0858   -0.2311    0.5865 H   0  0  0  0  0  0  0  0  0  0  0  0
   -2.8523   -2.2021   -0.3499 H   0  0  0  0  0  0  0  0  0  0  0  0
   -1.2555    1.6276    1.7376 H   0  0  0  0  0  0  0  0  0  0  0  0
    2.0616    2.4774    0.3637 H   0  0  0  0  0  0  0  0  0  0  0  0
  1  2  1  0
  2  3  2  0
  3  4  1  0
  4  5  2  0
  5  6  1  0
  6  7  1  0
  5  8  1  0
  8  9  1  0
  9 10  2  0
  8 11  2  0
 11 12  1  0
 11  2  1  0
  1 13  1  0
  1 14  1  0
  1 15  1  0
  4 16  1  0
  6 17  1  0
  6 18  1  0
  7 19  1  0
  9 20  1  0
 12 21  1  0
M  END
$$$$
