@<TRIPOS>MOLECULE
*****
 68 70 0 0 0
SMALL
GASTEIGER

@<TRIPOS>ATOM
      1 C          -1.2993    0.2927    0.6099 C.3     1  UNL1        0.1010
      2 C          -2.0597    0.7453   -0.6604 C.3     1  UNL1       -0.0104
      3 C          -2.8705   -0.3721   -1.2476 C.3     1  UNL1        0.0113
      4 N          -3.8177   -0.8517   -0.2368 N.pl3   1  UNL1       -0.3435
      5 C          -4.6730   -1.9466   -0.5648 C.ar    1  UNL1        0.0384
      6 C          -4.6677   -2.5753   -1.8053 C.ar    1  UNL1        0.0229
      7 C          -5.5084   -3.6590   -2.0759 C.ar    1  UNL1        0.1712
      8 N          -6.3509   -4.1241   -1.1411 N.ar    1  UNL1       -0.2171
      9 C          -6.3986   -3.5626    0.0625 C.ar    1  UNL1        0.1712
     10 C          -5.5690   -2.4747    0.3696 C.ar    1  UNL1        0.0229
     11 N          -0.3806   -0.7510    0.3234 N.am    1  UNL1       -0.3028
     12 C           0.3448   -1.9132    0.0121 C.2     1  UNL1        0.2291
     13 O          -0.6177   -2.6968   -0.2174 O.2     1  UNL1       -0.2743
     14 C           1.7861   -2.2607   -0.0703 C.3     1  UNL1        0.0934
     15 N           2.5005   -1.1391    0.5178 N.3     1  UNL1       -0.1855
     16 S           4.1929   -1.3012    0.5456 S.O2    1  UNL1        0.0326
     17 O           4.6366   -2.5200    1.3384 O.2     1  UNL1       -0.1579
     18 O           4.7841   -0.0785    1.2069 O.2     1  UNL1       -0.1579
     19 C           4.8803   -1.3823   -1.1120 C.3     1  UNL1        0.0928
     20 C           6.3329   -1.7690   -0.9034 C.3     1  UNL1       -0.0292
     21 C           7.2624   -1.2802   -1.9769 C.3     1  UNL1       -0.0513
     22 C           7.1339    0.2127   -2.0620 C.3     1  UNL1       -0.0529
     23 C           5.7409    0.5094   -2.5742 C.3     1  UNL1       -0.0513
     24 C           4.6720   -0.0307   -1.6968 C.3     1  UNL1       -0.0292
     25 C          -0.7232    1.5016    1.1578 C.2     1  UNL1        0.2359
     26 O           0.5144    1.5368    1.1016 O.2     1  UNL1       -0.2736
     27 N          -1.7027    2.3963    1.6565 N.am    1  UNL1       -0.3000
     28 C          -3.1046    2.5828    1.9308 C.3     1  UNL1        0.0147
     29 C          -3.3430    3.3110    3.2295 C.3     1  UNL1       -0.0371
     30 C          -2.8842    4.7382    3.1865 C.3     1  UNL1       -0.0502
     31 C          -1.9118    4.8259    2.0293 C.3     1  UNL1       -0.0371
     32 C          -1.0080    3.6304    2.0152 C.3     1  UNL1        0.0147
     33 H          -2.1114   -0.0980    1.2731 H       1  UNL1        0.0595
     34 H          -1.3657    1.1968   -1.3989 H       1  UNL1        0.0303
     35 H          -2.7862    1.5268   -0.3889 H       1  UNL1        0.0303
     36 H          -2.3140   -1.2403   -1.6256 H       1  UNL1        0.0462
     37 H          -3.4782    0.0859   -2.0909 H       1  UNL1        0.0462
     38 H          -3.9550   -0.4706    0.7193 H       1  UNL1        0.1461
     39 H          -3.9910   -2.1936   -2.5533 H       1  UNL1        0.0695
     40 H          -5.4943   -4.1404   -3.0562 H       1  UNL1        0.1376
     41 H          -7.0001   -4.9420   -1.3163 H       1  UNL1        0.4522
     42 H          -7.0901   -3.9357    0.8212 H       1  UNL1        0.1376
     43 H          -5.6047   -2.0060    1.3501 H       1  UNL1        0.0695
     44 H           0.5197   -0.1530    0.4049 H       1  UNL1        0.1495
     45 H           1.9367   -3.1965    0.4716 H       1  UNL1        0.0537
     46 H           2.1197   -2.4076   -1.1180 H       1  UNL1        0.0537
     47 H           2.0934   -0.8828    1.4526 H       1  UNL1        0.1481
     48 H           4.3764   -2.2000   -1.6317 H       1  UNL1        0.0551
     49 H           6.3828   -2.8743   -0.9089 H       1  UNL1        0.0284
     50 H           6.6696   -1.4682    0.1060 H       1  UNL1        0.0284
     51 H           7.1328   -1.7820   -2.9209 H       1  UNL1        0.0266
     52 H           8.3074   -1.4733   -1.5981 H       1  UNL1        0.0266
     53 H           7.8519    0.5776   -2.8074 H       1  UNL1        0.0265
     54 H           7.2663    0.6582   -1.0681 H       1  UNL1        0.0265
     55 H           5.6564    1.6510   -2.5171 H       1  UNL1        0.0266
     56 H           5.6329    0.2089   -3.6120 H       1  UNL1        0.0266
     57 H           3.7379   -0.0682   -2.3103 H       1  UNL1        0.0284
     58 H           4.4244    0.7258   -0.9038 H       1  UNL1        0.0284
     59 H          -3.5643    3.1208    1.1082 H       1  UNL1        0.0464
     60 H          -3.5431    1.5537    1.9880 H       1  UNL1        0.0464
     61 H          -4.4064    3.2546    3.5120 H       1  UNL1        0.0280
     62 H          -2.7675    2.7743    4.0047 H       1  UNL1        0.0280
     63 H          -3.7747    5.3661    2.8957 H       1  UNL1        0.0266
     64 H          -2.4254    5.1173    4.0954 H       1  UNL1        0.0266
     65 H          -1.2437    5.7019    2.2304 H       1  UNL1        0.0280
     66 H          -2.4185    5.0360    1.0754 H       1  UNL1        0.0280
     67 H          -0.2149    3.8671    1.2427 H       1  UNL1        0.0464
     68 H          -0.4502    3.5155    2.9657 H       1  UNL1        0.0464
@<TRIPOS>UNITY_ATOM_ATTR
8 1
charge 1
@<TRIPOS>BOND
     1     1     2    1
     2     2     3    1
     3     3     4    1
     4     4     5    1
     5     5     6   ar
     6     6     7   ar
     7     7     8   ar
     8     8     9   ar
     9     9    10   ar
    10     1    11    1
    11    11    12   am
    12    12    13    2
    13    12    14    1
    14    14    15    1
    15    15    16    1
    16    16    17    2
    17    16    18    2
    18    16    19    1
    19    19    20    1
    20    20    21    1
    21    21    22    1
    22    22    23    1
    23    23    24    1
    24     1    25    1
    25    25    26    2
    26    25    27   am
    27    27    28    1
    28    28    29    1
    29    29    30    1
    30    30    31    1
    31    31    32    1
    32    10     5   ar
    33    24    19    1
    34    32    27    1
    35     1    33    1
    36     2    34    1
    37     2    35    1
    38     3    36    1
    39     3    37    1
    40     4    38    1
    41     6    39    1
    42     7    40    1
    43     8    41    1
    44     9    42    1
    45    10    43    1
    46    11    44    1
    47    14    45    1
    48    14    46    1
    49    15    47    1
    50    19    48    1
    51    20    49    1
    52    20    50    1
    53    21    51    1
    54    21    52    1
    55    22    53    1
    56    22    54    1
    57    23    55    1
    58    23    56    1
    59    24    57    1
    60    24    58    1
    61    28    59    1
    62    28    60    1
    63    29    61    1
    64    29    62    1
    65    30    63    1
    66    30    64    1
    67    31    65    1
    68    31    66    1
    69    32    67    1
    70    32    68    1
