@<TRIPOS>MOLECULE
*****
 67 71 0 0 0
SMALL
GASTEIGER

@<TRIPOS>ATOM
      1 O          -3.3270   -1.2241   -0.2490 O.2     1  UNL1       -0.2528
      2 C          -3.3908    0.0314   -0.3074 C.2     1  UNL1        0.3006
      3 N          -2.2121    0.7363   -0.6181 N.am    1  UNL1       -0.2965
      4 C          -0.9647    0.0496   -0.8633 C.3     1  UNL1        0.0269
      5 C          -0.4697    0.3715   -2.2550 C.3     1  UNL1       -0.0216
      6 C           0.7213   -0.4894   -2.5011 C.3     1  UNL1        0.0009
      7 N           1.7508   -0.2832   -1.5266 N.3     1  UNL1       -0.2980
      8 C           2.4331   -1.4916   -1.1997 C.3     1  UNL1        0.0255
      9 C           3.5045   -1.3046   -0.1991 C.ar    1  UNL1       -0.0155
     10 C           3.4260   -1.4333    1.1706 C.ar    1  UNL1       -0.0394
     11 C           4.6863   -1.1569    1.6545 C.ar    1  UNL1        0.0101
     12 N           5.5394   -0.8644    0.6577 N.ar    1  UNL1       -0.3227
     13 C           6.9359   -0.5249    0.7823 C.ar    1  UNL1        0.0460
     14 C           7.3287    0.7994    0.7887 C.ar    1  UNL1       -0.0373
     15 C           8.6458    1.1843    0.9043 C.ar    1  UNL1       -0.0482
     16 C           9.6311    0.2249    1.0198 C.ar    1  UNL1        0.0549
     17 C          11.0569    0.6509    1.1444 C.3     1  UNL1        0.4174
     18 F          11.6604    0.7031   -0.1032 F       1  UNL1       -0.1659
     19 F          11.1134    1.9254    1.7217 F       1  UNL1       -0.1659
     20 F          11.7110   -0.1898    2.0062 F       1  UNL1       -0.1659
     21 C           9.2420   -1.0880    1.0135 C.ar    1  UNL1       -0.0482
     22 C           7.9041   -1.4765    0.8960 C.ar    1  UNL1       -0.0373
     23 C           4.8226   -0.9532   -0.4757 C.ar    1  UNL1        0.0142
     24 C           1.4616    0.5748   -0.4670 C.3     1  UNL1        0.0009
     25 C           0.0869    0.5342    0.1054 C.3     1  UNL1       -0.0216
     26 N          -4.6397    0.6565   -0.0578 N.am    1  UNL1       -0.2856
     27 C          -5.8171   -0.1296    0.2570 C.3     1  UNL1        0.1076
     28 C          -6.8878    0.0628   -0.7493 C.ar    1  UNL1       -0.0199
     29 C          -7.1633    1.3480   -1.1696 C.ar    1  UNL1       -0.0564
     30 C          -8.1680    1.5742   -2.1179 C.ar    1  UNL1       -0.0614
     31 C          -8.8605    0.4851   -2.6083 C.ar    1  UNL1       -0.0617
     32 C          -8.5607   -0.7778   -2.1686 C.ar    1  UNL1       -0.0614
     33 C          -7.5684   -1.0307   -1.2282 C.ar    1  UNL1       -0.0564
     34 C          -6.3122    0.1773    1.6318 C.ar    1  UNL1        0.1321
     35 N          -6.4542    1.3895    2.2035 N.ar    1  UNL1       -0.2385
     36 C          -6.9302    1.2365    3.4481 C.ar    1  UNL1        0.0456
     37 C          -7.0845   -0.1109    3.6445 C.ar    1  UNL1        0.0213
     38 N          -6.6989   -0.7259    2.5188 N.ar    1  UNL1       -0.3465
     39 H          -2.2453    1.7735   -0.6709 H       1  UNL1        0.1505
     40 H          -1.1040   -1.0318   -0.7642 H       1  UNL1        0.0499
     41 H          -1.2698    0.1717   -2.9768 H       1  UNL1        0.0295
     42 H          -0.2365    1.4517   -2.3119 H       1  UNL1        0.0295
     43 H           0.3919   -1.5563   -2.4117 H       1  UNL1        0.0427
     44 H           1.1084   -0.3293   -3.5283 H       1  UNL1        0.0427
     45 H           2.8103   -1.9853   -2.1232 H       1  UNL1        0.0476
     46 H           1.6466   -2.1867   -0.7751 H       1  UNL1        0.0476
     47 H           2.5329   -1.7029    1.7557 H       1  UNL1        0.0636
     48 H           4.9499   -1.1734    2.6861 H       1  UNL1        0.0813
     49 H           6.5514    1.5447    0.6981 H       1  UNL1        0.0638
     50 H           8.8776    2.2441    0.9016 H       1  UNL1        0.0624
     51 H          10.0093   -1.8434    1.1037 H       1  UNL1        0.0624
     52 H           7.6562   -2.5174    0.8968 H       1  UNL1        0.0638
     53 H           5.2326   -0.7721   -1.4638 H       1  UNL1        0.0816
     54 H           2.1985    0.4614    0.3418 H       1  UNL1        0.0427
     55 H           1.6238    1.6361   -0.8318 H       1  UNL1        0.0427
     56 H           0.0217   -0.1262    0.9958 H       1  UNL1        0.0295
     57 H          -0.2339    1.5407    0.4475 H       1  UNL1        0.0295
     58 H          -4.7338    1.6894   -0.0960 H       1  UNL1        0.1513
     59 H          -5.5482   -1.2262    0.2550 H       1  UNL1        0.0630
     60 H          -6.6023    2.1791   -0.7654 H       1  UNL1        0.0621
     61 H          -8.3749    2.5673   -2.4374 H       1  UNL1        0.0618
     62 H          -9.6354    0.6568   -3.3395 H       1  UNL1        0.0618
     63 H          -9.1126   -1.6066   -2.5646 H       1  UNL1        0.0618
     64 H          -7.3269   -2.0239   -0.8775 H       1  UNL1        0.0621
     65 H          -7.1648    1.9889    4.1932 H       1  UNL1        0.0845
     66 H          -7.4525   -0.6143    4.5453 H       1  UNL1        0.0823
     67 H          -6.7223   -1.7766    2.4135 H       1  UNL1        0.1666
@<TRIPOS>BOND
     1     1     2    2
     2     2     3   am
     3     3     4    1
     4     4     5    1
     5     5     6    1
     6     6     7    1
     7     7     8    1
     8     8     9    1
     9     9    10   ar
    10    10    11   ar
    11    11    12   ar
    12    12    13    1
    13    13    14   ar
    14    14    15   ar
    15    15    16   ar
    16    16    17    1
    17    17    18    1
    18    17    19    1
    19    17    20    1
    20    16    21   ar
    21    21    22   ar
    22    12    23   ar
    23     7    24    1
    24    24    25    1
    25     2    26   am
    26    26    27    1
    27    27    28    1
    28    28    29   ar
    29    29    30   ar
    30    30    31   ar
    31    31    32   ar
    32    32    33   ar
    33    27    34    1
    34    34    35   ar
    35    35    36   ar
    36    36    37   ar
    37    37    38   ar
    38    25     4    1
    39    33    28   ar
    40    38    34   ar
    41    23     9   ar
    42    22    13   ar
    43     3    39    1
    44     4    40    1
    45     5    41    1
    46     5    42    1
    47     6    43    1
    48     6    44    1
    49     8    45    1
    50     8    46    1
    51    10    47    1
    52    11    48    1
    53    14    49    1
    54    15    50    1
    55    21    51    1
    56    22    52    1
    57    23    53    1
    58    24    54    1
    59    24    55    1
    60    25    56    1
    61    25    57    1
    62    26    58    1
    63    27    59    1
    64    29    60    1
    65    30    61    1
    66    31    62    1
    67    32    63    1
    68    33    64    1
    69    36    65    1
    70    37    66    1
    71    38    67    1
