@<TRIPOS>MOLECULE
*****
 43 46 0 0 0
SMALL
GASTEIGER

@<TRIPOS>ATOM
      1 N          -2.0987    3.2712    1.6891 N.pl3   1  UNL1       -0.3134
      2 C          -2.8271    2.1545    1.1841 C.2     1  UNL1        0.2764
      3 N          -2.2744    1.3650    0.3467 N.2     1  UNL1       -0.2194
      4 C          -2.9162    0.1973   -0.2353 C.3     1  UNL1        0.1590
      5 C          -1.8294   -0.8198   -0.4324 C.ar    1  UNL1        0.0059
      6 C          -0.5201   -0.5612   -0.0879 C.ar    1  UNL1       -0.0334
      7 C           0.5100   -1.4430   -0.2444 C.ar    1  UNL1        0.0341
      8 N           1.8313   -1.0707    0.1472 N.am    1  UNL1       -0.2802
      9 C           2.7481   -0.4429   -0.7218 C.2     1  UNL1        0.2698
     10 O           2.3836   -0.2000   -1.8970 O.2     1  UNL1       -0.2681
     11 C           4.1016   -0.0586   -0.3298 C.ar    1  UNL1        0.1657
     12 N           4.7035   -0.2174    0.8630 N.ar    1  UNL1       -0.1604
     13 N           5.9325    0.2658    0.8043 N.ar    1  UNL1       -0.2091
     14 C           6.9288    0.2939    1.8800 C.3     1  UNL1        0.3342
     15 F           7.8894   -0.6549    1.6784 F       1  UNL1       -0.1832
     16 F           6.2967    0.1458    3.0962 F       1  UNL1       -0.1832
     17 C           6.1800    0.7565   -0.4223 C.ar    1  UNL1        0.0503
     18 C           5.0284    0.5554   -1.1444 C.ar    1  UNL1        0.0909
     19 CL          4.8230    1.0200   -2.8190 Cl      1  UNL1       -0.0795
     20 C           0.2094   -2.6773   -0.7862 C.ar    1  UNL1       -0.0391
     21 C          -1.0817   -3.0098   -1.1564 C.ar    1  UNL1       -0.0413
     22 C          -2.0956   -2.0625   -0.9712 C.ar    1  UNL1        0.0467
     23 CL         -3.6972   -2.5206   -1.4458 Cl      1  UNL1       -0.0832
     24 C          -3.4314    0.6872   -1.5825 C.3     1  UNL1        0.2685
     25 F          -4.3148    1.7230   -1.3925 F       1  UNL1       -0.2062
     26 F          -2.3979    1.1789   -2.3579 F       1  UNL1       -0.2062
     27 C          -3.9797   -0.3751    0.6354 C.3     1  UNL1        0.0344
     28 C          -5.4043   -0.0592    0.5477 C.3     1  UNL1       -0.0064
     29 C          -4.5211    0.5283    1.6669 C.3     1  UNL1        0.1091
     30 O          -4.1277    1.8687    1.5562 O.2     1  UNL1       -0.4622
     31 H          -2.5798    4.1909    1.7410 H       1  UNL1        0.1466
     32 H          -1.1292    3.1297    1.9826 H       1  UNL1        0.1466
     33 H          -0.2882    0.4144    0.3393 H       1  UNL1        0.0640
     34 H           2.1467   -1.2674    1.1225 H       1  UNL1        0.1552
     35 H           7.3870    1.2991    1.8659 H       1  UNL1        0.1295
     36 H           7.1181    1.2155   -0.7452 H       1  UNL1        0.0843
     37 H           1.0184   -3.3862   -0.9155 H       1  UNL1        0.0636
     38 H          -1.3219   -3.9864   -1.5856 H       1  UNL1        0.0633
     39 H          -3.9239   -0.0938   -2.1690 H       1  UNL1        0.1047
     40 H          -3.7512   -1.4074    1.0432 H       1  UNL1        0.0366
     41 H          -6.1446   -0.8272    0.9029 H       1  UNL1        0.0306
     42 H          -5.8671    0.6999   -0.0823 H       1  UNL1        0.0306
     43 H          -4.7132    0.1805    2.7022 H       1  UNL1        0.0737
@<TRIPOS>BOND
     1     1     2    1
     2     2     3    2
     3     3     4    1
     4     4     5    1
     5     5     6   ar
     6     6     7   ar
     7     7     8    1
     8     8     9   am
     9     9    10    2
    10     9    11    1
    11    11    12   ar
    12    12    13   ar
    13    13    14    1
    14    14    15    1
    15    14    16    1
    16    13    17   ar
    17    17    18   ar
    18    18    19    1
    19     7    20   ar
    20    20    21   ar
    21    21    22   ar
    22    22    23    1
    23     4    24    1
    24    24    25    1
    25    24    26    1
    26     4    27    1
    27    27    28    1
    28    28    29    1
    29    29    30    1
    30    30     2    1
    31    22     5   ar
    32    29    27    1
    33    18    11   ar
    34     1    31    1
    35     1    32    1
    36     6    33    1
    37     8    34    1
    38    14    35    1
    39    17    36    1
    40    20    37    1
    41    21    38    1
    42    24    39    1
    43    27    40    1
    44    28    41    1
    45    28    42    1
    46    29    43    1
