@<TRIPOS>MOLECULE
*****
 62 66 0 0 0
SMALL
GASTEIGER

@<TRIPOS>ATOM
      1 C           7.6701   -1.9052    4.1421 C.3     1  UNL1        0.0004
      2 N           7.9245   -1.2094    2.9025 N.am    1  UNL1       -0.3132
      3 C           6.9151   -0.7777    2.0127 C.2     1  UNL1        0.2623
      4 O           5.7120   -0.9834    2.2722 O.2     1  UNL1       -0.2685
      5 C           7.3218   -0.0857    0.7833 C.ar    1  UNL1        0.1288
      6 C           6.2893    0.2905   -0.0920 C.ar    1  UNL1        0.0112
      7 C           6.6072    0.9283   -1.2607 C.ar    1  UNL1        0.1321
      8 O           5.6846    1.3199   -2.1591 O.3     1  UNL1       -0.4558
      9 C           4.3187    1.2334   -2.1201 C.ar    1  UNL1        0.1307
     10 C           3.4827    2.2643   -1.7960 C.ar    1  UNL1       -0.0157
     11 C           2.1131    2.1352   -1.7769 C.ar    1  UNL1       -0.0136
     12 C           1.5388    0.9093   -2.0963 C.ar    1  UNL1        0.1572
     13 O           0.2830    0.5009   -2.1653 O.2     1  UNL1       -0.4243
     14 C           0.2254   -0.7631   -2.5184 C.ar    1  UNL1        0.2928
     15 N          -0.9330   -1.5982   -2.7180 N.pl3   1  UNL1       -0.2688
     16 C          -2.2465   -1.0572   -2.7000 C.ar    1  UNL1        0.0385
     17 C          -2.8739   -0.8798   -3.9487 C.ar    1  UNL1       -0.0388
     18 C          -4.1438   -0.3595   -3.9937 C.ar    1  UNL1       -0.0381
     19 C          -4.8324   -0.0040   -2.8655 C.ar    1  UNL1        0.0826
     20 CL         -6.4440    0.6709   -2.9103 Cl      1  UNL1       -0.0798
     21 C          -4.2334   -0.1731   -1.6071 C.ar    1  UNL1        0.1406
     22 O          -4.9508    0.1844   -0.5256 O.3     1  UNL1       -0.4889
     23 C          -4.5862    0.1157    0.7889 C.3     1  UNL1        0.1051
     24 C          -5.6727    0.6954    1.7056 C.3     1  UNL1        0.0442
     25 C          -5.3118    0.5648    3.1505 C.3     1  UNL1       -0.0330
     26 C          -6.3891   -0.3363    3.7635 C.3     1  UNL1       -0.0387
     27 C          -7.0703   -0.9771    2.5751 C.3     1  UNL1       -0.0010
     28 N          -6.8985   -0.0156    1.5628 N.3     1  UNL1       -0.2992
     29 C          -8.0286    0.7078    1.1108 C.3     1  UNL1       -0.0124
     30 C          -2.9553   -0.6959   -1.5849 C.ar    1  UNL1        0.0028
     31 N           1.5012   -1.1618   -2.6780 N.ar    1  UNL1       -0.1951
     32 C           2.3462   -0.1327   -2.4199 C.ar    1  UNL1        0.1147
     33 C           3.7094    0.0027   -2.4387 C.ar    1  UNL1        0.0098
     34 C           7.9603    1.1691   -1.5113 C.ar    1  UNL1       -0.0012
     35 C           8.9237    0.7776   -0.6182 C.ar    1  UNL1        0.0319
     36 N           8.6068    0.1570    0.5145 N.ar    1  UNL1       -0.2501
     37 H           6.6921   -2.3789    4.2001 H       1  UNL1        0.0426
     38 H           7.7743   -1.1577    4.9706 H       1  UNL1        0.0426
     39 H           8.4917   -2.6766    4.2530 H       1  UNL1        0.0426
     40 H           8.9454   -1.0297    2.6643 H       1  UNL1        0.1487
     41 H           5.2772    0.0760    0.1675 H       1  UNL1        0.0677
     42 H           3.9531    3.2339   -1.5469 H       1  UNL1        0.0655
     43 H           1.5282    2.9906   -1.5163 H       1  UNL1        0.0656
     44 H          -0.7537   -2.6089   -2.8729 H       1  UNL1        0.1565
     45 H          -2.3429   -1.1535   -4.8539 H       1  UNL1        0.0637
     46 H          -4.6220   -0.2233   -4.9607 H       1  UNL1        0.0634
     47 H          -3.6256    0.5849    1.0695 H       1  UNL1        0.0712
     48 H          -4.5191   -0.9618    1.0992 H       1  UNL1        0.0712
     49 H          -5.8344    1.7323    1.3882 H       1  UNL1        0.0496
     50 H          -4.3046    0.1171    3.3050 H       1  UNL1        0.0282
     51 H          -5.3673    1.5828    3.5995 H       1  UNL1        0.0282
     52 H          -7.1340    0.3049    4.2700 H       1  UNL1        0.0278
     53 H          -5.9194   -1.0761    4.4206 H       1  UNL1        0.0278
     54 H          -6.5979   -1.9565    2.3619 H       1  UNL1        0.0427
     55 H          -8.1548   -1.1852    2.7421 H       1  UNL1        0.0427
     56 H          -8.6727    0.9857    1.9831 H       1  UNL1        0.0391
     57 H          -8.6955    0.1353    0.4254 H       1  UNL1        0.0391
     58 H          -7.7095    1.6682    0.6560 H       1  UNL1        0.0391
     59 H          -2.4663   -0.8308   -0.6119 H       1  UNL1        0.0673
     60 H           4.3366   -0.8560   -2.6961 H       1  UNL1        0.0677
     61 H           8.1997    1.6727   -2.4292 H       1  UNL1        0.0669
     62 H           9.9576    0.9930   -0.8682 H       1  UNL1        0.0831
@<TRIPOS>BOND
     1     1     2    1
     2     2     3   am
     3     3     4    2
     4     3     5    1
     5     5     6   ar
     6     6     7   ar
     7     7     8    1
     8     8     9    1
     9     9    10   ar
    10    10    11   ar
    11    11    12   ar
    12    12    13   ar
    13    13    14   ar
    14    14    15    1
    15    15    16    1
    16    16    17   ar
    17    17    18   ar
    18    18    19   ar
    19    19    20    1
    20    19    21   ar
    21    21    22    1
    22    22    23    1
    23    23    24    1
    24    24    25    1
    25    25    26    1
    26    26    27    1
    27    27    28    1
    28    28    29    1
    29    21    30   ar
    30    14    31   ar
    31    31    32   ar
    32    32    33   ar
    33     7    34   ar
    34    34    35   ar
    35    35    36   ar
    36    36     5   ar
    37    33     9   ar
    38    32    12   ar
    39    30    16   ar
    40    28    24    1
    41     1    37    1
    42     1    38    1
    43     1    39    1
    44     2    40    1
    45     6    41    1
    46    10    42    1
    47    11    43    1
    48    15    44    1
    49    17    45    1
    50    18    46    1
    51    23    47    1
    52    23    48    1
    53    24    49    1
    54    25    50    1
    55    25    51    1
    56    26    52    1
    57    26    53    1
    58    27    54    1
    59    27    55    1
    60    29    56    1
    61    29    57    1
    62    29    58    1
    63    30    59    1
    64    33    60    1
    65    34    61    1
    66    35    62    1
