
     RDKit          3D

 62 66  0  0  0  0  0  0  0  0999 V2000
    7.6701   -1.9052    4.1421 C   0  0  0  0  0  0  0  0  0  0  0  0
    7.9245   -1.2094    2.9025 N   0  0  0  0  0  0  0  0  0  0  0  0
    6.9151   -0.7777    2.0127 C   0  0  0  0  0  0  0  0  0  0  0  0
    5.7120   -0.9834    2.2722 O   0  0  0  0  0  0  0  0  0  0  0  0
    7.3218   -0.0857    0.7833 C   0  0  0  0  0  0  0  0  0  0  0  0
    6.2893    0.2905   -0.0920 C   0  0  0  0  0  0  0  0  0  0  0  0
    6.6072    0.9283   -1.2607 C   0  0  0  0  0  0  0  0  0  0  0  0
    5.6846    1.3199   -2.1591 O   0  0  0  0  0  0  0  0  0  0  0  0
    4.3187    1.2334   -2.1201 C   0  0  0  0  0  0  0  0  0  0  0  0
    3.4827    2.2643   -1.7960 C   0  0  0  0  0  0  0  0  0  0  0  0
    2.1131    2.1352   -1.7769 C   0  0  0  0  0  0  0  0  0  0  0  0
    1.5388    0.9093   -2.0963 C   0  0  0  0  0  0  0  0  0  0  0  0
    0.2830    0.5009   -2.1653 O   0  0  0  0  0  0  0  0  0  0  0  0
    0.2254   -0.7631   -2.5184 C   0  0  0  0  0  0  0  0  0  0  0  0
   -0.9330   -1.5982   -2.7180 N   0  0  0  0  0  0  0  0  0  0  0  0
   -2.2465   -1.0572   -2.7000 C   0  0  0  0  0  0  0  0  0  0  0  0
   -2.8739   -0.8798   -3.9487 C   0  0  0  0  0  0  0  0  0  0  0  0
   -4.1438   -0.3595   -3.9937 C   0  0  0  0  0  0  0  0  0  0  0  0
   -4.8324   -0.0040   -2.8655 C   0  0  0  0  0  0  0  0  0  0  0  0
   -6.4440    0.6709   -2.9103 Cl  0  0  0  0  0  0  0  0  0  0  0  0
   -4.2334   -0.1731   -1.6071 C   0  0  0  0  0  0  0  0  0  0  0  0
   -4.9508    0.1844   -0.5256 O   0  0  0  0  0  0  0  0  0  0  0  0
   -4.5862    0.1157    0.7889 C   0  0  0  0  0  0  0  0  0  0  0  0
   -5.6727    0.6954    1.7056 C   0  0  2  0  0  0  0  0  0  0  0  0
   -5.3118    0.5648    3.1505 C   0  0  0  0  0  0  0  0  0  0  0  0
   -6.3891   -0.3363    3.7635 C   0  0  0  0  0  0  0  0  0  0  0  0
   -7.0703   -0.9771    2.5751 C   0  0  0  0  0  0  0  0  0  0  0  0
   -6.8985   -0.0156    1.5628 N   0  0  0  0  0  0  0  0  0  0  0  0
   -8.0286    0.7078    1.1108 C   0  0  0  0  0  0  0  0  0  0  0  0
   -2.9553   -0.6959   -1.5849 C   0  0  0  0  0  0  0  0  0  0  0  0
    1.5012   -1.1618   -2.6780 N   0  0  0  0  0  0  0  0  0  0  0  0
    2.3462   -0.1327   -2.4199 C   0  0  0  0  0  0  0  0  0  0  0  0
    3.7094    0.0027   -2.4387 C   0  0  0  0  0  0  0  0  0  0  0  0
    7.9603    1.1691   -1.5113 C   0  0  0  0  0  0  0  0  0  0  0  0
    8.9237    0.7776   -0.6182 C   0  0  0  0  0  0  0  0  0  0  0  0
    8.6068    0.1570    0.5145 N   0  0  0  0  0  0  0  0  0  0  0  0
    6.6921   -2.3789    4.2001 H   0  0  0  0  0  0  0  0  0  0  0  0
    7.7743   -1.1577    4.9706 H   0  0  0  0  0  0  0  0  0  0  0  0
    8.4917   -2.6766    4.2530 H   0  0  0  0  0  0  0  0  0  0  0  0
    8.9454   -1.0297    2.6643 H   0  0  0  0  0  0  0  0  0  0  0  0
    5.2772    0.0760    0.1675 H   0  0  0  0  0  0  0  0  0  0  0  0
    3.9531    3.2339   -1.5469 H   0  0  0  0  0  0  0  0  0  0  0  0
    1.5282    2.9906   -1.5163 H   0  0  0  0  0  0  0  0  0  0  0  0
   -0.7537   -2.6089   -2.8729 H   0  0  0  0  0  0  0  0  0  0  0  0
   -2.3429   -1.1535   -4.8539 H   0  0  0  0  0  0  0  0  0  0  0  0
   -4.6220   -0.2233   -4.9607 H   0  0  0  0  0  0  0  0  0  0  0  0
   -3.6256    0.5849    1.0695 H   0  0  0  0  0  0  0  0  0  0  0  0
   -4.5191   -0.9618    1.0992 H   0  0  0  0  0  0  0  0  0  0  0  0
   -5.8344    1.7323    1.3882 H   0  0  0  0  0  0  0  0  0  0  0  0
   -4.3046    0.1171    3.3050 H   0  0  0  0  0  0  0  0  0  0  0  0
   -5.3673    1.5828    3.5995 H   0  0  0  0  0  0  0  0  0  0  0  0
   -7.1340    0.3049    4.2700 H   0  0  0  0  0  0  0  0  0  0  0  0
   -5.9194   -1.0761    4.4206 H   0  0  0  0  0  0  0  0  0  0  0  0
   -6.5979   -1.9565    2.3619 H   0  0  0  0  0  0  0  0  0  0  0  0
   -8.1548   -1.1852    2.7421 H   0  0  0  0  0  0  0  0  0  0  0  0
   -8.6727    0.9857    1.9831 H   0  0  0  0  0  0  0  0  0  0  0  0
   -8.6955    0.1353    0.4254 H   0  0  0  0  0  0  0  0  0  0  0  0
   -7.7095    1.6682    0.6560 H   0  0  0  0  0  0  0  0  0  0  0  0
   -2.4663   -0.8308   -0.6119 H   0  0  0  0  0  0  0  0  0  0  0  0
    4.3366   -0.8560   -2.6961 H   0  0  0  0  0  0  0  0  0  0  0  0
    8.1997    1.6727   -2.4292 H   0  0  0  0  0  0  0  0  0  0  0  0
    9.9576    0.9930   -0.8682 H   0  0  0  0  0  0  0  0  0  0  0  0
  1  2  1  0
  2  3  1  0
  3  4  2  0
  3  5  1  0
  5  6  2  0
  6  7  1  0
  7  8  1  0
  8  9  1  0
  9 10  2  0
 10 11  1  0
 11 12  2  0
 12 13  1  0
 13 14  1  0
 14 15  1  0
 15 16  1  0
 16 17  2  0
 17 18  1  0
 18 19  2  0
 19 20  1  0
 19 21  1  0
 21 22  1  0
 22 23  1  0
 23 24  1  0
 24 25  1  0
 25 26  1  0
 26 27  1  0
 27 28  1  0
 28 29  1  0
 21 30  2  0
 14 31  2  0
 31 32  1  0
 32 33  2  0
  7 34  2  0
 34 35  1  0
 35 36  2  0
 36  5  1  0
 33  9  1  0
 32 12  1  0
 30 16  1  0
 28 24  1  0
  1 37  1  0
  1 38  1  0
  1 39  1  0
  2 40  1  0
  6 41  1  0
 10 42  1  0
 11 43  1  0
 15 44  1  0
 17 45  1  0
 18 46  1  0
 23 47  1  0
 23 48  1  0
 24 49  1  6
 25 50  1  0
 25 51  1  0
 26 52  1  0
 26 53  1  0
 27 54  1  0
 27 55  1  0
 29 56  1  0
 29 57  1  0
 29 58  1  0
 30 59  1  0
 33 60  1  0
 34 61  1  0
 35 62  1  0
M  END
$$$$
