@<TRIPOS>MOLECULE
*****
 57 60 0 0 0
SMALL
GASTEIGER

@<TRIPOS>ATOM
      1 C           2.9461    2.8648    0.1543 C.3     1  UNL1       -0.0219
      2 C           1.5172    3.2738    0.2391 C.ar    1  UNL1        0.0487
      3 C           0.4239    2.4311    0.2282 C.ar    1  UNL1        0.0841
      4 C           0.2742    1.0332    0.1429 C.ar    1  UNL1        0.2268
      5 O           1.4784    0.3649    0.0465 O.3     1  UNL1       -0.4725
      6 C           1.6230   -1.0065   -0.0872 C.3     1  UNL1        0.1037
      7 C           2.2328   -1.6573    1.1458 C.3     1  UNL1       -0.0274
      8 C           2.4169   -1.4066   -1.3144 C.3     1  UNL1        0.0196
      9 C           3.8011   -0.8555   -1.3160 C.3     1  UNL1        0.0182
     10 N           4.6984   -1.9307   -1.5961 N.am    1  UNL1       -0.3149
     11 C           3.9316   -3.0380   -2.0333 C.2     1  UNL1        0.2135
     12 O           4.3157   -3.9565   -2.7782 O.2     1  UNL1       -0.2758
     13 C           2.5855   -2.8870   -1.4300 C.3     1  UNL1        0.0315
     14 N          -0.9393    0.4642    0.1559 N.ar    1  UNL1       -0.2121
     15 C          -2.0883    1.1369    0.2467 C.ar    1  UNL1        0.0801
     16 C          -3.4201    0.5641    0.2855 C.ar    1  UNL1        0.0414
     17 C          -4.5940    1.3227    0.2697 C.ar    1  UNL1        0.0318
     18 N          -5.6530    0.5123    0.3459 N.ar    1  UNL1       -0.2838
     19 N          -5.1922   -0.6960    0.4070 N.ar    1  UNL1       -0.1777
     20 C          -3.8156   -0.7160    0.3728 C.ar    1  UNL1        0.0773
     21 C          -2.9991   -1.9417    0.4201 C.3     1  UNL1        0.0068
     22 C          -4.0017   -3.1317    0.5448 C.3     1  UNL1       -0.0545
     23 C          -2.0516   -1.9937    1.5933 C.3     1  UNL1       -0.0545
     24 C          -2.2766   -2.2458   -0.8782 C.3     1  UNL1       -0.0545
     25 C          -1.9369    2.5354    0.3312 C.ar    1  UNL1       -0.0076
     26 C          -0.7240    3.1701    0.3230 C.ar    1  UNL1        0.1001
     27 N          -0.3164    4.4648    0.3913 N.ar    1  UNL1       -0.1710
     28 N           1.0035    4.5270    0.3419 N.ar    1  UNL1       -0.2703
     29 C           1.8020    5.7515    0.3900 C.3     1  UNL1        0.0305
     30 H           3.5634    3.7730    0.0471 H       1  UNL1        0.0293
     31 H           3.1516    2.2266   -0.7130 H       1  UNL1        0.0293
     32 H           3.2108    2.3867    1.1321 H       1  UNL1        0.0293
     33 H           0.6220   -1.4473   -0.2143 H       1  UNL1        0.0734
     34 H           1.9481   -1.0623    2.0182 H       1  UNL1        0.0265
     35 H           1.8051   -2.6638    1.2485 H       1  UNL1        0.0265
     36 H           3.3424   -1.6731    1.0723 H       1  UNL1        0.0265
     37 H           1.8961   -1.0520   -2.2273 H       1  UNL1        0.0356
     38 H           3.9657   -0.0643   -2.0984 H       1  UNL1        0.0466
     39 H           4.0049   -0.3647   -0.3412 H       1  UNL1        0.0466
     40 H           5.7249   -1.9025   -1.4968 H       1  UNL1        0.1487
     41 H           1.8667   -3.3418   -2.1474 H       1  UNL1        0.0363
     42 H           2.6080   -3.4226   -0.4634 H       1  UNL1        0.0363
     43 H          -4.6524    2.3820    0.2053 H       1  UNL1        0.0830
     44 H          -6.6791    0.7715    0.3566 H       1  UNL1        0.1882
     45 H          -3.4811   -4.0360    0.2181 H       1  UNL1        0.0239
     46 H          -4.7955   -2.8890   -0.1910 H       1  UNL1        0.0239
     47 H          -4.3851   -3.2045    1.5629 H       1  UNL1        0.0239
     48 H          -1.0017   -2.0759    1.3271 H       1  UNL1        0.0239
     49 H          -2.3752   -2.7563    2.3422 H       1  UNL1        0.0239
     50 H          -2.1780   -1.0167    2.1459 H       1  UNL1        0.0239
     51 H          -1.2930   -2.6846   -0.6739 H       1  UNL1        0.0239
     52 H          -2.8801   -2.9337   -1.5317 H       1  UNL1        0.0239
     53 H          -2.1452   -1.3275   -1.4733 H       1  UNL1        0.0239
     54 H          -2.8358    3.1222    0.4077 H       1  UNL1        0.0661
     55 H           1.2482    6.5463    0.9726 H       1  UNL1        0.0473
     56 H           2.7350    5.5792    0.9493 H       1  UNL1        0.0473
     57 H           1.9677    6.1771   -0.6022 H       1  UNL1        0.0473
@<TRIPOS>BOND
     1     1     2    1
     2     2     3   ar
     3     3     4   ar
     4     4     5    1
     5     5     6    1
     6     6     7    1
     7     6     8    1
     8     8     9    1
     9     9    10    1
    10    10    11   am
    11    11    12    2
    12    11    13    1
    13     4    14   ar
    14    14    15   ar
    15    15    16    1
    16    16    17   ar
    17    17    18   ar
    18    18    19   ar
    19    19    20   ar
    20    20    21    1
    21    21    22    1
    22    21    23    1
    23    21    24    1
    24    15    25   ar
    25    25    26   ar
    26    26    27   ar
    27    27    28   ar
    28    28    29    1
    29    28     2   ar
    30    26     3   ar
    31    13     8    1
    32    20    16   ar
    33     1    30    1
    34     1    31    1
    35     1    32    1
    36     6    33    1
    37     7    34    1
    38     7    35    1
    39     7    36    1
    40     8    37    1
    41     9    38    1
    42     9    39    1
    43    10    40    1
    44    13    41    1
    45    13    42    1
    46    17    43    1
    47    18    44    1
    48    22    45    1
    49    22    46    1
    50    22    47    1
    51    23    48    1
    52    23    49    1
    53    23    50    1
    54    24    51    1
    55    24    52    1
    56    24    53    1
    57    25    54    1
    58    29    55    1
    59    29    56    1
    60    29    57    1
