@<TRIPOS>MOLECULE
*****
 38 38 0 0 0
SMALL
GASTEIGER

@<TRIPOS>ATOM
      1 C          -1.1430   -0.8908   -0.1230 C.3     1  UNL1        0.0196
      2 C           0.2498   -0.5313    0.3499 C.3     1  UNL1       -0.0434
      3 C           1.2711   -1.5220   -0.1200 C.3     1  UNL1       -0.0519
      4 C           2.6256   -1.0887    0.3968 C.3     1  UNL1       -0.0421
      5 C           3.0271    0.2828   -0.0963 C.3     1  UNL1        0.0500
      6 C           4.3747    0.5508    0.5004 C.2     1  UNL1        0.2761
      7 N           5.0057    1.7972    0.1975 N.pl3   1  UNL1       -0.2508
      8 N           4.9983   -0.2554    1.2598 N.2     1  UNL1       -0.1041
      9 C          -1.4814   -2.2506    0.4313 C.2     1  UNL1        0.1237
     10 O          -2.3991   -2.5880    1.1780 O.2     1  UNL1       -0.3007
     11 C          -2.1350    0.0577    0.4991 C.3     1  UNL1       -0.0057
     12 C          -1.9038    1.4980    0.1532 C.3     1  UNL1       -0.0472
     13 C          -2.4445    1.5271   -1.2825 C.3     1  UNL1       -0.0504
     14 C          -3.8237    0.9369   -1.0136 C.3     1  UNL1       -0.0266
     15 C          -3.5328   -0.1677   -0.0369 C.3     1  UNL1        0.0587
     16 O          -4.4039   -0.1013    1.0433 O.3     1  UNL1       -0.3915
     17 H          -1.2141   -0.9403   -1.2129 H       1  UNL1        0.0378
     18 H           0.4978    0.4290   -0.1829 H       1  UNL1        0.0272
     19 H           0.2333   -0.4525    1.4358 H       1  UNL1        0.0272
     20 H           1.0758   -2.5484    0.1805 H       1  UNL1        0.0266
     21 H           1.3369   -1.4363   -1.2359 H       1  UNL1        0.0266
     22 H           3.4254   -1.7890    0.1034 H       1  UNL1        0.0271
     23 H           2.6225   -1.0090    1.5157 H       1  UNL1        0.0271
     24 H           3.1460    0.3282   -1.1954 H       1  UNL1        0.0387
     25 H           2.3604    1.0924    0.2962 H       1  UNL1        0.0387
     26 H           5.1456    2.8373    0.2337 H       1  UNL1        0.2881
     27 H           5.8093    1.5808   -0.4324 H       1  UNL1        0.2881
     28 H           5.9329   -0.1108    1.6952 H       1  UNL1        0.3629
     29 H          -0.9744   -3.1975    0.2747 H       1  UNL1        0.1029
     30 H          -2.1022   -0.0573    1.5982 H       1  UNL1        0.0332
     31 H          -2.6479    2.0833    0.7395 H       1  UNL1        0.0269
     32 H          -0.8874    1.8617    0.2458 H       1  UNL1        0.0269
     33 H          -2.5138    2.5629   -1.6676 H       1  UNL1        0.0266
     34 H          -1.9201    0.8269   -1.9475 H       1  UNL1        0.0266
     35 H          -4.3358    0.5956   -1.9215 H       1  UNL1        0.0290
     36 H          -4.3918    1.7434   -0.4823 H       1  UNL1        0.0290
     37 H          -3.5993   -1.1454   -0.5702 H       1  UNL1        0.0596
     38 H          -5.2844   -0.5098    0.8528 H       1  UNL1        0.2098
@<TRIPOS>BOND
     1     1     2    1
     2     2     3    1
     3     3     4    1
     4     4     5    1
     5     5     6    1
     6     6     7    1
     7     6     8    2
     8     1     9    1
     9     9    10    2
    10     1    11    1
    11    11    12    1
    12    12    13    1
    13    13    14    1
    14    14    15    1
    15    15    16    1
    16    15    11    1
    17     1    17    1
    18     2    18    1
    19     2    19    1
    20     3    20    1
    21     3    21    1
    22     4    22    1
    23     4    23    1
    24     5    24    1
    25     5    25    1
    26     7    26    1
    27     7    27    1
    28     8    28    1
    29     9    29    1
    30    11    30    1
    31    12    31    1
    32    12    32    1
    33    13    33    1
    34    13    34    1
    35    14    35    1
    36    14    36    1
    37    15    37    1
    38    16    38    1
