@<TRIPOS>MOLECULE
*****
 53 57 0 0 0
SMALL
GASTEIGER

@<TRIPOS>ATOM
      1 C           1.3374   -2.8469    1.9517 C.3     1  UNL1        0.0790
      2 O           0.3058   -2.0833    1.3219 O.3     1  UNL1       -0.4914
      3 C           0.6165   -0.8732    0.7384 C.ar    1  UNL1        0.1623
      4 C           1.8989   -0.4033    0.7594 C.ar    1  UNL1       -0.0038
      5 C           2.2409    0.8128    0.1788 C.ar    1  UNL1        0.0441
      6 C           3.5010    1.3406    0.1749 C.ar    1  UNL1        0.1340
      7 N           4.5670    0.5936    0.7750 N.pl3   1  UNL1       -0.2966
      8 C           5.6256    0.0624    0.0100 C.ar    1  UNL1        0.0697
      9 C           6.9371    0.4279    0.2561 C.ar    1  UNL1       -0.0349
     10 C           7.9716   -0.0756   -0.4966 C.ar    1  UNL1       -0.0231
     11 C           7.7290   -0.9621   -1.5217 C.ar    1  UNL1        0.1445
     12 F           8.7823   -1.4267   -2.2323 F       1  UNL1       -0.2039
     13 C           6.4263   -1.3341   -1.7765 C.ar    1  UNL1        0.1130
     14 CL          6.0962   -2.4548   -3.0722 Cl      1  UNL1       -0.0775
     15 C           5.3929   -0.8207   -1.0118 C.ar    1  UNL1        0.1654
     16 F           4.1560   -1.2196   -1.3125 F       1  UNL1       -0.2019
     17 N           3.7520    2.5291   -0.3985 N.ar    1  UNL1       -0.2200
     18 C           2.7829    3.2493   -0.9921 C.ar    1  UNL1        0.1187
     19 N           1.5524    2.7259   -0.9848 N.ar    1  UNL1       -0.2352
     20 C           1.2448    1.5401   -0.4244 C.ar    1  UNL1        0.0797
     21 C          -0.0533    1.0459   -0.4359 C.ar    1  UNL1        0.0099
     22 C          -0.4136   -0.1600    0.1356 C.ar    1  UNL1        0.1646
     23 O          -1.6998   -0.6708    0.1356 O.3     1  UNL1       -0.4801
     24 C          -2.7952   -0.0718   -0.4554 C.3     1  UNL1        0.1519
     25 C          -3.5123   -1.0929   -1.3150 C.3     1  UNL1        0.0877
     26 O          -4.8480   -0.7132   -1.2140 O.3     1  UNL1       -0.3675
     27 C          -5.0357   -0.5242    0.1376 C.3     1  UNL1        0.1166
     28 C          -6.1531    0.5018    0.3206 C.3     1  UNL1        0.1101
     29 O          -6.6516    0.4329    1.5864 O.3     1  UNL1       -0.3748
     30 C          -7.9897    0.1692    1.7125 C.3     1  UNL1        0.0370
     31 C          -5.3648    1.7666    0.0475 C.3     1  UNL1        0.0770
     32 O          -4.1288    1.5849    0.6546 O.3     1  UNL1       -0.3675
     33 C          -3.8446    0.2289    0.6059 C.3     1  UNL1        0.1262
     34 H           0.9254   -3.7760    2.3933 H       1  UNL1        0.0660
     35 H           1.9251   -2.2368    2.6774 H       1  UNL1        0.0660
     36 H           2.0861   -3.1700    1.1720 H       1  UNL1        0.0660
     37 H           2.6981   -0.9572    1.2281 H       1  UNL1        0.0663
     38 H           4.5214    0.4647    1.7963 H       1  UNL1        0.1537
     39 H           7.1530    1.1149    1.0461 H       1  UNL1        0.0638
     40 H           8.9856    0.2250   -0.2858 H       1  UNL1        0.0647
     41 H           3.0263    4.2079   -1.4447 H       1  UNL1        0.1048
     42 H          -0.7975    1.6510   -0.9193 H       1  UNL1        0.0677
     43 H          -2.5917    0.8274   -1.0702 H       1  UNL1        0.0784
     44 H          -3.4338   -2.1278   -0.8729 H       1  UNL1        0.0598
     45 H          -3.1305   -1.0587   -2.3626 H       1  UNL1        0.0598
     46 H          -5.2546   -1.4568    0.6862 H       1  UNL1        0.0650
     47 H          -6.8843    0.3318   -0.4917 H       1  UNL1        0.0646
     48 H          -8.2676   -0.8079    1.2629 H       1  UNL1        0.0524
     49 H          -8.6421    0.9888    1.3439 H       1  UNL1        0.0524
     50 H          -8.2165    0.0933    2.8038 H       1  UNL1        0.0524
     51 H          -5.8774    2.6871    0.3232 H       1  UNL1        0.0587
     52 H          -5.1846    1.7924   -1.0507 H       1  UNL1        0.0587
     53 H          -3.4670   -0.0720    1.5867 H       1  UNL1        0.0661
@<TRIPOS>BOND
     1     1     2    1
     2     2     3    1
     3     3     4   ar
     4     4     5   ar
     5     5     6   ar
     6     6     7    1
     7     7     8    1
     8     8     9   ar
     9     9    10   ar
    10    10    11   ar
    11    11    12    1
    12    11    13   ar
    13    13    14    1
    14    13    15   ar
    15    15    16    1
    16     6    17   ar
    17    17    18   ar
    18    18    19   ar
    19    19    20   ar
    20    20    21   ar
    21    21    22   ar
    22    22    23    1
    23    23    24    1
    24    24    25    1
    25    25    26    1
    26    26    27    1
    27    27    28    1
    28    28    29    1
    29    29    30    1
    30    28    31    1
    31    31    32    1
    32    32    33    1
    33    22     3   ar
    34    33    24    1
    35    20     5   ar
    36    33    27    1
    37    15     8   ar
    38     1    34    1
    39     1    35    1
    40     1    36    1
    41     4    37    1
    42     7    38    1
    43     9    39    1
    44    10    40    1
    45    18    41    1
    46    21    42    1
    47    24    43    1
    48    25    44    1
    49    25    45    1
    50    27    46    1
    51    28    47    1
    52    30    48    1
    53    30    49    1
    54    30    50    1
    55    31    51    1
    56    31    52    1
    57    33    53    1
