@<TRIPOS>MOLECULE
*****
 35 36 0 0 0
SMALL
GASTEIGER

@<TRIPOS>ATOM
      1 C          -3.7787   -2.4721   -1.7841 C.3     1  UNL1        0.0790
      2 O          -3.7552   -1.4412   -0.8174 O.3     1  UNL1       -0.4915
      3 C          -2.6311   -0.6226   -0.7809 C.ar    1  UNL1        0.1616
      4 C          -1.5673   -0.7884   -1.6423 C.ar    1  UNL1       -0.0144
      5 C          -0.4630    0.0354   -1.5876 C.ar    1  UNL1       -0.0314
      6 C          -0.3680    1.0701   -0.6646 C.ar    1  UNL1        0.1122
      7 S           1.0083    2.1334   -0.5619 S.O2    1  UNL1        0.0725
      8 O           1.7342    2.2119   -1.8839 O.2     1  UNL1       -0.1500
      9 O           0.4428    3.5060   -0.2155 O.2     1  UNL1       -0.1500
     10 N           2.0805    1.6814    0.6806 N.pl3   1  UNL1       -0.2163
     11 C           2.7935    0.4766    0.8073 C.ar    1  UNL1        0.0480
     12 C           4.1729    0.5643    1.0526 C.ar    1  UNL1       -0.0393
     13 C           4.9569   -0.5578    1.1782 C.ar    1  UNL1       -0.0600
     14 C           4.4001   -1.8006    1.0649 C.ar    1  UNL1       -0.0616
     15 C           3.0501   -1.8845    0.8250 C.ar    1  UNL1       -0.0600
     16 C           2.2257   -0.7633    0.6925 C.ar    1  UNL1       -0.0393
     17 C          -1.4436    1.2251    0.1944 C.ar    1  UNL1        0.0103
     18 C          -2.5504    0.4001    0.1403 C.ar    1  UNL1        0.1633
     19 O          -3.6158    0.5627    0.9997 O.3     1  UNL1       -0.4914
     20 C          -3.6380    1.5917    1.9946 C.3     1  UNL1        0.0790
     21 H          -4.7803   -2.9386   -1.7731 H       1  UNL1        0.0660
     22 H          -3.5439   -2.0381   -2.7688 H       1  UNL1        0.0660
     23 H          -2.9781   -3.1997   -1.4747 H       1  UNL1        0.0660
     24 H          -1.5891   -1.5795   -2.3816 H       1  UNL1        0.0656
     25 H           0.3809   -0.0848   -2.2603 H       1  UNL1        0.0638
     26 H           2.2569    2.3767    1.4798 H       1  UNL1        0.1737
     27 H           4.6691    1.5215    1.1519 H       1  UNL1        0.0636
     28 H           6.0271   -0.4524    1.3690 H       1  UNL1        0.0618
     29 H           5.0072   -2.7004    1.1615 H       1  UNL1        0.0618
     30 H           2.5601   -2.8531    0.7268 H       1  UNL1        0.0618
     31 H           1.1754   -0.8626    0.5163 H       1  UNL1        0.0636
     32 H          -1.3692    2.0346    0.9165 H       1  UNL1        0.0675
     33 H          -4.6794    1.7719    2.3368 H       1  UNL1        0.0660
     34 H          -2.9627    1.3208    2.8306 H       1  UNL1        0.0660
     35 H          -3.2282    2.5556    1.5720 H       1  UNL1        0.0660
@<TRIPOS>BOND
     1     1     2    1
     2     2     3    1
     3     3     4   ar
     4     4     5   ar
     5     5     6   ar
     6     6     7    1
     7     7     8    2
     8     7     9    2
     9     7    10    1
    10    10    11    1
    11    11    12   ar
    12    12    13   ar
    13    13    14   ar
    14    14    15   ar
    15    15    16   ar
    16     6    17   ar
    17    17    18   ar
    18    18    19    1
    19    19    20    1
    20    18     3   ar
    21    16    11   ar
    22     1    21    1
    23     1    22    1
    24     1    23    1
    25     4    24    1
    26     5    25    1
    27    10    26    1
    28    12    27    1
    29    13    28    1
    30    14    29    1
    31    15    30    1
    32    16    31    1
    33    17    32    1
    34    20    33    1
    35    20    34    1
    36    20    35    1
