
     RDKit          3D

 55 58  0  0  0  0  0  0  0  0999 V2000
    5.7624   -0.6324    1.4330 C   0  0  0  0  0  0  0  0  0  0  0  0
    6.0723   -0.7765    0.0083 C   0  0  0  0  0  0  0  0  0  0  0  0
    7.2554   -1.2945   -0.5173 C   0  0  0  0  0  0  0  0  0  0  0  0
    7.1256   -1.2468   -1.8850 C   0  0  0  0  0  0  0  0  0  0  0  0
    5.9624   -0.7428   -2.1659 O   0  0  0  0  0  0  0  0  0  0  0  0
    5.2888   -0.4426   -1.0448 C   0  0  0  0  0  0  0  0  0  0  0  0
    3.9547    0.1372   -1.0942 C   0  0  0  0  0  0  0  0  0  0  0  0
    3.4305    0.3597   -2.2445 O   0  0  0  0  0  0  0  0  0  0  0  0
    3.1500    0.4922   -0.0104 N   0  0  0  0  0  0  0  0  0  0  0  0
    1.8363    1.0627   -0.1594 C   0  0  0  0  0  0  0  0  0  0  0  0
    1.7660    2.4351   -0.2283 C   0  0  0  0  0  0  0  0  0  0  0  0
    0.5620    3.0724   -0.3701 C   0  0  0  0  0  0  0  0  0  0  0  0
   -0.5971    2.3319   -0.4451 C   0  0  0  0  0  0  0  0  0  0  0  0
   -0.5103    0.9651   -0.3750 C   0  0  0  0  0  0  0  0  0  0  0  0
   -1.7701    0.1816   -0.4554 C   0  0  0  0  0  0  0  0  0  0  0  0
   -2.0994   -0.2456    0.9782 C   0  0  0  0  0  0  0  0  0  0  0  0
   -3.3748   -1.0606    1.0163 C   0  0  0  0  0  0  0  0  0  0  0  0
   -3.4659   -1.5463    2.4707 C   0  0  0  0  0  0  0  0  0  0  0  0
   -3.7802   -0.3357    3.2784 C   0  0  0  0  0  0  0  0  0  0  0  0
   -2.7713    0.7629    3.1902 C   0  0  0  0  0  0  0  0  0  0  0  0
   -2.1476    0.9611    1.8572 C   0  0  0  0  0  0  0  0  0  0  0  0
   -2.8491    0.9480   -0.9789 N   0  0  0  0  0  0  0  0  0  0  0  0
   -3.3919    0.4335   -2.0233 C   0  0  0  0  0  0  0  0  0  0  0  0
   -4.4850    0.9339   -2.7934 N   0  0  0  0  0  0  0  0  0  0  0  0
   -2.7057   -0.7769   -2.3164 N   0  0  0  0  0  0  0  0  0  0  0  0
   -3.0014   -1.6853   -3.4302 C   0  0  0  0  0  0  0  0  0  0  0  0
   -1.6866   -0.9660   -1.3570 C   0  0  0  0  0  0  0  0  0  0  0  0
   -0.8941   -1.9205   -1.3097 O   0  0  0  0  0  0  0  0  0  0  0  0
    0.6976    0.3296   -0.2329 C   0  0  0  0  0  0  0  0  0  0  0  0
    6.6684   -1.0023    2.0172 H   0  0  0  0  0  0  0  0  0  0  0  0
    4.9314   -1.2923    1.7582 H   0  0  0  0  0  0  0  0  0  0  0  0
    5.6691    0.4230    1.7641 H   0  0  0  0  0  0  0  0  0  0  0  0
    8.0838   -1.6509    0.0829 H   0  0  0  0  0  0  0  0  0  0  0  0
    7.8684   -1.5744   -2.5795 H   0  0  0  0  0  0  0  0  0  0  0  0
    3.4862    0.3503    0.9521 H   0  0  0  0  0  0  0  0  0  0  0  0
    2.6670    3.0252   -0.1706 H   0  0  0  0  0  0  0  0  0  0  0  0
    0.5045    4.1552   -0.4246 H   0  0  0  0  0  0  0  0  0  0  0  0
   -1.5490    2.8343   -0.5581 H   0  0  0  0  0  0  0  0  0  0  0  0
   -1.2788   -0.9293    1.2795 H   0  0  0  0  0  0  0  0  0  0  0  0
   -3.2597   -1.9119    0.3416 H   0  0  0  0  0  0  0  0  0  0  0  0
   -4.2723   -0.4460    0.8475 H   0  0  0  0  0  0  0  0  0  0  0  0
   -4.2624   -2.2788    2.5964 H   0  0  0  0  0  0  0  0  0  0  0  0
   -2.4542   -1.9325    2.7140 H   0  0  0  0  0  0  0  0  0  0  0  0
   -3.9319   -0.6583    4.3292 H   0  0  0  0  0  0  0  0  0  0  0  0
   -4.7839    0.0414    2.9393 H   0  0  0  0  0  0  0  0  0  0  0  0
   -2.0382    0.6157    4.0118 H   0  0  0  0  0  0  0  0  0  0  0  0
   -3.3085    1.7202    3.4545 H   0  0  0  0  0  0  0  0  0  0  0  0
   -1.1047    1.3125    2.0069 H   0  0  0  0  0  0  0  0  0  0  0  0
   -2.6565    1.7720    1.2794 H   0  0  0  0  0  0  0  0  0  0  0  0
   -5.4146    0.4688   -2.7612 H   0  0  0  0  0  0  0  0  0  0  0  0
   -4.3815    1.7706   -3.4026 H   0  0  0  0  0  0  0  0  0  0  0  0
   -2.4893   -2.6544   -3.2598 H   0  0  0  0  0  0  0  0  0  0  0  0
   -2.6987   -1.2313   -4.3987 H   0  0  0  0  0  0  0  0  0  0  0  0
   -4.1003   -1.9170   -3.4380 H   0  0  0  0  0  0  0  0  0  0  0  0
    0.7721   -0.7444   -0.1768 H   0  0  0  0  0  0  0  0  0  0  0  0
  1  2  1  0
  2  3  1  0
  3  4  2  0
  4  5  1  0
  5  6  1  0
  6  7  1  0
  7  8  2  0
  7  9  1  0
  9 10  1  0
 10 11  2  0
 11 12  1  0
 12 13  2  0
 13 14  1  0
 14 15  1  0
 15 16  1  0
 16 17  1  0
 17 18  1  0
 18 19  1  0
 19 20  1  0
 20 21  1  0
 15 22  1  0
 22 23  2  0
 23 24  1  0
 23 25  1  0
 25 26  1  0
 25 27  1  0
 27 28  2  0
 14 29  2  0
  6  2  2  0
 29 10  1  0
 27 15  1  0
 21 16  1  0
  1 30  1  0
  1 31  1  0
  1 32  1  0
  3 33  1  0
  4 34  1  0
  9 35  1  0
 11 36  1  0
 12 37  1  0
 13 38  1  0
 16 39  1  0
 17 40  1  0
 17 41  1  0
 18 42  1  0
 18 43  1  0
 19 44  1  0
 19 45  1  0
 20 46  1  0
 20 47  1  0
 21 48  1  0
 21 49  1  0
 24 50  1  0
 24 51  1  0
 26 52  1  0
 26 53  1  0
 26 54  1  0
 29 55  1  0
M  END
$$$$
