@<TRIPOS>MOLECULE
*****
 55 58 0 0 0
SMALL
GASTEIGER

@<TRIPOS>ATOM
      1 C           5.7624   -0.6324    1.4330 C.3     1  UNL1       -0.0360
      2 C           6.0723   -0.7765    0.0083 C.ar    1  UNL1       -0.0001
      3 C           7.2554   -1.2945   -0.5173 C.ar    1  UNL1       -0.0202
      4 C           7.1256   -1.2468   -1.8850 C.ar    1  UNL1        0.0931
      5 O           5.9624   -0.7428   -2.1659 O.2     1  UNL1       -0.4580
      6 C           5.2888   -0.4426   -1.0448 C.ar    1  UNL1        0.1922
      7 C           3.9547    0.1372   -1.0942 C.2     1  UNL1        0.2838
      8 O           3.4305    0.3597   -2.2445 O.2     1  UNL1       -0.2665
      9 N           3.1500    0.4922   -0.0104 N.am    1  UNL1       -0.2790
     10 C           1.8363    1.0627   -0.1594 C.ar    1  UNL1        0.0342
     11 C           1.7660    2.4351   -0.2283 C.ar    1  UNL1       -0.0404
     12 C           0.5620    3.0724   -0.3701 C.ar    1  UNL1       -0.0596
     13 C          -0.5971    2.3319   -0.4451 C.ar    1  UNL1       -0.0542
     14 C          -0.5103    0.9651   -0.3750 C.ar    1  UNL1        0.0081
     15 C          -1.7701    0.1816   -0.4554 C.3     1  UNL1        0.2425
     16 C          -2.0994   -0.2456    0.9782 C.3     1  UNL1        0.0134
     17 C          -3.3748   -1.0606    1.0163 C.3     1  UNL1       -0.0458
     18 C          -3.4659   -1.5463    2.4707 C.3     1  UNL1       -0.0527
     19 C          -3.7802   -0.3357    3.2784 C.3     1  UNL1       -0.0530
     20 C          -2.7713    0.7629    3.1902 C.3     1  UNL1       -0.0527
     21 C          -2.1476    0.9611    1.8572 C.3     1  UNL1       -0.0458
     22 N          -2.8491    0.9480   -0.9789 N.2     1  UNL1       -0.0938
     23 C          -3.3919    0.4335   -2.0233 C.2     1  UNL1        0.3728
     24 N          -4.4850    0.9339   -2.7934 N.pl3   1  UNL1       -0.2512
     25 N          -2.7057   -0.7769   -2.3164 N.am    1  UNL1       -0.1617
     26 C          -3.0014   -1.6853   -3.4302 C.3     1  UNL1        0.0573
     27 C          -1.6866   -0.9660   -1.3570 C.2     1  UNL1        0.3259
     28 O          -0.8941   -1.9205   -1.3097 O.2     1  UNL1       -0.2524
     29 C           0.6976    0.3296   -0.2329 C.ar    1  UNL1       -0.0331
     30 H           6.6684   -1.0023    2.0172 H       1  UNL1        0.0279
     31 H           4.9314   -1.2923    1.7582 H       1  UNL1        0.0279
     32 H           5.6691    0.4230    1.7641 H       1  UNL1        0.0279
     33 H           8.0838   -1.6509    0.0829 H       1  UNL1        0.0652
     34 H           7.8684   -1.5744   -2.5795 H       1  UNL1        0.1029
     35 H           3.4862    0.3503    0.9521 H       1  UNL1        0.1552
     36 H           2.6670    3.0252   -0.1706 H       1  UNL1        0.0636
     37 H           0.5045    4.1552   -0.4246 H       1  UNL1        0.0618
     38 H          -1.5490    2.8343   -0.5581 H       1  UNL1        0.0622
     39 H          -1.2788   -0.9293    1.2795 H       1  UNL1        0.0347
     40 H          -3.2597   -1.9119    0.3416 H       1  UNL1        0.0269
     41 H          -4.2723   -0.4460    0.8475 H       1  UNL1        0.0269
     42 H          -4.2624   -2.2788    2.5964 H       1  UNL1        0.0265
     43 H          -2.4542   -1.9325    2.7140 H       1  UNL1        0.0265
     44 H          -3.9319   -0.6583    4.3292 H       1  UNL1        0.0265
     45 H          -4.7839    0.0414    2.9393 H       1  UNL1        0.0265
     46 H          -2.0382    0.6157    4.0118 H       1  UNL1        0.0265
     47 H          -3.3085    1.7202    3.4545 H       1  UNL1        0.0265
     48 H          -1.1047    1.3125    2.0069 H       1  UNL1        0.0269
     49 H          -2.6565    1.7720    1.2794 H       1  UNL1        0.0269
     50 H          -5.4146    0.4688   -2.7612 H       1  UNL1        0.2412
     51 H          -4.3815    1.7706   -3.4026 H       1  UNL1        0.2412
     52 H          -2.4893   -2.6544   -3.2598 H       1  UNL1        0.0602
     53 H          -2.6987   -1.2313   -4.3987 H       1  UNL1        0.0602
     54 H          -4.1003   -1.9170   -3.4380 H       1  UNL1        0.0602
     55 H           0.7721   -0.7444   -0.1768 H       1  UNL1        0.0640
@<TRIPOS>BOND
     1     1     2    1
     2     2     3   ar
     3     3     4   ar
     4     4     5   ar
     5     5     6   ar
     6     6     7    1
     7     7     8    2
     8     7     9   am
     9     9    10    1
    10    10    11   ar
    11    11    12   ar
    12    12    13   ar
    13    13    14   ar
    14    14    15    1
    15    15    16    1
    16    16    17    1
    17    17    18    1
    18    18    19    1
    19    19    20    1
    20    20    21    1
    21    15    22    1
    22    22    23    2
    23    23    24    1
    24    23    25    1
    25    25    26    1
    26    25    27   am
    27    27    28    2
    28    14    29   ar
    29     6     2   ar
    30    29    10   ar
    31    27    15    1
    32    21    16    1
    33     1    30    1
    34     1    31    1
    35     1    32    1
    36     3    33    1
    37     4    34    1
    38     9    35    1
    39    11    36    1
    40    12    37    1
    41    13    38    1
    42    16    39    1
    43    17    40    1
    44    17    41    1
    45    18    42    1
    46    18    43    1
    47    19    44    1
    48    19    45    1
    49    20    46    1
    50    20    47    1
    51    21    48    1
    52    21    49    1
    53    24    50    1
    54    24    51    1
    55    26    52    1
    56    26    53    1
    57    26    54    1
    58    29    55    1
