
     RDKit          3D

 35 38  0  0  0  0  0  0  0  0999 V2000
   -4.6196    4.3724   -1.7458 N   0  0  0  0  0  0  0  0  0  0  0  0
   -4.0290    3.3979   -1.5785 C   0  0  0  0  0  0  0  0  0  0  0  0
   -3.2895    2.1831   -1.3445 C   0  0  0  0  0  0  0  0  0  0  0  0
   -2.4357    2.2500   -0.2070 C   0  0  0  0  0  0  0  0  0  0  0  0
   -1.6531    1.1631    0.0203 C   0  0  0  0  0  0  0  0  0  0  0  0
   -1.6719    0.0613   -0.7846 C   0  0  0  0  0  0  0  0  0  0  0  0
   -0.7279   -1.0293   -0.4626 C   0  0  0  0  0  0  0  0  0  0  0  0
    0.5971   -0.7216   -0.1051 C   0  0  0  0  0  0  0  0  0  0  0  0
    1.1834    0.6609   -0.1237 C   0  0  0  0  0  0  0  0  0  0  0  0
    0.8120    1.3110   -1.1679 O   0  0  0  0  0  0  0  0  0  0  0  0
    1.9927    1.0610    0.8747 N   0  0  0  0  0  0  0  0  0  0  0  0
    2.6320    2.3477    1.0088 C   0  0  0  0  0  0  0  0  0  0  0  0
    3.4365    2.6486    2.2225 C   0  0  0  0  0  0  0  0  0  0  0  0
    4.1857    2.2395    1.0401 C   0  0  0  0  0  0  0  0  0  0  0  0
    1.1281   -1.8937    0.1470 N   0  0  0  0  0  0  0  0  0  0  0  0
    0.2917   -2.9198   -0.0044 C   0  0  0  0  0  0  0  0  0  0  0  0
    0.4336   -4.3108    0.1694 C   0  0  0  0  0  0  0  0  0  0  0  0
   -0.6592   -5.0368   -0.0874 C   0  0  0  0  0  0  0  0  0  0  0  0
   -1.8137   -4.4844   -0.4789 C   0  0  0  0  0  0  0  0  0  0  0  0
   -1.9721   -3.1339   -0.6485 N   0  0  0  0  0  0  0  0  0  0  0  0
   -0.8941   -2.3462   -0.4020 N   0  0  0  0  0  0  0  0  0  0  0  0
   -2.5149    0.0422   -1.8759 C   0  0  0  0  0  0  0  0  0  0  0  0
   -3.3088    1.1381   -2.1061 N   0  0  0  0  0  0  0  0  0  0  0  0
   -2.4349    3.1355    0.4001 H   0  0  0  0  0  0  0  0  0  0  0  0
   -0.9800    1.1580    0.9100 H   0  0  0  0  0  0  0  0  0  0  0  0
    2.2170    0.3561    1.6533 H   0  0  0  0  0  0  0  0  0  0  0  0
    2.2591    3.1626    0.3776 H   0  0  0  0  0  0  0  0  0  0  0  0
    3.4212    1.9930    3.1167 H   0  0  0  0  0  0  0  0  0  0  0  0
    3.4981    3.7358    2.4873 H   0  0  0  0  0  0  0  0  0  0  0  0
    4.7553    3.0192    0.4450 H   0  0  0  0  0  0  0  0  0  0  0  0
    4.6220    1.2415    0.9816 H   0  0  0  0  0  0  0  0  0  0  0  0
    1.3671   -4.7012    0.4690 H   0  0  0  0  0  0  0  0  0  0  0  0
   -0.5762   -6.1562    0.0378 H   0  0  0  0  0  0  0  0  0  0  0  0
   -2.6761   -5.1474   -0.6866 H   0  0  0  0  0  0  0  0  0  0  0  0
   -2.5762   -0.7972   -2.5519 H   0  0  0  0  0  0  0  0  0  0  0  0
  1  2  3  0
  2  3  1  0
  3  4  2  0
  4  5  1  0
  5  6  2  0
  6  7  1  0
  7  8  2  0
  8  9  1  0
  9 10  2  0
  9 11  1  0
 11 12  1  0
 12 13  1  0
 13 14  1  0
  8 15  1  0
 15 16  2  0
 16 17  1  0
 17 18  2  0
 18 19  1  0
 19 20  2  0
 20 21  1  0
  6 22  1  0
 22 23  2  0
 23  3  1  0
 21  7  1  0
 14 12  1  0
 21 16  1  0
  4 24  1  0
  5 25  1  0
 11 26  1  0
 12 27  1  0
 13 28  1  0
 13 29  1  0
 14 30  1  0
 14 31  1  0
 17 32  1  0
 18 33  1  0
 19 34  1  0
 22 35  1  0
M  END
$$$$
