@<TRIPOS>MOLECULE
*****
 35 38 0 0 0
SMALL
GASTEIGER

@<TRIPOS>ATOM
      1 N          -4.6196    4.3724   -1.7458 N.1     1  UNL1       -0.1893
      2 C          -4.0290    3.3979   -1.5785 C.1     1  UNL1        0.1191
      3 C          -3.2895    2.1831   -1.3445 C.ar    1  UNL1        0.1401
      4 C          -2.4357    2.2500   -0.2070 C.ar    1  UNL1       -0.0252
      5 C          -1.6531    1.1631    0.0203 C.ar    1  UNL1       -0.0484
      6 C          -1.6719    0.0613   -0.7846 C.ar    1  UNL1        0.0209
      7 C          -0.7279   -1.0293   -0.4626 C.ar    1  UNL1        0.1067
      8 C           0.5971   -0.7216   -0.1051 C.ar    1  UNL1        0.1537
      9 C           1.1834    0.6609   -0.1237 C.2     1  UNL1        0.2648
     10 O           0.8120    1.3110   -1.1679 O.2     1  UNL1       -0.2684
     11 N           1.9927    1.0610    0.8747 N.am    1  UNL1       -0.3072
     12 C           2.6320    2.3477    1.0088 C.3     1  UNL1        0.0236
     13 C           3.4365    2.6486    2.2225 C.3     1  UNL1       -0.0328
     14 C           4.1857    2.2395    1.0401 C.3     1  UNL1       -0.0328
     15 N           1.1281   -1.8937    0.1470 N.ar    1  UNL1       -0.2211
     16 C           0.2917   -2.9198   -0.0044 C.ar    1  UNL1        0.1556
     17 C           0.4336   -4.3108    0.1694 C.ar    1  UNL1       -0.0159
     18 C          -0.6592   -5.0368   -0.0874 C.ar    1  UNL1       -0.0384
     19 C          -1.8137   -4.4844   -0.4789 C.ar    1  UNL1        0.0485
     20 N          -1.9721   -3.1339   -0.6485 N.ar    1  UNL1       -0.1729
     21 N          -0.8941   -2.3462   -0.4020 N.ar    1  UNL1       -0.2118
     22 C          -2.5149    0.0422   -1.8759 C.ar    1  UNL1        0.0383
     23 N          -3.3088    1.1381   -2.1061 N.ar    1  UNL1       -0.2440
     24 H          -2.4349    3.1355    0.4001 H       1  UNL1        0.0646
     25 H          -0.9800    1.1580    0.9100 H       1  UNL1        0.0625
     26 H           2.2170    0.3561    1.6533 H       1  UNL1        0.1493
     27 H           2.2591    3.1626    0.3776 H       1  UNL1        0.0498
     28 H           3.4212    1.9930    3.1167 H       1  UNL1        0.0284
     29 H           3.4981    3.7358    2.4873 H       1  UNL1        0.0284
     30 H           4.7553    3.0192    0.4450 H       1  UNL1        0.0284
     31 H           4.6220    1.2415    0.9816 H       1  UNL1        0.0284
     32 H           1.3671   -4.7012    0.4690 H       1  UNL1        0.0655
     33 H          -0.5762   -6.1562    0.0378 H       1  UNL1        0.0634
     34 H          -2.6761   -5.1474   -0.6866 H       1  UNL1        0.0847
     35 H          -2.5762   -0.7972   -2.5519 H       1  UNL1        0.0837
@<TRIPOS>BOND
     1     1     2    3
     2     2     3    1
     3     3     4   ar
     4     4     5   ar
     5     5     6   ar
     6     6     7    1
     7     7     8   ar
     8     8     9    1
     9     9    10    2
    10     9    11   am
    11    11    12    1
    12    12    13    1
    13    13    14    1
    14     8    15   ar
    15    15    16   ar
    16    16    17   ar
    17    17    18   ar
    18    18    19   ar
    19    19    20   ar
    20    20    21   ar
    21     6    22   ar
    22    22    23   ar
    23    23     3   ar
    24    21     7   ar
    25    14    12    1
    26    21    16   ar
    27     4    24    1
    28     5    25    1
    29    11    26    1
    30    12    27    1
    31    13    28    1
    32    13    29    1
    33    14    30    1
    34    14    31    1
    35    17    32    1
    36    18    33    1
    37    19    34    1
    38    22    35    1
