
     RDKit          3D

 46 49  0  0  0  0  0  0  0  0999 V2000
   -5.0819   -1.2776    1.6392 C   0  0  0  0  0  0  0  0  0  0  0  0
   -4.1848   -0.8532    0.6159 N   0  0  0  0  0  0  0  0  0  0  0  0
   -3.4385   -1.8690   -0.0119 C   0  0  0  0  0  0  0  0  0  0  0  0
   -1.9556   -1.7324    0.0281 C   0  0  0  0  0  0  0  0  0  0  0  0
   -1.5649   -0.3646   -0.3967 C   0  0  0  0  0  0  0  0  0  0  0  0
   -2.3609    0.6732    0.0914 C   0  0  0  0  0  0  0  0  0  0  0  0
   -1.8749    1.8577   -0.3861 C   0  0  0  0  0  0  0  0  0  0  0  0
   -2.2944    3.1537   -0.2046 C   0  0  0  0  0  0  0  0  0  0  0  0
   -1.6329    4.1898   -0.7997 C   0  0  0  0  0  0  0  0  0  0  0  0
   -0.5489    3.9030   -1.5759 C   0  0  0  0  0  0  0  0  0  0  0  0
   -0.1185    2.5888   -1.7636 C   0  0  0  0  0  0  0  0  0  0  0  0
   -0.7718    1.5255   -1.1716 C   0  0  0  0  0  0  0  0  0  0  0  0
   -0.6088    0.1920   -1.1606 N   0  0  0  0  0  0  0  0  0  0  0  0
    0.4271   -0.5415   -1.8491 C   0  0  0  0  0  0  0  0  0  0  0  0
    1.6434   -0.7645   -1.0667 C   0  0  0  0  0  0  0  0  0  0  0  0
    1.8364   -1.8373   -0.2312 C   0  0  0  0  0  0  0  0  0  0  0  0
    2.9846   -2.0082    0.4765 C   0  0  0  0  0  0  0  0  0  0  0  0
    4.0269   -1.0792    0.3748 C   0  0  0  0  0  0  0  0  0  0  0  0
    5.2491   -1.2609    1.1278 C   0  0  0  0  0  0  0  0  0  0  0  0
    5.3656   -2.2632    1.8765 O   0  0  0  0  0  0  0  0  0  0  0  0
    6.3103   -0.3520    1.0487 N   0  0  0  0  0  0  0  0  0  0  0  0
    7.4720   -0.5091    1.7538 O   0  0  0  0  0  0  0  0  0  0  0  0
    3.8617    0.0003   -0.4511 C   0  0  0  0  0  0  0  0  0  0  0  0
    2.6654    0.1472   -1.1671 C   0  0  0  0  0  0  0  0  0  0  0  0
   -3.5077    0.3379    0.9751 C   0  0  0  0  0  0  0  0  0  0  0  0
   -5.9970   -1.7481    1.1901 H   0  0  0  0  0  0  0  0  0  0  0  0
   -4.6441   -1.9090    2.4209 H   0  0  0  0  0  0  0  0  0  0  0  0
   -5.4717   -0.3517    2.1547 H   0  0  0  0  0  0  0  0  0  0  0  0
   -3.7052   -2.8939    0.3802 H   0  0  0  0  0  0  0  0  0  0  0  0
   -3.7389   -1.9135   -1.0943 H   0  0  0  0  0  0  0  0  0  0  0  0
   -1.5303   -1.9940    1.0248 H   0  0  0  0  0  0  0  0  0  0  0  0
   -1.5345   -2.5015   -0.6799 H   0  0  0  0  0  0  0  0  0  0  0  0
   -3.1674    3.3790    0.4209 H   0  0  0  0  0  0  0  0  0  0  0  0
   -1.9982    5.1939   -0.6292 H   0  0  0  0  0  0  0  0  0  0  0  0
   -0.0232    4.7241   -2.0487 H   0  0  0  0  0  0  0  0  0  0  0  0
    0.7359    2.3987   -2.3821 H   0  0  0  0  0  0  0  0  0  0  0  0
    0.0273   -1.5420   -2.1483 H   0  0  0  0  0  0  0  0  0  0  0  0
    0.7214   -0.0513   -2.8032 H   0  0  0  0  0  0  0  0  0  0  0  0
    1.0327   -2.5613   -0.1475 H   0  0  0  0  0  0  0  0  0  0  0  0
    3.1772   -2.8380    1.1450 H   0  0  0  0  0  0  0  0  0  0  0  0
    6.2816    0.4889    0.4560 H   0  0  0  0  0  0  0  0  0  0  0  0
    8.1352   -1.0353    1.2290 H   0  0  0  0  0  0  0  0  0  0  0  0
    4.6392    0.7490   -0.5652 H   0  0  0  0  0  0  0  0  0  0  0  0
    2.5850    1.0156   -1.8068 H   0  0  0  0  0  0  0  0  0  0  0  0
   -4.2484    1.1866    0.9216 H   0  0  0  0  0  0  0  0  0  0  0  0
   -3.1744    0.3476    2.0526 H   0  0  0  0  0  0  0  0  0  0  0  0
  1  2  1  0
  2  3  1  0
  3  4  1  0
  4  5  1  0
  5  6  2  0
  6  7  1  0
  7  8  2  0
  8  9  1  0
  9 10  2  0
 10 11  1  0
 11 12  2  0
 12 13  1  0
 13 14  1  0
 14 15  1  0
 15 16  2  0
 16 17  1  0
 17 18  2  0
 18 19  1  0
 19 20  2  0
 19 21  1  0
 21 22  1  0
 18 23  1  0
 23 24  2  0
  6 25  1  0
 25  2  1  0
 13  5  1  0
 24 15  1  0
 12  7  1  0
  1 26  1  0
  1 27  1  0
  1 28  1  0
  3 29  1  0
  3 30  1  0
  4 31  1  0
  4 32  1  0
  8 33  1  0
  9 34  1  0
 10 35  1  0
 11 36  1  0
 14 37  1  0
 14 38  1  0
 16 39  1  0
 17 40  1  0
 21 41  1  0
 22 42  1  0
 23 43  1  0
 24 44  1  0
 25 45  1  0
 25 46  1  0
M  END
$$$$
