@<TRIPOS>MOLECULE
*****
 46 49 0 0 0
SMALL
GASTEIGER

@<TRIPOS>ATOM
      1 C          -5.0819   -1.2776    1.6392 C.3     1  UNL1       -0.0124
      2 N          -4.1848   -0.8532    0.6159 N.3     1  UNL1       -0.3007
      3 C          -3.4385   -1.8690   -0.0119 C.3     1  UNL1        0.0043
      4 C          -1.9556   -1.7324    0.0281 C.3     1  UNL1        0.0008
      5 C          -1.5649   -0.3646   -0.3967 C.ar    1  UNL1        0.0258
      6 C          -2.3609    0.6732    0.0914 C.ar    1  UNL1       -0.0049
      7 C          -1.8749    1.8577   -0.3861 C.ar    1  UNL1        0.0045
      8 C          -2.2944    3.1537   -0.2046 C.ar    1  UNL1       -0.0523
      9 C          -1.6329    4.1898   -0.7997 C.ar    1  UNL1       -0.0611
     10 C          -0.5489    3.9030   -1.5759 C.ar    1  UNL1       -0.0598
     11 C          -0.1185    2.5888   -1.7636 C.ar    1  UNL1       -0.0376
     12 C          -0.7718    1.5255   -1.1716 C.ar    1  UNL1        0.0499
     13 N          -0.6088    0.1920   -1.1606 N.ar    1  UNL1       -0.3391
     14 C           0.4271   -0.5415   -1.8491 C.3     1  UNL1        0.0486
     15 C           1.6434   -0.7645   -1.0667 C.ar    1  UNL1       -0.0277
     16 C           1.8364   -1.8373   -0.2312 C.ar    1  UNL1       -0.0562
     17 C           2.9846   -2.0082    0.4765 C.ar    1  UNL1       -0.0493
     18 C           4.0269   -1.0792    0.3748 C.ar    1  UNL1        0.0387
     19 C           5.2491   -1.2609    1.1278 C.2     1  UNL1        0.2665
     20 O           5.3656   -2.2632    1.8765 O.2     1  UNL1       -0.2681
     21 N           6.3103   -0.3520    1.0487 N.am    1  UNL1       -0.1935
     22 O           7.4720   -0.5091    1.7538 O.3     1  UNL1       -0.2949
     23 C           3.8617    0.0003   -0.4511 C.ar    1  UNL1       -0.0493
     24 C           2.6654    0.1472   -1.1671 C.ar    1  UNL1       -0.0562
     25 C          -3.5077    0.3379    0.9751 C.3     1  UNL1        0.0260
     26 H          -5.9970   -1.7481    1.1901 H       1  UNL1        0.0391
     27 H          -4.6441   -1.9090    2.4209 H       1  UNL1        0.0391
     28 H          -5.4717   -0.3517    2.1547 H       1  UNL1        0.0391
     29 H          -3.7052   -2.8939    0.3802 H       1  UNL1        0.0430
     30 H          -3.7389   -1.9135   -1.0943 H       1  UNL1        0.0430
     31 H          -1.5303   -1.9940    1.0248 H       1  UNL1        0.0340
     32 H          -1.5345   -2.5015   -0.6799 H       1  UNL1        0.0340
     33 H          -3.1674    3.3790    0.4209 H       1  UNL1        0.0624
     34 H          -1.9982    5.1939   -0.6292 H       1  UNL1        0.0618
     35 H          -0.0232    4.7241   -2.0487 H       1  UNL1        0.0618
     36 H           0.7359    2.3987   -2.3821 H       1  UNL1        0.0638
     37 H           0.0273   -1.5420   -2.1483 H       1  UNL1        0.0541
     38 H           0.7214   -0.0513   -2.8032 H       1  UNL1        0.0541
     39 H           1.0327   -2.5613   -0.1475 H       1  UNL1        0.0621
     40 H           3.1772   -2.8380    1.1450 H       1  UNL1        0.0625
     41 H           6.2816    0.4889    0.4560 H       1  UNL1        0.1825
     42 H           8.1352   -1.0353    1.2290 H       1  UNL1        0.2414
     43 H           4.6392    0.7490   -0.5652 H       1  UNL1        0.0625
     44 H           2.5850    1.0156   -1.8068 H       1  UNL1        0.0621
     45 H          -4.2484    1.1866    0.9216 H       1  UNL1        0.0476
     46 H          -3.1744    0.3476    2.0526 H       1  UNL1        0.0476
@<TRIPOS>BOND
     1     1     2    1
     2     2     3    1
     3     3     4    1
     4     4     5    1
     5     5     6   ar
     6     6     7   ar
     7     7     8   ar
     8     8     9   ar
     9     9    10   ar
    10    10    11   ar
    11    11    12   ar
    12    12    13   ar
    13    13    14    1
    14    14    15    1
    15    15    16   ar
    16    16    17   ar
    17    17    18   ar
    18    18    19    1
    19    19    20    2
    20    19    21   am
    21    21    22    1
    22    18    23   ar
    23    23    24   ar
    24     6    25    1
    25    25     2    1
    26    13     5   ar
    27    24    15   ar
    28    12     7   ar
    29     1    26    1
    30     1    27    1
    31     1    28    1
    32     3    29    1
    33     3    30    1
    34     4    31    1
    35     4    32    1
    36     8    33    1
    37     9    34    1
    38    10    35    1
    39    11    36    1
    40    14    37    1
    41    14    38    1
    42    16    39    1
    43    17    40    1
    44    21    41    1
    45    22    42    1
    46    23    43    1
    47    24    44    1
    48    25    45    1
    49    25    46    1
