@<TRIPOS>MOLECULE
*****
 74 79 0 0 0
SMALL
GASTEIGER

@<TRIPOS>ATOM
      1 C          -3.6530    6.3349    2.4353 C.3     1  UNL1       -0.0151
      2 N          -2.6925    6.8974    1.5191 N.3     1  UNL1       -0.3089
      3 C          -2.8432    6.3900    0.1828 C.3     1  UNL1        0.0820
      4 C          -1.8424    7.1132   -0.7166 C.3     1  UNL1       -0.0411
      5 C          -2.6112    4.9544    0.0239 C.2     1  UNL1        0.2350
      6 O          -2.7269    4.4847   -1.1523 O.2     1  UNL1       -0.2737
      7 N          -2.2714    4.0317    1.0376 N.am    1  UNL1       -0.2691
      8 C          -2.0730    2.6482    0.7174 C.ar    1  UNL1        0.1263
      9 C          -3.1723    1.8045    0.7087 C.ar    1  UNL1       -0.0208
     10 C          -2.9764    0.4503    0.4021 C.ar    1  UNL1       -0.0466
     11 C          -1.7278   -0.0183    0.1202 C.ar    1  UNL1        0.0349
     12 C          -1.5255   -1.4147   -0.2002 C.ar    1  UNL1        0.0837
     13 C          -1.7262   -2.5215    0.5932 C.ar    1  UNL1        0.0992
     14 C          -2.2131   -2.4980    1.9694 C.ar    1  UNL1        0.0206
     15 C          -3.4327   -3.0994    2.2867 C.ar    1  UNL1       -0.0494
     16 C          -3.9345   -3.1120    3.5709 C.ar    1  UNL1       -0.0400
     17 C          -3.2067   -2.5086    4.5822 C.ar    1  UNL1        0.0382
     18 C          -3.7171   -2.5024    5.9994 C.3     1  UNL1       -0.0224
     19 N          -2.0457   -1.9376    4.2729 N.ar    1  UNL1       -0.2595
     20 C          -1.5428   -1.9212    3.0028 C.ar    1  UNL1        0.0371
     21 N          -1.3893   -3.5820   -0.1587 N.ar    1  UNL1       -0.2271
     22 C          -0.9864   -3.2109   -1.3878 C.ar    1  UNL1        0.1390
     23 C          -0.5480   -3.8858   -2.5143 C.ar    1  UNL1       -0.0158
     24 C          -0.1900   -3.2391   -3.6769 C.ar    1  UNL1       -0.0456
     25 C           0.2845   -3.9635   -4.9006 C.3     1  UNL1       -0.0395
     26 C          -0.2842   -1.8618   -3.6853 C.ar    1  UNL1       -0.0421
     27 C          -0.7320   -1.2084   -2.5278 C.ar    1  UNL1        0.0120
     28 N          -1.0719   -1.8714   -1.4108 N.ar    1  UNL1       -0.2986
     29 C          -0.6519    0.8295    0.1339 C.ar    1  UNL1        0.1250
     30 C           0.6911    0.3347   -0.1471 C.1     1  UNL1       -0.0404
     31 C           1.8000   -0.0749   -0.3843 C.1     1  UNL1       -0.0595
     32 C           3.1326   -0.5440   -0.6811 C.ar    1  UNL1        0.0259
     33 C           4.1221    0.3309   -1.0949 C.ar    1  UNL1       -0.0457
     34 C           5.4183   -0.0580   -1.3801 C.ar    1  UNL1       -0.0512
     35 C           5.7792   -1.3796   -1.2568 C.ar    1  UNL1        0.0032
     36 C           7.0751   -1.7570   -1.5376 C.ar    1  UNL1        0.0459
     37 C           8.1463   -0.8260   -1.9673 C.3     1  UNL1       -0.0218
     38 N           7.3836   -3.0792   -1.3958 N.ar    1  UNL1       -0.2595
     39 C           6.4719   -3.9762   -1.0018 C.ar    1  UNL1        0.0285
     40 C           5.1709   -3.5989   -0.7189 C.ar    1  UNL1       -0.0358
     41 C           4.7933   -2.2716   -0.8426 C.ar    1  UNL1       -0.0136
     42 C           3.4995   -1.8676   -0.5608 C.ar    1  UNL1       -0.0385
     43 N          -0.8830    2.1242    0.4333 N.ar    1  UNL1       -0.2229
     44 H          -4.2447    5.5312    1.9566 H       1  UNL1        0.0388
     45 H          -4.4146    7.0924    2.7531 H       1  UNL1        0.0388
     46 H          -3.1971    6.0015    3.4039 H       1  UNL1        0.0388
     47 H          -2.8328    7.9294    1.4951 H       1  UNL1        0.1223
     48 H          -3.8717    6.7175   -0.1470 H       1  UNL1        0.0554
     49 H          -2.3036    7.3229   -1.7115 H       1  UNL1        0.0249
     50 H          -1.6012    8.1001   -0.2723 H       1  UNL1        0.0249
     51 H          -0.8818    6.5553   -0.7899 H       1  UNL1        0.0249
     52 H          -2.1625    4.3686    2.0212 H       1  UNL1        0.1563
     53 H          -4.1557    2.2033    0.9361 H       1  UNL1        0.0652
     54 H          -3.8710   -0.1565    0.4094 H       1  UNL1        0.0626
     55 H          -4.0077   -3.5709    1.5078 H       1  UNL1        0.0625
     56 H          -4.8730   -3.5855    3.7666 H       1  UNL1        0.0636
     57 H          -3.9361   -1.4629    6.2744 H       1  UNL1        0.0292
     58 H          -4.5858   -3.1972    6.0890 H       1  UNL1        0.0292
     59 H          -2.9452   -2.8785    6.7064 H       1  UNL1        0.0292
     60 H          -0.5883   -1.4328    2.8317 H       1  UNL1        0.0836
     61 H          -0.4818   -4.9622   -2.4824 H       1  UNL1        0.0657
     62 H           1.0701   -3.3150   -5.3901 H       1  UNL1        0.0278
     63 H           0.6663   -4.9676   -4.6922 H       1  UNL1        0.0278
     64 H          -0.5313   -4.0622   -5.6530 H       1  UNL1        0.0278
     65 H          -0.0151   -1.3037   -4.5736 H       1  UNL1        0.0635
     66 H          -0.8070   -0.1256   -2.5482 H       1  UNL1        0.0813
     67 H           3.8418    1.3919   -1.1996 H       1  UNL1        0.0630
     68 H           6.1619    0.6450   -1.7019 H       1  UNL1        0.0625
     69 H           8.3192   -0.8200   -3.0661 H       1  UNL1        0.0293
     70 H           8.0737    0.1804   -1.5247 H       1  UNL1        0.0293
     71 H           9.1047   -1.2525   -1.5317 H       1  UNL1        0.0293
     72 H           6.7878   -5.0108   -0.9115 H       1  UNL1        0.0830
     73 H           4.4243   -4.3044   -0.4016 H       1  UNL1        0.0639
     74 H           2.7607   -2.5701   -0.2451 H       1  UNL1        0.0636
@<TRIPOS>BOND
     1     1     2    1
     2     2     3    1
     3     3     4    1
     4     3     5    1
     5     5     6    2
     6     5     7   am
     7     7     8    1
     8     8     9   ar
     9     9    10   ar
    10    10    11   ar
    11    11    12    1
    12    12    13   ar
    13    13    14    1
    14    14    15   ar
    15    15    16   ar
    16    16    17   ar
    17    17    18    1
    18    17    19   ar
    19    19    20   ar
    20    13    21   ar
    21    21    22   ar
    22    22    23   ar
    23    23    24   ar
    24    24    25    1
    25    24    26   ar
    26    26    27   ar
    27    27    28   ar
    28    11    29   ar
    29    29    30    1
    30    30    31    3
    31    31    32    1
    32    32    33   ar
    33    33    34   ar
    34    34    35   ar
    35    35    36   ar
    36    36    37    1
    37    36    38   ar
    38    38    39   ar
    39    39    40   ar
    40    40    41   ar
    41    41    42   ar
    42    29    43   ar
    43    43     8   ar
    44    28    12   ar
    45    42    32   ar
    46    20    14   ar
    47    28    22   ar
    48    41    35   ar
    49     1    44    1
    50     1    45    1
    51     1    46    1
    52     2    47    1
    53     3    48    1
    54     4    49    1
    55     4    50    1
    56     4    51    1
    57     7    52    1
    58     9    53    1
    59    10    54    1
    60    15    55    1
    61    16    56    1
    62    18    57    1
    63    18    58    1
    64    18    59    1
    65    20    60    1
    66    23    61    1
    67    25    62    1
    68    25    63    1
    69    25    64    1
    70    26    65    1
    71    27    66    1
    72    33    67    1
    73    34    68    1
    74    37    69    1
    75    37    70    1
    76    37    71    1
    77    39    72    1
    78    40    73    1
    79    42    74    1
