
     RDKit          3D

 48 49  0  0  0  0  0  0  0  0999 V2000
    7.7824    1.3480    0.2213 C   0  0  0  0  0  0  0  0  0  0  0  0
    6.9458    1.2179    1.3675 O   0  0  0  0  0  0  0  0  0  0  0  0
    5.6639    0.7073    1.1789 C   0  0  0  0  0  0  0  0  0  0  0  0
    5.2224    0.3430   -0.0636 C   0  0  0  0  0  0  0  0  0  0  0  0
    3.9585   -0.1627   -0.2640 C   0  0  0  0  0  0  0  0  0  0  0  0
    3.0740   -0.3266    0.7825 C   0  0  0  0  0  0  0  0  0  0  0  0
    3.5638    0.0570    2.0322 C   0  0  0  0  0  0  0  0  0  0  0  0
    4.8244    0.5655    2.2580 C   0  0  0  0  0  0  0  0  0  0  0  0
    1.7162   -0.8469    0.7086 C   0  0  0  0  0  0  0  0  0  0  0  0
    0.7707   -0.3844    1.6018 C   0  0  0  0  0  0  0  0  0  0  0  0
   -0.5112   -0.8918    1.5141 C   0  0  0  0  0  0  0  0  0  0  0  0
   -0.8543   -1.8295    0.5726 C   0  0  0  0  0  0  0  0  0  0  0  0
    0.1445   -2.2497   -0.2927 C   0  0  0  0  0  0  0  0  0  0  0  0
    1.4427   -1.7911   -0.2672 C   0  0  0  0  0  0  0  0  0  0  0  0
   -2.4355   -2.5389    0.3679 S   0  0  0  0  0  0  0  0  0  0  0  0
   -3.1822   -2.6533    1.6787 O   0  0  0  0  0  0  0  0  0  0  0  0
   -2.3005   -3.9239   -0.2396 O   0  0  0  0  0  0  0  0  0  0  0  0
   -3.3330   -1.5942   -0.7345 N   0  0  0  0  0  0  0  0  0  0  0  0
   -3.5632   -0.2476   -0.3205 C   0  0  1  0  0  0  0  0  0  0  0  0
   -2.8851    0.6977   -1.2836 C   0  0  0  0  0  0  0  0  0  0  0  0
   -3.3772    0.5693   -2.6829 C   0  0  0  0  0  0  0  0  0  0  0  0
   -2.9103    2.1335   -0.7727 C   0  0  0  0  0  0  0  0  0  0  0  0
   -5.3182    0.0564   -0.1240 P   0  0  0  0  0  0  0  0  0  0  0  0
   -6.0510    0.7880   -1.4386 O   0  0  0  0  0  0  0  0  0  0  0  0
   -5.6473    0.9559    1.2738 O   0  0  0  0  0  0  0  0  0  0  0  0
   -6.0045   -1.3013    0.0559 O   0  0  0  0  0  0  0  0  0  0  0  0
    7.8425    0.3242   -0.2473 H   0  0  0  0  0  0  0  0  0  0  0  0
    8.8116    1.5743    0.6017 H   0  0  0  0  0  0  0  0  0  0  0  0
    7.4326    2.0996   -0.4933 H   0  0  0  0  0  0  0  0  0  0  0  0
    5.8550    0.4409   -0.9325 H   0  0  0  0  0  0  0  0  0  0  0  0
    3.5644   -0.4682   -1.2456 H   0  0  0  0  0  0  0  0  0  0  0  0
    2.9137   -0.0475    2.9009 H   0  0  0  0  0  0  0  0  0  0  0  0
    5.1212    0.8381    3.2652 H   0  0  0  0  0  0  0  0  0  0  0  0
    0.9838    0.3549    2.3666 H   0  0  0  0  0  0  0  0  0  0  0  0
   -1.2904   -0.5679    2.1847 H   0  0  0  0  0  0  0  0  0  0  0  0
   -0.0765   -2.9958   -1.0621 H   0  0  0  0  0  0  0  0  0  0  0  0
    2.1864   -2.1434   -0.9561 H   0  0  0  0  0  0  0  0  0  0  0  0
   -3.0478   -1.7242   -1.7233 H   0  0  0  0  0  0  0  0  0  0  0  0
   -3.0914   -0.0920    0.6732 H   0  0  0  0  0  0  0  0  0  0  0  0
   -1.8145    0.4054   -1.2677 H   0  0  0  0  0  0  0  0  0  0  0  0
   -4.0409   -0.2979   -2.8683 H   0  0  0  0  0  0  0  0  0  0  0  0
   -2.5386    0.5174   -3.3835 H   0  0  0  0  0  0  0  0  0  0  0  0
   -4.0090    1.4855   -2.8791 H   0  0  0  0  0  0  0  0  0  0  0  0
   -2.3928    2.7338   -1.5710 H   0  0  0  0  0  0  0  0  0  0  0  0
   -3.9141    2.5115   -0.5652 H   0  0  0  0  0  0  0  0  0  0  0  0
   -2.2559    2.1465    0.1199 H   0  0  0  0  0  0  0  0  0  0  0  0
   -6.6848    0.2094   -1.9155 H   0  0  0  0  0  0  0  0  0  0  0  0
   -6.2905    0.5024    1.8685 H   0  0  0  0  0  0  0  0  0  0  0  0
  1  2  1  0
  2  3  1  0
  3  4  2  0
  4  5  1  0
  5  6  2  0
  6  7  1  0
  7  8  2  0
  6  9  1  0
  9 10  2  0
 10 11  1  0
 11 12  2  0
 12 13  1  0
 13 14  2  0
 12 15  1  0
 15 16  2  0
 15 17  2  0
 15 18  1  0
 18 19  1  0
 19 20  1  0
 20 21  1  0
 20 22  1  0
 19 23  1  0
 23 24  1  0
 23 25  1  0
 23 26  2  0
  8  3  1  0
 14  9  1  0
  1 27  1  0
  1 28  1  0
  1 29  1  0
  4 30  1  0
  5 31  1  0
  7 32  1  0
  8 33  1  0
 10 34  1  0
 11 35  1  0
 13 36  1  0
 14 37  1  0
 18 38  1  0
 19 39  1  1
 20 40  1  0
 21 41  1  0
 21 42  1  0
 21 43  1  0
 22 44  1  0
 22 45  1  0
 22 46  1  0
 24 47  1  0
 25 48  1  0
M  END
$$$$
