@<TRIPOS>MOLECULE
*****
 48 49 0 0 0
SMALL
GASTEIGER

@<TRIPOS>ATOM
      1 C           7.7824    1.3480    0.2213 C.3     1  UNL1        0.0788
      2 O           6.9458    1.2179    1.3675 O.3     1  UNL1       -0.4951
      3 C           5.6639    0.7073    1.1789 C.ar    1  UNL1        0.1201
      4 C           5.2224    0.3430   -0.0636 C.ar    1  UNL1       -0.0194
      5 C           3.9585   -0.1627   -0.2640 C.ar    1  UNL1       -0.0506
      6 C           3.0740   -0.3266    0.7825 C.ar    1  UNL1       -0.0177
      7 C           3.5638    0.0570    2.0322 C.ar    1  UNL1       -0.0506
      8 C           4.8244    0.5655    2.2580 C.ar    1  UNL1       -0.0194
      9 C           1.7162   -0.8469    0.7086 C.ar    1  UNL1       -0.0178
     10 C           0.7707   -0.3844    1.6018 C.ar    1  UNL1       -0.0522
     11 C          -0.5112   -0.8918    1.5141 C.ar    1  UNL1       -0.0348
     12 C          -0.8543   -1.8295    0.5726 C.ar    1  UNL1        0.1053
     13 C           0.1445   -2.2497   -0.2927 C.ar    1  UNL1       -0.0348
     14 C           1.4427   -1.7911   -0.2672 C.ar    1  UNL1       -0.0522
     15 S          -2.4355   -2.5389    0.3679 S.O2    1  UNL1        0.0592
     16 O          -3.1822   -2.6533    1.6787 O.2     1  UNL1       -0.1530
     17 O          -2.3005   -3.9239   -0.2396 O.2     1  UNL1       -0.1530
     18 N          -3.3330   -1.5942   -0.7345 N.3     1  UNL1       -0.1750
     19 C          -3.5632   -0.2476   -0.3205 C.3     1  UNL1        0.1319
     20 C          -2.8851    0.6977   -1.2836 C.3     1  UNL1       -0.0185
     21 C          -3.3772    0.5693   -2.6829 C.3     1  UNL1       -0.0606
     22 C          -2.9103    2.1335   -0.7727 C.3     1  UNL1       -0.0606
     23 P          -5.3182    0.0564   -0.1240 P.3     1  UNL1        0.3463
     24 O          -6.0510    0.7880   -1.4386 O.3     1  UNL1       -0.3230
     25 O          -5.6473    0.9559    1.2738 O.3     1  UNL1       -0.3230
     26 O          -6.0045   -1.3013    0.0559 O.2     1  UNL1       -0.2571
     27 H           7.8425    0.3242   -0.2473 H       1  UNL1        0.0660
     28 H           8.8116    1.5743    0.6017 H       1  UNL1        0.0660
     29 H           7.4326    2.0996   -0.4933 H       1  UNL1        0.0660
     30 H           5.8550    0.4409   -0.9325 H       1  UNL1        0.0654
     31 H           3.5644   -0.4682   -1.2456 H       1  UNL1        0.0625
     32 H           2.9137   -0.0475    2.9009 H       1  UNL1        0.0625
     33 H           5.1212    0.8381    3.2652 H       1  UNL1        0.0654
     34 H           0.9838    0.3549    2.3666 H       1  UNL1        0.0624
     35 H          -1.2904   -0.5679    2.1847 H       1  UNL1        0.0637
     36 H          -0.0765   -2.9958   -1.0621 H       1  UNL1        0.0637
     37 H           2.1864   -2.1434   -0.9561 H       1  UNL1        0.0624
     38 H          -3.0478   -1.7242   -1.7233 H       1  UNL1        0.1490
     39 H          -3.0914   -0.0920    0.6732 H       1  UNL1        0.0605
     40 H          -1.8145    0.4054   -1.2677 H       1  UNL1        0.0317
     41 H          -4.0409   -0.2979   -2.8683 H       1  UNL1        0.0233
     42 H          -2.5386    0.5174   -3.3835 H       1  UNL1        0.0233
     43 H          -4.0090    1.4855   -2.8791 H       1  UNL1        0.0233
     44 H          -2.3928    2.7338   -1.5710 H       1  UNL1        0.0233
     45 H          -3.9141    2.5115   -0.5652 H       1  UNL1        0.0233
     46 H          -2.2559    2.1465    0.1199 H       1  UNL1        0.0233
     47 H          -6.6848    0.2094   -1.9155 H       1  UNL1        0.2198
     48 H          -6.2905    0.5024    1.8685 H       1  UNL1        0.2198
@<TRIPOS>BOND
     1     1     2    1
     2     2     3    1
     3     3     4   ar
     4     4     5   ar
     5     5     6   ar
     6     6     7   ar
     7     7     8   ar
     8     6     9    1
     9     9    10   ar
    10    10    11   ar
    11    11    12   ar
    12    12    13   ar
    13    13    14   ar
    14    12    15    1
    15    15    16    2
    16    15    17    2
    17    15    18    1
    18    18    19    1
    19    19    20    1
    20    20    21    1
    21    20    22    1
    22    19    23    1
    23    23    24    1
    24    23    25    1
    25    23    26    2
    26     8     3   ar
    27    14     9   ar
    28     1    27    1
    29     1    28    1
    30     1    29    1
    31     4    30    1
    32     5    31    1
    33     7    32    1
    34     8    33    1
    35    10    34    1
    36    11    35    1
    37    13    36    1
    38    14    37    1
    39    18    38    1
    40    19    39    1
    41    20    40    1
    42    21    41    1
    43    21    42    1
    44    21    43    1
    45    22    44    1
    46    22    45    1
    47    22    46    1
    48    24    47    1
    49    25    48    1
