@<TRIPOS>MOLECULE
*****
 41 45 0 0 0
SMALL
GASTEIGER

@<TRIPOS>ATOM
      1 C          -4.4701    2.6442   -0.3218 C.ar    1  UNL1       -0.0617
      2 C          -4.0439    2.3337    0.9565 C.ar    1  UNL1       -0.0611
      3 C          -3.5021    1.0862    1.1826 C.ar    1  UNL1       -0.0510
      4 C          -3.3700    0.1363    0.1785 C.ar    1  UNL1        0.0196
      5 C          -2.8218   -1.1611    0.4933 C.ar    1  UNL1        0.1687
      6 N          -3.6313   -2.2122    0.8522 N.ar    1  UNL1       -0.1288
      7 N          -2.9206   -3.2636    1.0880 N.ar    1  UNL1       -0.1337
      8 C          -1.5986   -2.9368    0.8882 C.ar    1  UNL1        0.1385
      9 N          -1.5842   -1.6405    0.5281 N.ar    1  UNL1       -0.2788
     10 C          -0.3305   -0.9555    0.3273 C.ar    1  UNL1        0.0529
     11 C          -0.3169    0.3374   -0.1483 C.ar    1  UNL1       -0.0369
     12 C           0.9144    0.9073   -0.4193 C.ar    1  UNL1       -0.0520
     13 C           2.0928    0.2235   -0.2272 C.ar    1  UNL1       -0.0161
     14 C           3.3663    0.8835   -0.5357 C.ar    1  UNL1        0.0002
     15 C           3.5172    1.8217   -1.5376 C.ar    1  UNL1       -0.0512
     16 C           4.7323    2.4204   -1.7972 C.ar    1  UNL1       -0.0430
     17 C           5.8356    2.0829   -1.0435 C.ar    1  UNL1        0.0276
     18 N           5.6712    1.1675   -0.0717 N.ar    1  UNL1       -0.2627
     19 C           4.4847    0.5678    0.1985 C.ar    1  UNL1        0.0352
     20 C           2.0740   -1.0599    0.2468 C.ar    1  UNL1       -0.0488
     21 C           0.8329   -1.6575    0.5303 C.ar    1  UNL1       -0.0225
     22 C           0.8499   -3.0024    1.1309 C.3     1  UNL1       -0.0188
     23 C          -0.3964   -3.7582    0.9395 C.3     1  UNL1        0.0118
     24 C          -3.8071    0.4883   -1.0770 C.ar    1  UNL1       -0.0510
     25 C          -4.3510    1.7201   -1.3378 C.ar    1  UNL1       -0.0611
     26 H          -4.9071    3.6062   -0.5766 H       1  UNL1        0.0618
     27 H          -4.1390    3.0671    1.7599 H       1  UNL1        0.0618
     28 H          -3.1809    0.8892    2.2069 H       1  UNL1        0.0625
     29 H          -1.1615    0.9465   -0.3334 H       1  UNL1        0.0638
     30 H           0.9863    1.9203   -0.7949 H       1  UNL1        0.0624
     31 H           2.6329    2.0647   -2.1107 H       1  UNL1        0.0625
     32 H           4.8618    3.1526   -2.5751 H       1  UNL1        0.0633
     33 H           6.7867    2.5280   -1.2202 H       1  UNL1        0.0829
     34 H           4.3990   -0.1622    0.9890 H       1  UNL1        0.0836
     35 H           2.9535   -1.6297    0.4118 H       1  UNL1        0.0627
     36 H           1.7425   -3.5476    0.7074 H       1  UNL1        0.0318
     37 H           1.0142   -2.8392    2.2340 H       1  UNL1        0.0318
     38 H          -0.3169   -4.4259    0.0105 H       1  UNL1        0.0347
     39 H          -0.4723   -4.5148    1.7889 H       1  UNL1        0.0347
     40 H          -3.7267   -0.2196   -1.9011 H       1  UNL1        0.0625
     41 H          -4.6992    1.9913   -2.3534 H       1  UNL1        0.0618
@<TRIPOS>BOND
     1     1     2   ar
     2     2     3   ar
     3     3     4   ar
     4     4     5    1
     5     5     6   ar
     6     6     7   ar
     7     7     8   ar
     8     8     9   ar
     9     9    10    1
    10    10    11   ar
    11    11    12   ar
    12    12    13   ar
    13    13    14    1
    14    14    15   ar
    15    15    16   ar
    16    16    17   ar
    17    17    18   ar
    18    18    19   ar
    19    13    20   ar
    20    20    21   ar
    21    21    22    1
    22    22    23    1
    23     4    24   ar
    24    24    25   ar
    25    25     1   ar
    26     9     5   ar
    27    21    10   ar
    28    23     8    1
    29    19    14   ar
    30     1    26    1
    31     2    27    1
    32     3    28    1
    33    11    29    1
    34    12    30    1
    35    15    31    1
    36    16    32    1
    37    17    33    1
    38    19    34    1
    39    20    35    1
    40    22    36    1
    41    22    37    1
    42    23    38    1
    43    23    39    1
    44    24    40    1
    45    25    41    1
