
     RDKit          3D

 54 58  0  0  0  0  0  0  0  0999 V2000
    6.7513   -1.0622   -1.2117 C   0  0  0  0  0  0  0  0  0  0  0  0
    5.8206   -0.2728   -0.2575 C   0  0  1  0  0  0  0  0  0  0  0  0
    4.5422   -0.2807   -0.6476 O   0  0  0  0  0  0  0  0  0  0  0  0
    3.5648    0.5418   -1.0369 C   0  0  0  0  0  0  0  0  0  0  0  0
    2.2908   -0.0058   -1.3670 C   0  0  0  0  0  0  0  0  0  0  0  0
    1.2370    0.7439   -1.7716 C   0  0  0  0  0  0  0  0  0  0  0  0
   -0.0600    0.0927   -2.0950 C   0  0  0  0  0  0  0  0  0  0  0  0
   -0.9655    0.0334   -0.9670 N   0  0  0  0  0  0  0  0  0  0  0  0
   -1.8596    0.9760   -0.6272 C   0  0  0  0  0  0  0  0  0  0  0  0
   -2.0444    2.0714   -1.2482 O   0  0  0  0  0  0  0  0  0  0  0  0
   -2.4920    0.5333    0.4646 N   0  0  0  0  0  0  0  0  0  0  0  0
   -3.5123    1.2468    1.1305 C   0  0  0  0  0  0  0  0  0  0  0  0
   -3.4629    1.7455    2.3711 N   0  0  0  0  0  0  0  0  0  0  0  0
   -4.5942    2.3429    2.6479 O   0  0  0  0  0  0  0  0  0  0  0  0
   -5.4331    2.2816    1.6492 C   0  0  0  0  0  0  0  0  0  0  0  0
   -6.7122    2.7474    1.4614 C   0  0  0  0  0  0  0  0  0  0  0  0
   -7.3277    2.5054    0.2583 C   0  0  0  0  0  0  0  0  0  0  0  0
   -8.9658    3.0631   -0.0746 Cl  0  0  0  0  0  0  0  0  0  0  0  0
   -6.6692    1.8013   -0.7535 C   0  0  0  0  0  0  0  0  0  0  0  0
   -5.3964    1.3461   -0.5469 C   0  0  0  0  0  0  0  0  0  0  0  0
   -4.7565    1.5739    0.6472 C   0  0  0  0  0  0  0  0  0  0  0  0
   -2.0032   -0.6916    0.8232 C   0  0  0  0  0  0  0  0  0  0  0  0
   -2.3310   -1.5331    1.8560 C   0  0  0  0  0  0  0  0  0  0  0  0
   -1.6727   -2.7241    1.9834 C   0  0  0  0  0  0  0  0  0  0  0  0
   -0.6855   -3.0473    1.0566 C   0  0  0  0  0  0  0  0  0  0  0  0
    0.0425   -4.3560    1.1907 C   0  0  0  0  0  0  0  0  0  0  0  0
    0.0194   -4.9461   -0.0578 F   0  0  0  0  0  0  0  0  0  0  0  0
    1.3278   -4.0752    1.5976 F   0  0  0  0  0  0  0  0  0  0  0  0
   -0.6285   -5.1438    2.1195 F   0  0  0  0  0  0  0  0  0  0  0  0
   -0.3670   -2.1991    0.0299 C   0  0  0  0  0  0  0  0  0  0  0  0
   -1.0313   -0.9862   -0.1067 C   0  0  0  0  0  0  0  0  0  0  0  0
    1.3950    2.1095   -1.8728 C   0  0  0  0  0  0  0  0  0  0  0  0
    2.6100    2.6500   -1.5600 C   0  0  0  0  0  0  0  0  0  0  0  0
    3.7048    1.9045   -1.1432 C   0  0  0  0  0  0  0  0  0  0  0  0
    5.2175    2.7527   -0.7726 Cl  0  0  0  0  0  0  0  0  0  0  0  0
    6.0440   -0.9122    1.0962 C   0  0  0  0  0  0  0  0  0  0  0  0
    5.0959   -1.3875    1.7480 O   0  0  0  0  0  0  0  0  0  0  0  0
    7.3195   -0.9650    1.6078 O   0  0  0  0  0  0  0  0  0  0  0  0
    6.5900   -0.7142   -2.2507 H   0  0  0  0  0  0  0  0  0  0  0  0
    7.7703   -0.8150   -0.9117 H   0  0  0  0  0  0  0  0  0  0  0  0
    6.6025   -2.1401   -1.0833 H   0  0  0  0  0  0  0  0  0  0  0  0
    6.2770    0.7305   -0.2310 H   0  0  0  0  0  0  0  0  0  0  0  0
    2.2484   -1.1005   -1.2624 H   0  0  0  0  0  0  0  0  0  0  0  0
    0.1436   -0.9339   -2.4230 H   0  0  0  0  0  0  0  0  0  0  0  0
   -0.5650    0.6165   -2.9427 H   0  0  0  0  0  0  0  0  0  0  0  0
   -7.2515    3.2922    2.2142 H   0  0  0  0  0  0  0  0  0  0  0  0
   -7.1485    1.6033   -1.7133 H   0  0  0  0  0  0  0  0  0  0  0  0
   -4.8407    0.7889   -1.3125 H   0  0  0  0  0  0  0  0  0  0  0  0
   -3.0906   -1.2614    2.5514 H   0  0  0  0  0  0  0  0  0  0  0  0
   -1.9241   -3.4026    2.8010 H   0  0  0  0  0  0  0  0  0  0  0  0
    0.3971   -2.4709   -0.6762 H   0  0  0  0  0  0  0  0  0  0  0  0
    0.5602    2.7396   -2.1974 H   0  0  0  0  0  0  0  0  0  0  0  0
    2.7550    3.7398   -1.6350 H   0  0  0  0  0  0  0  0  0  0  0  0
    7.4638   -1.1470    2.5974 H   0  0  0  0  0  0  0  0  0  0  0  0
  1  2  1  0
  2  3  1  0
  3  4  1  0
  4  5  2  0
  5  6  1  0
  6  7  1  0
  7  8  1  0
  8  9  1  0
  9 10  2  0
  9 11  1  0
 11 12  1  0
 12 13  2  0
 13 14  1  0
 14 15  1  0
 15 16  2  0
 16 17  1  0
 17 18  1  0
 17 19  2  0
 19 20  1  0
 20 21  2  0
 11 22  1  0
 22 23  2  0
 23 24  1  0
 24 25  2  0
 25 26  1  0
 26 27  1  0
 26 28  1  0
 26 29  1  0
 25 30  1  0
 30 31  2  0
  6 32  2  0
 32 33  1  0
 33 34  2  0
 34 35  1  0
  2 36  1  0
 36 37  2  0
 36 38  1  0
 34  4  1  0
 31  8  1  0
 21 12  1  0
 31 22  1  0
 21 15  1  0
  1 39  1  0
  1 40  1  0
  1 41  1  0
  2 42  1  1
  5 43  1  0
  7 44  1  0
  7 45  1  0
 16 46  1  0
 19 47  1  0
 20 48  1  0
 23 49  1  0
 24 50  1  0
 30 51  1  0
 32 52  1  0
 33 53  1  0
 38 54  1  0
M  END
$$$$
