@<TRIPOS>MOLECULE
*****
 54 58 0 0 0
SMALL
GASTEIGER

@<TRIPOS>ATOM
      1 C           6.7513   -1.0622   -1.2117 C.3     1  UNL1       -0.0172
      2 C           5.8206   -0.2728   -0.2575 C.3     1  UNL1        0.1931
      3 O           4.5422   -0.2807   -0.6476 O.3     1  UNL1       -0.4765
      4 C           3.5648    0.5418   -1.0369 C.ar    1  UNL1        0.1402
      5 C           2.2908   -0.0058   -1.3670 C.ar    1  UNL1       -0.0136
      6 C           1.2370    0.7439   -1.7716 C.ar    1  UNL1       -0.0241
      7 C          -0.0600    0.0927   -2.0950 C.3     1  UNL1        0.0533
      8 N          -0.9655    0.0334   -0.9670 N.ar    1  UNL1       -0.2873
      9 C          -1.8596    0.9760   -0.6272 C.ar    1  UNL1        0.3362
     10 O          -2.0444    2.0714   -1.2482 O.2     1  UNL1       -0.2459
     11 N          -2.4920    0.5333    0.4646 N.ar    1  UNL1       -0.2413
     12 C          -3.5123    1.2468    1.1305 C.ar    1  UNL1        0.1922
     13 N          -3.4629    1.7455    2.3711 N.ar    1  UNL1       -0.0587
     14 O          -4.5942    2.3429    2.6479 O.2     1  UNL1       -0.3525
     15 C          -5.4331    2.2816    1.6492 C.ar    1  UNL1        0.1707
     16 C          -6.7122    2.7474    1.4614 C.ar    1  UNL1        0.0023
     17 C          -7.3277    2.5054    0.2583 C.ar    1  UNL1        0.0446
     18 CL         -8.9658    3.0631   -0.0746 Cl      1  UNL1       -0.0834
     19 C          -6.6692    1.8013   -0.7535 C.ar    1  UNL1       -0.0425
     20 C          -5.3964    1.3461   -0.5469 C.ar    1  UNL1       -0.0460
     21 C          -4.7565    1.5739    0.6472 C.ar    1  UNL1        0.0661
     22 C          -2.0032   -0.6916    0.8232 C.ar    1  UNL1        0.0766
     23 C          -2.3310   -1.5331    1.8560 C.ar    1  UNL1       -0.0351
     24 C          -1.6727   -2.7241    1.9834 C.ar    1  UNL1       -0.0480
     25 C          -0.6855   -3.0473    1.0566 C.ar    1  UNL1        0.0569
     26 C           0.0425   -4.3560    1.1907 C.3     1  UNL1        0.4175
     27 F           0.0194   -4.9461   -0.0578 F       1  UNL1       -0.1659
     28 F           1.3278   -4.0752    1.5976 F       1  UNL1       -0.1659
     29 F          -0.6285   -5.1438    2.1195 F       1  UNL1       -0.1659
     30 C          -0.3670   -2.1991    0.0299 C.ar    1  UNL1       -0.0244
     31 C          -1.0313   -0.9862   -0.1067 C.ar    1  UNL1        0.0712
     32 C           1.3950    2.1095   -1.8728 C.ar    1  UNL1       -0.0553
     33 C           2.6100    2.6500   -1.5600 C.ar    1  UNL1       -0.0395
     34 C           3.7048    1.9045   -1.1432 C.ar    1  UNL1        0.0826
     35 CL          5.2175    2.7527   -0.7726 Cl      1  UNL1       -0.0798
     36 C           6.0440   -0.9122    1.0962 C.2     1  UNL1        0.3456
     37 O           5.0959   -1.3875    1.7480 O.2     1  UNL1       -0.2468
     38 O           7.3195   -0.9650    1.6078 O.3     1  UNL1       -0.4781
     39 H           6.5900   -0.7142   -2.2507 H       1  UNL1        0.0271
     40 H           7.7703   -0.8150   -0.9117 H       1  UNL1        0.0271
     41 H           6.6025   -2.1401   -1.0833 H       1  UNL1        0.0271
     42 H           6.2770    0.7305   -0.2310 H       1  UNL1        0.0849
     43 H           2.2484   -1.1005   -1.2624 H       1  UNL1        0.0658
     44 H           0.1436   -0.9339   -2.4230 H       1  UNL1        0.0543
     45 H          -0.5650    0.6165   -2.9427 H       1  UNL1        0.0543
     46 H          -7.2515    3.2922    2.2142 H       1  UNL1        0.0670
     47 H          -7.1485    1.6033   -1.7133 H       1  UNL1        0.0632
     48 H          -4.8407    0.7889   -1.3125 H       1  UNL1        0.0626
     49 H          -3.0906   -1.2614    2.5514 H       1  UNL1        0.0639
     50 H          -1.9241   -3.4026    2.8010 H       1  UNL1        0.0624
     51 H           0.3971   -2.4709   -0.6762 H       1  UNL1        0.0644
     52 H           0.5602    2.7396   -2.1974 H       1  UNL1        0.0621
     53 H           2.7550    3.7398   -1.6350 H       1  UNL1        0.0633
     54 H           7.4638   -1.1470    2.5974 H       1  UNL1        0.2952
@<TRIPOS>BOND
     1     1     2    1
     2     2     3    1
     3     3     4    1
     4     4     5   ar
     5     5     6   ar
     6     6     7    1
     7     7     8    1
     8     8     9   ar
     9     9    10    2
    10     9    11   ar
    11    11    12    1
    12    12    13   ar
    13    13    14   ar
    14    14    15   ar
    15    15    16   ar
    16    16    17   ar
    17    17    18    1
    18    17    19   ar
    19    19    20   ar
    20    20    21   ar
    21    11    22   ar
    22    22    23   ar
    23    23    24   ar
    24    24    25   ar
    25    25    26    1
    26    26    27    1
    27    26    28    1
    28    26    29    1
    29    25    30   ar
    30    30    31   ar
    31     6    32   ar
    32    32    33   ar
    33    33    34   ar
    34    34    35    1
    35     2    36    1
    36    36    37    2
    37    36    38    1
    38    34     4   ar
    39    31     8   ar
    40    21    12   ar
    41    31    22   ar
    42    21    15   ar
    43     1    39    1
    44     1    40    1
    45     1    41    1
    46     2    42    1
    47     5    43    1
    48     7    44    1
    49     7    45    1
    50    16    46    1
    51    19    47    1
    52    20    48    1
    53    23    49    1
    54    24    50    1
    55    30    51    1
    56    32    52    1
    57    33    53    1
    58    38    54    1
