@<TRIPOS>MOLECULE
*****
 120 121 0 0 0
SMALL
GASTEIGER

@<TRIPOS>ATOM
      1 C         -10.6262    4.1662    0.7281 C.3     1  UNK1       -0.0524
      2 C         -10.2993    3.1064    1.7549 C.3     1  UNK1       -0.0040
      3 N          -9.0407    2.4219    1.3822 N.3     1  UNK1       -0.3028
      4 C          -8.7724    1.4217    2.4337 C.3     1  UNK1       -0.0040
      5 C          -9.7871    0.3169    2.3991 C.3     1  UNK1       -0.0524
      6 C          -7.9551    3.3646    1.4058 C.3     1  UNK1       -0.0011
      7 C          -6.7032    2.7929    0.8356 C.3     1  UNK1       -0.0401
      8 C          -6.8798    2.3740   -0.6230 C.3     1  UNK1       -0.0498
      9 C          -5.5795    1.8364   -1.1518 C.3     1  UNK1       -0.0259
     10 C          -5.0469    0.6235   -0.4434 C.3     1  UNK1        0.0994
     11 N          -3.7715    0.3163   -1.1140 N.am    1  UNK1       -0.3025
     12 C          -2.5775    0.2018   -0.3581 C.2     1  UNK1        0.2340
     13 O          -2.6783    0.3393    0.8981 O.2     1  UNK1       -0.2738
     14 C          -1.3015   -0.0560   -1.0342 C.3     1  UNK1        0.0996
     15 C          -1.3688   -1.1723   -1.9833 C.3     1  UNK1       -0.0236
     16 C          -1.7065   -2.5248   -1.4466 C.3     1  UNK1       -0.0446
     17 C          -1.7722   -3.4960   -2.6554 C.3     1  UNK1       -0.0626
     18 C          -0.6308   -3.0878   -0.5099 C.3     1  UNK1       -0.0626
     19 N          -0.2138   -0.1743   -0.1014 N.am    1  UNK1       -0.3025
     20 C           0.9981    0.5865   -0.1634 C.2     1  UNK1        0.2337
     21 O           1.1196    1.3986   -1.1061 O.2     1  UNK1       -0.2738
     22 C           2.0689    0.4319    0.8384 C.3     1  UNK1        0.0966
     23 C           1.5460    0.7661    2.2386 C.3     1  UNK1       -0.0381
     24 N           3.1605    1.3273    0.5016 N.am    1  UNK1       -0.3027
     25 C           4.5291    0.9291    0.5408 C.2     1  UNK1        0.2343
     26 O           4.7488   -0.2628    0.8859 O.2     1  UNK1       -0.2738
     27 C           5.5903    1.8712    0.1996 C.3     1  UNK1        0.1036
     28 C           5.5543    2.3469   -1.2464 C.3     1  UNK1       -0.0006
     29 C           5.6940    1.2104   -2.2014 C.ar    1  UNK1       -0.0451
     30 C           6.9292    0.7678   -2.6193 C.ar    1  UNK1       -0.0585
     31 C           7.0079   -0.2776   -3.5051 C.ar    1  UNK1       -0.0615
     32 C           5.9006   -0.9235   -4.0111 C.ar    1  UNK1       -0.0617
     33 C           4.6711   -0.4670   -3.5816 C.ar    1  UNK1       -0.0615
     34 C           4.5748    0.5838   -2.6905 C.ar    1  UNK1       -0.0585
     35 N           6.9181    1.2965    0.3935 N.am    1  UNK1       -0.2997
     36 C           7.9450    1.9520    1.0945 C.2     0  UNK0        0.2447
     37 O           7.6433    3.1100    1.5540 O.2     0  UNK0       -0.2702
     38 C           9.2804    1.4438    1.3334 C.ar    0  UNK0        0.0367
     39 C          10.2637    2.2327    1.8768 C.ar    0  UNK0       -0.0494
     40 C          11.5384    1.7470    2.1295 C.ar    0  UNK0       -0.0576
     41 C          11.8695    0.4407    1.8421 C.ar    0  UNK0       -0.0448
     42 C          13.2431   -0.0873    2.1040 C.3     0  UNK0       -0.0215
     43 C          13.6955   -1.1173    1.1311 C.3     0  UNK0       -0.0587
     44 C          13.2886   -0.6232    3.5291 C.3     0  UNK0       -0.0587
     45 C          10.8879   -0.3616    1.2950 C.ar    0  UNK0       -0.0576
     46 C           9.6039    0.1239    1.0387 C.ar    0  UNK0       -0.0494
     47 C          -5.9795   -0.4883   -0.4045 C.2     1  UNK1        0.2340
     48 O          -7.1041   -0.3270    0.1290 O.2     1  UNK1       -0.2738
     49 N          -5.7268   -1.7827   -0.9285 N.am    2  UNK2       -0.2991
     50 C          -6.7566   -2.8313   -0.8059 C.3     2  UNK2        0.1437
     51 C          -6.8066   -3.5789   -2.0985 C.3     2  UNK2        0.0730
     52 O          -7.7616   -4.5946   -2.0921 O.3     2  UNK2       -0.3926
     53 C          -6.3417   -3.7079    0.3262 C.2     2  UNK2        0.3297
     54 O          -5.2596   -3.4664    0.9062 O.2     2  UNK2       -0.2487
     55 O          -7.0758   -4.7758    0.7875 O.3     2  UNK2       -0.4666
     56 C          -6.6455   -5.5791    1.8797 C.3     2  UNK2        0.0817
     57 H         -10.2440    5.1567    1.0770 H       1  UNK1        0.0242
     58 H         -11.6940    4.1986    0.4511 H       1  UNK1        0.0242
     59 H         -10.0838    3.9810   -0.2356 H       1  UNK1        0.0242
     60 H         -11.1346    2.3999    1.7892 H       1  UNK1        0.0424
     61 H         -10.1837    3.5568    2.7576 H       1  UNK1        0.0424
     62 H          -8.8149    1.9934    3.3929 H       1  UNK1        0.0424
     63 H          -7.7616    1.0514    2.3320 H       1  UNK1        0.0424
     64 H          -9.9934    0.0962    1.3219 H       1  UNK1        0.0242
     65 H         -10.7211    0.5367    2.9450 H       1  UNK1        0.0242
     66 H          -9.3245   -0.5996    2.8074 H       1  UNK1        0.0242
     67 H          -8.3042    4.2573    0.8311 H       1  UNK1        0.0426
     68 H          -7.7609    3.7346    2.4492 H       1  UNK1        0.0426
     69 H          -5.9294    3.6222    0.8314 H       1  UNK1        0.0278
     70 H          -6.2734    1.9685    1.4171 H       1  UNK1        0.0278
     71 H          -7.1637    3.3150   -1.1835 H       1  UNK1        0.0266
     72 H          -7.7410    1.7001   -0.7418 H       1  UNK1        0.0266
     73 H          -4.8382    2.6740   -1.1612 H       1  UNK1        0.0288
     74 H          -5.7616    1.6136   -2.2401 H       1  UNK1        0.0288
     75 H          -4.7461    0.9571    0.5978 H       1  UNK1        0.0594
     76 H          -3.8142    0.2015   -2.1427 H       1  UNK1        0.1495
     77 H          -1.0722    0.9065   -1.6406 H       1  UNK1        0.0594
     78 H          -0.3542   -1.2550   -2.5181 H       1  UNK1        0.0290
     79 H          -2.1229   -0.9152   -2.7928 H       1  UNK1        0.0290
     80 H          -2.6548   -2.6099   -0.9233 H       1  UNK1        0.0296
     81 H          -2.7982   -3.5557   -3.0551 H       1  UNK1        0.0232
     82 H          -1.4331   -4.4988   -2.3933 H       1  UNK1        0.0232
     83 H          -1.1425   -3.0465   -3.4757 H       1  UNK1        0.0232
     84 H          -0.9401   -3.0283    0.5505 H       1  UNK1        0.0232
     85 H          -0.5085   -4.1782   -0.7557 H       1  UNK1        0.0232
     86 H           0.3197   -2.5750   -0.7254 H       1  UNK1        0.0232
     87 H          -0.2693   -0.8308    0.7049 H       1  UNK1        0.1495
     88 H           2.4886   -0.5888    0.9032 H       1  UNK1        0.0592
     89 H           1.9315    0.0369    2.9851 H       1  UNK1        0.0252
     90 H           0.4331    0.7645    2.2159 H       1  UNK1        0.0252
     91 H           1.9097    1.7858    2.4668 H       1  UNK1        0.0252
     92 H           2.9343    2.3037    0.2177 H       1  UNK1        0.1495
     93 H           5.5643    2.8046    0.8019 H       1  UNK1        0.0598
     94 H           6.4292    3.0028   -1.3953 H       1  UNK1        0.0336
     95 H           4.6121    2.9009   -1.4350 H       1  UNK1        0.0336
     96 H           7.8223    1.2394   -2.2560 H       1  UNK1        0.0620
     97 H           7.9854   -0.6537   -3.8606 H       1  UNK1        0.0618
     98 H           6.0010   -1.7629   -4.7213 H       1  UNK1        0.0618
     99 H           3.7680   -0.9617   -3.9700 H       1  UNK1        0.0618
    100 H           3.5646    0.9068   -2.3856 H       1  UNK1        0.0620
    101 H           7.1015    0.3731   -0.0025 H       1  UNK1        0.1498
    102 H          10.0005    3.2509    2.0979 H       0  UNK0        0.0625
    103 H          12.3074    2.3739    2.5632 H       0  UNK0        0.0621
    104 H          13.9866    0.7665    2.1142 H       0  UNK0        0.0343
    105 H          14.6927   -0.8471    0.7061 H       0  UNK0        0.0235
    106 H          12.9977   -1.1085    0.2456 H       0  UNK0        0.0235
    107 H          13.7010   -2.1589    1.5300 H       0  UNK0        0.0235
    108 H          12.8022    0.1037    4.2158 H       0  UNK0        0.0235
    109 H          14.3637   -0.6538    3.8363 H       0  UNK0        0.0235
    110 H          12.8954   -1.6363    3.5631 H       0  UNK0        0.0235
    111 H          11.1724   -1.3965    1.0775 H       0  UNK0        0.0621
    112 H           8.8559   -0.5122    0.6146 H       0  UNK0        0.0625
    113 H          -4.8532   -2.0346   -1.4066 H       2  UNK2        0.1496
    114 H          -7.7212   -2.3322   -0.5637 H       2  UNK2        0.0638
    115 H          -6.9648   -2.8975   -2.9527 H       2  UNK2        0.0581
    116 H          -5.7991   -4.0502   -2.2892 H       2  UNK2        0.0581
    117 H          -8.2219   -4.6778   -1.2379 H       2  UNK2        0.2095
    118 H          -7.3869   -6.3453    2.1078 H       2  UNK2        0.0661
    119 H          -6.5674   -4.9103    2.7893 H       2  UNK2        0.0661
    120 H          -5.6443   -5.9978    1.7233 H       2  UNK2        0.0661
@<TRIPOS>BOND
     1     1     2    1
     2     2     3    1
     3     3     4    1
     4     4     5    1
     5     3     6    1
     6     6     7    1
     7     7     8    1
     8     8     9    1
     9     9    10    1
    10    10    11    1
    11    11    12   am
    12    12    13    2
    13    12    14    1
    14    14    15    1
    15    15    16    1
    16    16    17    1
    17    16    18    1
    18    14    19    1
    19    19    20   am
    20    20    21    2
    21    20    22    1
    22    22    23    1
    23    22    24    1
    24    24    25   am
    25    25    26    2
    26    25    27    1
    27    27    28    1
    28    28    29    1
    29    29    30   ar
    30    30    31   ar
    31    31    32   ar
    32    32    33   ar
    33    33    34   ar
    34    27    35    1
    35    35    36   am
    36    36    37    2
    37    36    38    1
    38    38    39   ar
    39    39    40   ar
    40    40    41   ar
    41    41    42    1
    42    42    43    1
    43    42    44    1
    44    41    45   ar
    45    45    46   ar
    46    10    47    1
    47    47    48    2
    48    47    49   am
    49    49    50    1
    50    50    51    1
    51    51    52    1
    52    50    53    1
    53    53    54    2
    54    53    55    1
    55    55    56    1
    56    34    29   ar
    57    46    38   ar
    58     1    57    1
    59     1    58    1
    60     1    59    1
    61     2    60    1
    62     2    61    1
    63     4    62    1
    64     4    63    1
    65     5    64    1
    66     5    65    1
    67     5    66    1
    68     6    67    1
    69     6    68    1
    70     7    69    1
    71     7    70    1
    72     8    71    1
    73     8    72    1
    74     9    73    1
    75     9    74    1
    76    10    75    1
    77    11    76    1
    78    14    77    1
    79    15    78    1
    80    15    79    1
    81    16    80    1
    82    17    81    1
    83    17    82    1
    84    17    83    1
    85    18    84    1
    86    18    85    1
    87    18    86    1
    88    19    87    1
    89    22    88    1
    90    23    89    1
    91    23    90    1
    92    23    91    1
    93    24    92    1
    94    27    93    1
    95    28    94    1
    96    28    95    1
    97    30    96    1
    98    31    97    1
    99    32    98    1
   100    33    99    1
   101    34   100    1
   102    35   101    1
   103    39   102    1
   104    40   103    1
   105    42   104    1
   106    43   105    1
   107    43   106    1
   108    43   107    1
   109    44   108    1
   110    44   109    1
   111    44   110    1
   112    45   111    1
   113    46   112    1
   114    49   113    1
   115    50   114    1
   116    51   115    1
   117    51   116    1
   118    52   117    1
   119    56   118    1
   120    56   119    1
   121    56   120    1
