
     RDKit          3D

120121  0  0  0  0  0  0  0  0999 V2000
  -10.6262    4.1662    0.7281 C   0  0  0  0  0  0  0  0  0  0  0  0
  -10.2993    3.1064    1.7549 C   0  0  0  0  0  0  0  0  0  0  0  0
   -9.0407    2.4219    1.3822 N   0  0  0  0  0  0  0  0  0  0  0  0
   -8.7724    1.4217    2.4337 C   0  0  0  0  0  0  0  0  0  0  0  0
   -9.7871    0.3169    2.3991 C   0  0  0  0  0  0  0  0  0  0  0  0
   -7.9551    3.3646    1.4058 C   0  0  0  0  0  0  0  0  0  0  0  0
   -6.7032    2.7929    0.8356 C   0  0  0  0  0  0  0  0  0  0  0  0
   -6.8798    2.3740   -0.6230 C   0  0  0  0  0  0  0  0  0  0  0  0
   -5.5795    1.8364   -1.1518 C   0  0  0  0  0  0  0  0  0  0  0  0
   -5.0469    0.6235   -0.4434 C   0  0  2  0  0  0  0  0  0  0  0  0
   -3.7715    0.3163   -1.1140 N   0  0  0  0  0  0  0  0  0  0  0  0
   -2.5775    0.2018   -0.3581 C   0  0  0  0  0  0  0  0  0  0  0  0
   -2.6783    0.3393    0.8981 O   0  0  0  0  0  0  0  0  0  0  0  0
   -1.3015   -0.0560   -1.0342 C   0  0  2  0  0  0  0  0  0  0  0  0
   -1.3688   -1.1723   -1.9833 C   0  0  0  0  0  0  0  0  0  0  0  0
   -1.7065   -2.5248   -1.4466 C   0  0  0  0  0  0  0  0  0  0  0  0
   -1.7722   -3.4960   -2.6554 C   0  0  0  0  0  0  0  0  0  0  0  0
   -0.6308   -3.0878   -0.5099 C   0  0  0  0  0  0  0  0  0  0  0  0
   -0.2138   -0.1743   -0.1014 N   0  0  0  0  0  0  0  0  0  0  0  0
    0.9981    0.5865   -0.1634 C   0  0  0  0  0  0  0  0  0  0  0  0
    1.1196    1.3986   -1.1061 O   0  0  0  0  0  0  0  0  0  0  0  0
    2.0689    0.4319    0.8384 C   0  0  2  0  0  0  0  0  0  0  0  0
    1.5460    0.7661    2.2386 C   0  0  0  0  0  0  0  0  0  0  0  0
    3.1605    1.3273    0.5016 N   0  0  0  0  0  0  0  0  0  0  0  0
    4.5291    0.9291    0.5408 C   0  0  0  0  0  0  0  0  0  0  0  0
    4.7488   -0.2628    0.8859 O   0  0  0  0  0  0  0  0  0  0  0  0
    5.5903    1.8712    0.1996 C   0  0  2  0  0  0  0  0  0  0  0  0
    5.5543    2.3469   -1.2464 C   0  0  0  0  0  0  0  0  0  0  0  0
    5.6940    1.2104   -2.2014 C   0  0  0  0  0  0  0  0  0  0  0  0
    6.9292    0.7678   -2.6193 C   0  0  0  0  0  0  0  0  0  0  0  0
    7.0079   -0.2776   -3.5051 C   0  0  0  0  0  0  0  0  0  0  0  0
    5.9006   -0.9235   -4.0111 C   0  0  0  0  0  0  0  0  0  0  0  0
    4.6711   -0.4670   -3.5816 C   0  0  0  0  0  0  0  0  0  0  0  0
    4.5748    0.5838   -2.6905 C   0  0  0  0  0  0  0  0  0  0  0  0
    6.9181    1.2965    0.3935 N   0  0  0  0  0  0  0  0  0  0  0  0
    7.9450    1.9520    1.0945 C   0  0  0  0  0  0  0  0  0  0  0  0
    7.6433    3.1100    1.5540 O   0  0  0  0  0  0  0  0  0  0  0  0
    9.2804    1.4438    1.3334 C   0  0  0  0  0  0  0  0  0  0  0  0
   10.2637    2.2327    1.8768 C   0  0  0  0  0  0  0  0  0  0  0  0
   11.5384    1.7470    2.1295 C   0  0  0  0  0  0  0  0  0  0  0  0
   11.8695    0.4407    1.8421 C   0  0  0  0  0  0  0  0  0  0  0  0
   13.2431   -0.0873    2.1040 C   0  0  0  0  0  0  0  0  0  0  0  0
   13.6955   -1.1173    1.1311 C   0  0  0  0  0  0  0  0  0  0  0  0
   13.2886   -0.6232    3.5291 C   0  0  0  0  0  0  0  0  0  0  0  0
   10.8879   -0.3616    1.2950 C   0  0  0  0  0  0  0  0  0  0  0  0
    9.6039    0.1239    1.0387 C   0  0  0  0  0  0  0  0  0  0  0  0
   -5.9795   -0.4883   -0.4045 C   0  0  0  0  0  0  0  0  0  0  0  0
   -7.1041   -0.3270    0.1290 O   0  0  0  0  0  0  0  0  0  0  0  0
   -5.7268   -1.7827   -0.9285 N   0  0  0  0  0  0  0  0  0  0  0  0
   -6.7566   -2.8313   -0.8059 C   0  0  1  0  0  0  0  0  0  0  0  0
   -6.8066   -3.5789   -2.0985 C   0  0  0  0  0  0  0  0  0  0  0  0
   -7.7616   -4.5946   -2.0921 O   0  0  0  0  0  0  0  0  0  0  0  0
   -6.3417   -3.7079    0.3262 C   0  0  0  0  0  0  0  0  0  0  0  0
   -5.2596   -3.4664    0.9062 O   0  0  0  0  0  0  0  0  0  0  0  0
   -7.0758   -4.7758    0.7875 O   0  0  0  0  0  0  0  0  0  0  0  0
   -6.6455   -5.5791    1.8797 C   0  0  0  0  0  0  0  0  0  0  0  0
  -10.2440    5.1567    1.0770 H   0  0  0  0  0  0  0  0  0  0  0  0
  -11.6940    4.1986    0.4511 H   0  0  0  0  0  0  0  0  0  0  0  0
  -10.0838    3.9810   -0.2356 H   0  0  0  0  0  0  0  0  0  0  0  0
  -11.1346    2.3999    1.7892 H   0  0  0  0  0  0  0  0  0  0  0  0
  -10.1837    3.5568    2.7576 H   0  0  0  0  0  0  0  0  0  0  0  0
   -8.8149    1.9934    3.3929 H   0  0  0  0  0  0  0  0  0  0  0  0
   -7.7616    1.0514    2.3320 H   0  0  0  0  0  0  0  0  0  0  0  0
   -9.9934    0.0962    1.3219 H   0  0  0  0  0  0  0  0  0  0  0  0
  -10.7211    0.5367    2.9450 H   0  0  0  0  0  0  0  0  0  0  0  0
   -9.3245   -0.5996    2.8074 H   0  0  0  0  0  0  0  0  0  0  0  0
   -8.3042    4.2573    0.8311 H   0  0  0  0  0  0  0  0  0  0  0  0
   -7.7609    3.7346    2.4492 H   0  0  0  0  0  0  0  0  0  0  0  0
   -5.9294    3.6222    0.8314 H   0  0  0  0  0  0  0  0  0  0  0  0
   -6.2734    1.9685    1.4171 H   0  0  0  0  0  0  0  0  0  0  0  0
   -7.1637    3.3150   -1.1835 H   0  0  0  0  0  0  0  0  0  0  0  0
   -7.7410    1.7001   -0.7418 H   0  0  0  0  0  0  0  0  0  0  0  0
   -4.8382    2.6740   -1.1612 H   0  0  0  0  0  0  0  0  0  0  0  0
   -5.7616    1.6136   -2.2401 H   0  0  0  0  0  0  0  0  0  0  0  0
   -4.7461    0.9571    0.5978 H   0  0  0  0  0  0  0  0  0  0  0  0
   -3.8142    0.2015   -2.1427 H   0  0  0  0  0  0  0  0  0  0  0  0
   -1.0722    0.9065   -1.6406 H   0  0  0  0  0  0  0  0  0  0  0  0
   -0.3542   -1.2550   -2.5181 H   0  0  0  0  0  0  0  0  0  0  0  0
   -2.1229   -0.9152   -2.7928 H   0  0  0  0  0  0  0  0  0  0  0  0
   -2.6548   -2.6099   -0.9233 H   0  0  0  0  0  0  0  0  0  0  0  0
   -2.7982   -3.5557   -3.0551 H   0  0  0  0  0  0  0  0  0  0  0  0
   -1.4331   -4.4988   -2.3933 H   0  0  0  0  0  0  0  0  0  0  0  0
   -1.1425   -3.0465   -3.4757 H   0  0  0  0  0  0  0  0  0  0  0  0
   -0.9401   -3.0283    0.5505 H   0  0  0  0  0  0  0  0  0  0  0  0
   -0.5085   -4.1782   -0.7557 H   0  0  0  0  0  0  0  0  0  0  0  0
    0.3197   -2.5750   -0.7254 H   0  0  0  0  0  0  0  0  0  0  0  0
   -0.2693   -0.8308    0.7049 H   0  0  0  0  0  0  0  0  0  0  0  0
    2.4886   -0.5888    0.9032 H   0  0  0  0  0  0  0  0  0  0  0  0
    1.9315    0.0369    2.9851 H   0  0  0  0  0  0  0  0  0  0  0  0
    0.4331    0.7645    2.2159 H   0  0  0  0  0  0  0  0  0  0  0  0
    1.9097    1.7858    2.4668 H   0  0  0  0  0  0  0  0  0  0  0  0
    2.9343    2.3037    0.2177 H   0  0  0  0  0  0  0  0  0  0  0  0
    5.5643    2.8046    0.8019 H   0  0  0  0  0  0  0  0  0  0  0  0
    6.4292    3.0028   -1.3953 H   0  0  0  0  0  0  0  0  0  0  0  0
    4.6121    2.9009   -1.4350 H   0  0  0  0  0  0  0  0  0  0  0  0
    7.8223    1.2394   -2.2560 H   0  0  0  0  0  0  0  0  0  0  0  0
    7.9854   -0.6537   -3.8606 H   0  0  0  0  0  0  0  0  0  0  0  0
    6.0010   -1.7629   -4.7213 H   0  0  0  0  0  0  0  0  0  0  0  0
    3.7680   -0.9617   -3.9700 H   0  0  0  0  0  0  0  0  0  0  0  0
    3.5646    0.9068   -2.3856 H   0  0  0  0  0  0  0  0  0  0  0  0
    7.1015    0.3731   -0.0025 H   0  0  0  0  0  0  0  0  0  0  0  0
   10.0005    3.2509    2.0979 H   0  0  0  0  0  0  0  0  0  0  0  0
   12.3074    2.3739    2.5632 H   0  0  0  0  0  0  0  0  0  0  0  0
   13.9866    0.7665    2.1142 H   0  0  0  0  0  0  0  0  0  0  0  0
   14.6927   -0.8471    0.7061 H   0  0  0  0  0  0  0  0  0  0  0  0
   12.9977   -1.1085    0.2456 H   0  0  0  0  0  0  0  0  0  0  0  0
   13.7010   -2.1589    1.5300 H   0  0  0  0  0  0  0  0  0  0  0  0
   12.8022    0.1037    4.2158 H   0  0  0  0  0  0  0  0  0  0  0  0
   14.3637   -0.6538    3.8363 H   0  0  0  0  0  0  0  0  0  0  0  0
   12.8954   -1.6363    3.5631 H   0  0  0  0  0  0  0  0  0  0  0  0
   11.1724   -1.3965    1.0775 H   0  0  0  0  0  0  0  0  0  0  0  0
    8.8559   -0.5122    0.6146 H   0  0  0  0  0  0  0  0  0  0  0  0
   -4.8532   -2.0346   -1.4066 H   0  0  0  0  0  0  0  0  0  0  0  0
   -7.7212   -2.3322   -0.5637 H   0  0  0  0  0  0  0  0  0  0  0  0
   -6.9648   -2.8975   -2.9527 H   0  0  0  0  0  0  0  0  0  0  0  0
   -5.7991   -4.0502   -2.2892 H   0  0  0  0  0  0  0  0  0  0  0  0
   -8.2219   -4.6778   -1.2379 H   0  0  0  0  0  0  0  0  0  0  0  0
   -7.3869   -6.3453    2.1078 H   0  0  0  0  0  0  0  0  0  0  0  0
   -6.5674   -4.9103    2.7893 H   0  0  0  0  0  0  0  0  0  0  0  0
   -5.6443   -5.9978    1.7233 H   0  0  0  0  0  0  0  0  0  0  0  0
  1  2  1  0
  2  3  1  0
  3  4  1  0
  4  5  1  0
  3  6  1  0
  6  7  1  0
  7  8  1  0
  8  9  1  0
  9 10  1  0
 10 11  1  0
 11 12  1  0
 12 13  2  0
 12 14  1  0
 14 15  1  0
 15 16  1  0
 16 17  1  0
 16 18  1  0
 14 19  1  0
 19 20  1  0
 20 21  2  0
 20 22  1  0
 22 23  1  0
 22 24  1  0
 24 25  1  0
 25 26  2  0
 25 27  1  0
 27 28  1  0
 28 29  1  0
 29 30  2  0
 30 31  1  0
 31 32  2  0
 32 33  1  0
 33 34  2  0
 27 35  1  0
 35 36  1  0
 36 37  2  0
 36 38  1  0
 38 39  2  0
 39 40  1  0
 40 41  2  0
 41 42  1  0
 42 43  1  0
 42 44  1  0
 41 45  1  0
 45 46  2  0
 10 47  1  0
 47 48  2  0
 47 49  1  0
 49 50  1  0
 50 51  1  0
 51 52  1  0
 50 53  1  0
 53 54  2  0
 53 55  1  0
 55 56  1  0
 34 29  1  0
 46 38  1  0
  1 57  1  0
  1 58  1  0
  1 59  1  0
  2 60  1  0
  2 61  1  0
  4 62  1  0
  4 63  1  0
  5 64  1  0
  5 65  1  0
  5 66  1  0
  6 67  1  0
  6 68  1  0
  7 69  1  0
  7 70  1  0
  8 71  1  0
  8 72  1  0
  9 73  1  0
  9 74  1  0
 10 75  1  1
 11 76  1  0
 14 77  1  6
 15 78  1  0
 15 79  1  0
 16 80  1  0
 17 81  1  0
 17 82  1  0
 17 83  1  0
 18 84  1  0
 18 85  1  0
 18 86  1  0
 19 87  1  0
 22 88  1  1
 23 89  1  0
 23 90  1  0
 23 91  1  0
 24 92  1  0
 27 93  1  1
 28 94  1  0
 28 95  1  0
 30 96  1  0
 31 97  1  0
 32 98  1  0
 33 99  1  0
 34100  1  0
 35101  1  0
 39102  1  0
 40103  1  0
 42104  1  0
 43105  1  0
 43106  1  0
 43107  1  0
 44108  1  0
 44109  1  0
 44110  1  0
 45111  1  0
 46112  1  0
 49113  1  0
 50114  1  1
 51115  1  0
 51116  1  0
 52117  1  0
 56118  1  0
 56119  1  0
 56120  1  0
M  END
$$$$
