@<TRIPOS>MOLECULE
*****
 76 79 0 0 0
SMALL
GASTEIGER

@<TRIPOS>ATOM
      1 C          -3.0319   -2.0229   -1.5286 C.3     1  UNL1       -0.0354
      2 C          -1.6773   -2.0229   -0.8721 C.3     1  UNL1        0.0744
      3 C          -0.7289   -2.6937   -1.8332 C.3     1  UNL1       -0.0354
      4 O          -1.7927   -2.9490    0.2027 O.3     1  UNL1       -0.3881
      5 C          -1.2110   -0.7664   -0.2827 C.3     1  UNL1        0.0764
      6 C          -2.1398   -0.3170    0.7803 C.2     1  UNL1        0.2223
      7 O          -1.7858   -0.3013    2.0094 O.2     1  UNL1       -0.2751
      8 N          -3.4374    0.1079    0.4651 N.am    1  UNL1       -0.3107
      9 C          -4.3473    0.5506    1.5335 C.3     1  UNL1        0.0369
     10 C          -5.6911    0.8566    0.9959 C.ar    1  UNL1       -0.0293
     11 C          -6.6471   -0.1352    0.9678 C.ar    1  UNL1       -0.0454
     12 C          -7.9246    0.0963    0.4619 C.ar    1  UNL1        0.0556
     13 C          -8.9602   -0.9770    0.4328 C.3     1  UNL1        0.4174
     14 F          -9.5521   -1.0796    1.6825 F       1  UNL1       -0.1659
     15 F          -8.4076   -2.2054    0.0768 F       1  UNL1       -0.1659
     16 F          -9.9277   -0.6936   -0.4879 F       1  UNL1       -0.1659
     17 C          -8.2441    1.3337   -0.0193 C.ar    1  UNL1       -0.0385
     18 C          -7.3034    2.3475   -0.0027 C.ar    1  UNL1        0.0556
     19 C          -7.6903    3.6737   -0.5370 C.3     1  UNL1        0.4174
     20 F          -9.0456    3.7920   -0.6760 F       1  UNL1       -0.1659
     21 F          -7.1264    3.9015   -1.7824 F       1  UNL1       -0.1659
     22 F          -7.2616    4.6595    0.3382 F       1  UNL1       -0.1659
     23 C          -6.0354    2.0978    0.5055 C.ar    1  UNL1       -0.0454
     24 C          -1.0617    0.4012   -1.2117 C.3     1  UNL1       -0.0349
     25 C           0.2520    1.0387   -0.7214 C.3     1  UNL1       -0.0363
     26 C           1.0542   -0.2701   -0.6323 C.3     1  UNL1        0.0115
     27 N           2.3919   -0.1276   -0.3131 N.3     1  UNL1       -0.2993
     28 C           2.7907    0.4402    0.9095 C.3     1  UNL1       -0.0003
     29 C           4.2651    0.1576    1.1345 C.3     1  UNL1       -0.0333
     30 C           5.0938    0.5545   -0.0714 C.3     1  UNL1       -0.0135
     31 C           6.5060    0.1376    0.0862 C.ar    1  UNL1       -0.0434
     32 C           6.8181   -1.1953   -0.0124 C.ar    1  UNL1       -0.0583
     33 C           8.1052   -1.6696    0.1261 C.ar    1  UNL1       -0.0607
     34 C           9.1221   -0.7573    0.3750 C.ar    1  UNL1       -0.0478
     35 C           8.8503    0.5889    0.4811 C.ar    1  UNL1        0.0591
     36 C           9.8988    1.5443    0.7407 C.2     1  UNL1        0.3368
     37 O          11.0827    1.1226    0.8714 O.2     1  UNL1       -0.2451
     38 O           9.6126    2.9027    0.8447 O.3     1  UNL1       -0.4771
     39 C           7.5476    1.0360    0.3374 C.ar    1  UNL1       -0.0443
     40 C           4.5014    0.0927   -1.3552 C.3     1  UNL1       -0.0333
     41 C           3.3662   -0.8561   -1.0431 C.3     1  UNL1       -0.0003
     42 C           0.1847   -1.0338    0.3061 C.3     1  UNL1       -0.0207
     43 H          -3.0705   -2.9796   -2.1478 H       1  UNL1        0.0257
     44 H          -3.8548   -2.1747   -0.8006 H       1  UNL1        0.0257
     45 H          -3.1870   -1.2349   -2.2683 H       1  UNL1        0.0257
     46 H          -1.2570   -3.6507   -2.1368 H       1  UNL1        0.0257
     47 H          -0.5797   -2.1518   -2.7701 H       1  UNL1        0.0257
     48 H           0.2011   -3.0501   -1.3477 H       1  UNL1        0.0257
     49 H          -1.9482   -2.4741    1.0604 H       1  UNL1        0.2102
     50 H          -3.8349    0.1545   -0.4921 H       1  UNL1        0.1490
     51 H          -4.4408   -0.2739    2.2514 H       1  UNL1        0.0512
     52 H          -3.9232    1.4711    1.9757 H       1  UNL1        0.0512
     53 H          -6.4620   -1.1356    1.3326 H       1  UNL1        0.0626
     54 H          -9.2393    1.5576   -0.4273 H       1  UNL1        0.0629
     55 H          -5.3340    2.9047    0.5024 H       1  UNL1        0.0626
     56 H          -0.9331    0.1529   -2.2585 H       1  UNL1        0.0277
     57 H          -1.8167    1.1891   -1.0988 H       1  UNL1        0.0277
     58 H           0.0856    1.4553    0.2809 H       1  UNL1        0.0281
     59 H           0.6682    1.7340   -1.4467 H       1  UNL1        0.0281
     60 H           0.9674   -0.7132   -1.6479 H       1  UNL1        0.0463
     61 H           2.2317   -0.0207    1.7477 H       1  UNL1        0.0427
     62 H           2.6725    1.5391    0.9919 H       1  UNL1        0.0427
     63 H           4.6383    0.7503    1.9952 H       1  UNL1        0.0283
     64 H           4.4532   -0.9021    1.3278 H       1  UNL1        0.0283
     65 H           5.1240    1.6868   -0.0819 H       1  UNL1        0.0350
     66 H           6.0409   -1.9154   -0.2062 H       1  UNL1        0.0620
     67 H           8.2907   -2.7400    0.0372 H       1  UNL1        0.0618
     68 H          10.1295   -1.1711    0.4785 H       1  UNL1        0.0626
     69 H          10.2730    3.5177    1.2622 H       1  UNL1        0.2954
     70 H           7.2961    2.1043    0.4167 H       1  UNL1        0.0628
     71 H           5.2334   -0.3430   -2.0599 H       1  UNL1        0.0283
     72 H           4.0324    0.9518   -1.9037 H       1  UNL1        0.0283
     73 H           3.6772   -1.7128   -0.4003 H       1  UNL1        0.0427
     74 H           2.8703   -1.2213   -1.9808 H       1  UNL1        0.0427
     75 H           0.1759   -0.5724    1.3169 H       1  UNL1        0.0291
     76 H           0.4075   -2.0922    0.4145 H       1  UNL1        0.0291
@<TRIPOS>BOND
     1     1     2    1
     2     2     3    1
     3     2     4    1
     4     5     2    1
     5     5     6    1
     6     6     7    2
     7     6     8   am
     8     8     9    1
     9     9    10    1
    10    10    11   ar
    11    11    12   ar
    12    12    13    1
    13    13    14    1
    14    13    15    1
    15    13    16    1
    16    12    17   ar
    17    17    18   ar
    18    18    19    1
    19    19    20    1
    20    19    21    1
    21    19    22    1
    22    18    23   ar
    23     5    24    1
    24    24    25    1
    25    25    26    1
    26    26    27    1
    27    27    28    1
    28    28    29    1
    29    29    30    1
    30    30    31    1
    31    31    32   ar
    32    32    33   ar
    33    33    34   ar
    34    34    35   ar
    35    35    36    1
    36    36    37    2
    37    36    38    1
    38    35    39   ar
    39    30    40    1
    40    40    41    1
    41    26    42    1
    42    42     5    1
    43    23    10   ar
    44    41    27    1
    45    39    31   ar
    46     1    43    1
    47     1    44    1
    48     1    45    1
    49     3    46    1
    50     3    47    1
    51     3    48    1
    52     4    49    1
    53     8    50    1
    54     9    51    1
    55     9    52    1
    56    11    53    1
    57    17    54    1
    58    23    55    1
    59    24    56    1
    60    24    57    1
    61    25    58    1
    62    25    59    1
    63    26    60    1
    64    28    61    1
    65    28    62    1
    66    29    63    1
    67    29    64    1
    68    30    65    1
    69    32    66    1
    70    33    67    1
    71    34    68    1
    72    38    69    1
    73    39    70    1
    74    40    71    1
    75    40    72    1
    76    41    73    1
    77    41    74    1
    78    42    75    1
    79    42    76    1
