
     RDKit          3D

 76 79  0  0  0  0  0  0  0  0999 V2000
   -3.0319   -2.0229   -1.5286 C   0  0  0  0  0  0  0  0  0  0  0  0
   -1.6773   -2.0229   -0.8721 C   0  0  0  0  0  0  0  0  0  0  0  0
   -0.7289   -2.6937   -1.8332 C   0  0  0  0  0  0  0  0  0  0  0  0
   -1.7927   -2.9490    0.2027 O   0  0  0  0  0  0  0  0  0  0  0  0
   -1.2110   -0.7664   -0.2827 C   0  0  2  0  0  0  0  0  0  0  0  0
   -2.1398   -0.3170    0.7803 C   0  0  0  0  0  0  0  0  0  0  0  0
   -1.7858   -0.3013    2.0094 O   0  0  0  0  0  0  0  0  0  0  0  0
   -3.4374    0.1079    0.4651 N   0  0  0  0  0  0  0  0  0  0  0  0
   -4.3473    0.5506    1.5335 C   0  0  0  0  0  0  0  0  0  0  0  0
   -5.6911    0.8566    0.9959 C   0  0  0  0  0  0  0  0  0  0  0  0
   -6.6471   -0.1352    0.9678 C   0  0  0  0  0  0  0  0  0  0  0  0
   -7.9246    0.0963    0.4619 C   0  0  0  0  0  0  0  0  0  0  0  0
   -8.9602   -0.9770    0.4328 C   0  0  0  0  0  0  0  0  0  0  0  0
   -9.5521   -1.0796    1.6825 F   0  0  0  0  0  0  0  0  0  0  0  0
   -8.4076   -2.2054    0.0768 F   0  0  0  0  0  0  0  0  0  0  0  0
   -9.9277   -0.6936   -0.4879 F   0  0  0  0  0  0  0  0  0  0  0  0
   -8.2441    1.3337   -0.0193 C   0  0  0  0  0  0  0  0  0  0  0  0
   -7.3034    2.3475   -0.0027 C   0  0  0  0  0  0  0  0  0  0  0  0
   -7.6903    3.6737   -0.5370 C   0  0  0  0  0  0  0  0  0  0  0  0
   -9.0456    3.7920   -0.6760 F   0  0  0  0  0  0  0  0  0  0  0  0
   -7.1264    3.9015   -1.7824 F   0  0  0  0  0  0  0  0  0  0  0  0
   -7.2616    4.6595    0.3382 F   0  0  0  0  0  0  0  0  0  0  0  0
   -6.0354    2.0978    0.5055 C   0  0  0  0  0  0  0  0  0  0  0  0
   -1.0617    0.4012   -1.2117 C   0  0  0  0  0  0  0  0  0  0  0  0
    0.2520    1.0387   -0.7214 C   0  0  0  0  0  0  0  0  0  0  0  0
    1.0542   -0.2701   -0.6323 C   0  0  1  0  0  0  0  0  0  0  0  0
    2.3919   -0.1276   -0.3131 N   0  0  0  0  0  0  0  0  0  0  0  0
    2.7907    0.4402    0.9095 C   0  0  0  0  0  0  0  0  0  0  0  0
    4.2651    0.1576    1.1345 C   0  0  0  0  0  0  0  0  0  0  0  0
    5.0938    0.5545   -0.0714 C   0  0  0  0  0  0  0  0  0  0  0  0
    6.5060    0.1376    0.0862 C   0  0  0  0  0  0  0  0  0  0  0  0
    6.8181   -1.1953   -0.0124 C   0  0  0  0  0  0  0  0  0  0  0  0
    8.1052   -1.6696    0.1261 C   0  0  0  0  0  0  0  0  0  0  0  0
    9.1221   -0.7573    0.3750 C   0  0  0  0  0  0  0  0  0  0  0  0
    8.8503    0.5889    0.4811 C   0  0  0  0  0  0  0  0  0  0  0  0
    9.8988    1.5443    0.7407 C   0  0  0  0  0  0  0  0  0  0  0  0
   11.0827    1.1226    0.8714 O   0  0  0  0  0  0  0  0  0  0  0  0
    9.6126    2.9027    0.8447 O   0  0  0  0  0  0  0  0  0  0  0  0
    7.5476    1.0360    0.3374 C   0  0  0  0  0  0  0  0  0  0  0  0
    4.5014    0.0927   -1.3552 C   0  0  0  0  0  0  0  0  0  0  0  0
    3.3662   -0.8561   -1.0431 C   0  0  0  0  0  0  0  0  0  0  0  0
    0.1847   -1.0338    0.3061 C   0  0  0  0  0  0  0  0  0  0  0  0
   -3.0705   -2.9796   -2.1478 H   0  0  0  0  0  0  0  0  0  0  0  0
   -3.8548   -2.1747   -0.8006 H   0  0  0  0  0  0  0  0  0  0  0  0
   -3.1870   -1.2349   -2.2683 H   0  0  0  0  0  0  0  0  0  0  0  0
   -1.2570   -3.6507   -2.1368 H   0  0  0  0  0  0  0  0  0  0  0  0
   -0.5797   -2.1518   -2.7701 H   0  0  0  0  0  0  0  0  0  0  0  0
    0.2011   -3.0501   -1.3477 H   0  0  0  0  0  0  0  0  0  0  0  0
   -1.9482   -2.4741    1.0604 H   0  0  0  0  0  0  0  0  0  0  0  0
   -3.8349    0.1545   -0.4921 H   0  0  0  0  0  0  0  0  0  0  0  0
   -4.4408   -0.2739    2.2514 H   0  0  0  0  0  0  0  0  0  0  0  0
   -3.9232    1.4711    1.9757 H   0  0  0  0  0  0  0  0  0  0  0  0
   -6.4620   -1.1356    1.3326 H   0  0  0  0  0  0  0  0  0  0  0  0
   -9.2393    1.5576   -0.4273 H   0  0  0  0  0  0  0  0  0  0  0  0
   -5.3340    2.9047    0.5024 H   0  0  0  0  0  0  0  0  0  0  0  0
   -0.9331    0.1529   -2.2585 H   0  0  0  0  0  0  0  0  0  0  0  0
   -1.8167    1.1891   -1.0988 H   0  0  0  0  0  0  0  0  0  0  0  0
    0.0856    1.4553    0.2809 H   0  0  0  0  0  0  0  0  0  0  0  0
    0.6682    1.7340   -1.4467 H   0  0  0  0  0  0  0  0  0  0  0  0
    0.9674   -0.7132   -1.6479 H   0  0  0  0  0  0  0  0  0  0  0  0
    2.2317   -0.0207    1.7477 H   0  0  0  0  0  0  0  0  0  0  0  0
    2.6725    1.5391    0.9919 H   0  0  0  0  0  0  0  0  0  0  0  0
    4.6383    0.7503    1.9952 H   0  0  0  0  0  0  0  0  0  0  0  0
    4.4532   -0.9021    1.3278 H   0  0  0  0  0  0  0  0  0  0  0  0
    5.1240    1.6868   -0.0819 H   0  0  0  0  0  0  0  0  0  0  0  0
    6.0409   -1.9154   -0.2062 H   0  0  0  0  0  0  0  0  0  0  0  0
    8.2907   -2.7400    0.0372 H   0  0  0  0  0  0  0  0  0  0  0  0
   10.1295   -1.1711    0.4785 H   0  0  0  0  0  0  0  0  0  0  0  0
   10.2730    3.5177    1.2622 H   0  0  0  0  0  0  0  0  0  0  0  0
    7.2961    2.1043    0.4167 H   0  0  0  0  0  0  0  0  0  0  0  0
    5.2334   -0.3430   -2.0599 H   0  0  0  0  0  0  0  0  0  0  0  0
    4.0324    0.9518   -1.9037 H   0  0  0  0  0  0  0  0  0  0  0  0
    3.6772   -1.7128   -0.4003 H   0  0  0  0  0  0  0  0  0  0  0  0
    2.8703   -1.2213   -1.9808 H   0  0  0  0  0  0  0  0  0  0  0  0
    0.1759   -0.5724    1.3169 H   0  0  0  0  0  0  0  0  0  0  0  0
    0.4075   -2.0922    0.4145 H   0  0  0  0  0  0  0  0  0  0  0  0
  1  2  1  0
  2  3  1  0
  2  4  1  0
  5  2  1  6
  5  6  1  0
  6  7  2  0
  6  8  1  0
  8  9  1  0
  9 10  1  0
 10 11  2  0
 11 12  1  0
 12 13  1  0
 13 14  1  0
 13 15  1  0
 13 16  1  0
 12 17  2  0
 17 18  1  0
 18 19  1  0
 19 20  1  0
 19 21  1  0
 19 22  1  0
 18 23  2  0
  5 24  1  0
 24 25  1  0
 25 26  1  0
 26 27  1  0
 27 28  1  0
 28 29  1  0
 29 30  1  0
 30 31  1  0
 31 32  2  0
 32 33  1  0
 33 34  2  0
 34 35  1  0
 35 36  1  0
 36 37  2  0
 36 38  1  0
 35 39  2  0
 30 40  1  0
 40 41  1  0
 26 42  1  0
 42  5  1  0
 23 10  1  0
 41 27  1  0
 39 31  1  0
  1 43  1  0
  1 44  1  0
  1 45  1  0
  3 46  1  0
  3 47  1  0
  3 48  1  0
  4 49  1  0
  8 50  1  0
  9 51  1  0
  9 52  1  0
 11 53  1  0
 17 54  1  0
 23 55  1  0
 24 56  1  0
 24 57  1  0
 25 58  1  0
 25 59  1  0
 26 60  1  6
 28 61  1  0
 28 62  1  0
 29 63  1  0
 29 64  1  0
 30 65  1  0
 32 66  1  0
 33 67  1  0
 34 68  1  0
 38 69  1  0
 39 70  1  0
 40 71  1  0
 40 72  1  0
 41 73  1  0
 41 74  1  0
 42 75  1  0
 42 76  1  0
M  END
$$$$
