@<TRIPOS>MOLECULE
*****
 39 41 0 0 0
SMALL
GASTEIGER

@<TRIPOS>ATOM
      1 C          -1.5748    1.9792    0.9083 C.3     1  UNL1       -0.0443
      2 C          -2.1368    1.1789   -0.2287 C.3     1  UNL1        0.0467
      3 C          -3.6373    1.1120   -0.1164 C.3     1  UNL1        0.0660
      4 O          -4.1844    0.2173   -1.0475 O.3     1  UNL1       -0.3764
      5 C          -3.7287   -1.0831   -0.7542 C.3     1  UNL1        0.0635
      6 C          -2.2703   -1.1176   -1.1444 C.3     1  UNL1        0.0386
      7 N          -1.5576   -0.1438   -0.3560 N.pl3   1  UNL1       -0.2937
      8 C          -0.3132   -0.4194    0.2743 C.ar    1  UNL1        0.2016
      9 N           0.8500   -0.0450   -0.2742 N.ar    1  UNL1       -0.2154
     10 C           2.0639   -0.3065    0.3034 C.ar    1  UNL1        0.0825
     11 C           3.2808    0.1379   -0.3453 C.ar    1  UNL1        0.0387
     12 C           3.1462    0.8656   -1.5363 C.ar    1  UNL1       -0.0316
     13 C           4.2693    1.3116   -2.1949 C.ar    1  UNL1        0.0284
     14 N           5.5196    1.0734   -1.7335 N.ar    1  UNL1       -0.2604
     15 C           5.6789    0.3832   -0.6020 C.ar    1  UNL1        0.0634
     16 C           4.5603   -0.0737    0.0741 C.ar    1  UNL1        0.1505
     17 F           4.7882   -0.7671    1.2033 F       1  UNL1       -0.2032
     18 C           2.0112   -0.9823    1.4894 C.ar    1  UNL1        0.0292
     19 C           0.8056   -1.3912    2.0952 C.ar    1  UNL1        0.2555
     20 O           0.8101   -2.0121    3.1899 O.2     1  UNL1       -0.2675
     21 N          -0.3316   -1.0817    1.4403 N.ar    1  UNL1       -0.2839
     22 C          -1.5908   -1.4804    2.0131 C.3     1  UNL1        0.0178
     23 H          -1.8712    3.0515    0.6987 H       1  UNL1        0.0248
     24 H          -0.4614    1.9558    0.8531 H       1  UNL1        0.0248
     25 H          -1.9783    1.6814    1.8725 H       1  UNL1        0.0248
     26 H          -1.9241    1.6855   -1.2066 H       1  UNL1        0.0520
     27 H          -4.0028    0.9728    0.9012 H       1  UNL1        0.0578
     28 H          -4.0191    2.1219   -0.4453 H       1  UNL1        0.0578
     29 H          -3.9084   -1.2173    0.3301 H       1  UNL1        0.0575
     30 H          -4.3319   -1.8055   -1.3576 H       1  UNL1        0.0575
     31 H          -2.2381   -0.7387   -2.2087 H       1  UNL1        0.0487
     32 H          -1.8334   -2.1339   -1.0889 H       1  UNL1        0.0487
     33 H           2.1475    1.0513   -1.8960 H       1  UNL1        0.0640
     34 H           4.1705    1.8822   -3.1271 H       1  UNL1        0.0830
     35 H           6.6868    0.2003   -0.2447 H       1  UNL1        0.0859
     36 H           2.9248   -1.2359    2.0271 H       1  UNL1        0.0693
     37 H          -2.3379   -0.6655    2.0938 H       1  UNL1        0.0458
     38 H          -2.0391   -2.3318    1.4597 H       1  UNL1        0.0458
     39 H          -1.4427   -1.8294    3.0773 H       1  UNL1        0.0458
@<TRIPOS>BOND
     1     1     2    1
     2     2     3    1
     3     3     4    1
     4     4     5    1
     5     5     6    1
     6     6     7    1
     7     7     8    1
     8     8     9   ar
     9     9    10   ar
    10    10    11    1
    11    11    12   ar
    12    12    13   ar
    13    13    14   ar
    14    14    15   ar
    15    15    16   ar
    16    16    17    1
    17    10    18   ar
    18    18    19   ar
    19    19    20    2
    20    19    21   ar
    21    21    22    1
    22     7     2    1
    23    21     8   ar
    24    16    11   ar
    25     1    23    1
    26     1    24    1
    27     1    25    1
    28     2    26    1
    29     3    27    1
    30     3    28    1
    31     5    29    1
    32     5    30    1
    33     6    31    1
    34     6    32    1
    35    12    33    1
    36    13    34    1
    37    15    35    1
    38    18    36    1
    39    22    37    1
    40    22    38    1
    41    22    39    1
