
     RDKit          3D

 39 41  0  0  0  0  0  0  0  0999 V2000
   -1.5748    1.9792    0.9083 C   0  0  0  0  0  0  0  0  0  0  0  0
   -2.1368    1.1789   -0.2287 C   0  0  2  0  0  0  0  0  0  0  0  0
   -3.6373    1.1120   -0.1164 C   0  0  0  0  0  0  0  0  0  0  0  0
   -4.1844    0.2173   -1.0475 O   0  0  0  0  0  0  0  0  0  0  0  0
   -3.7287   -1.0831   -0.7542 C   0  0  0  0  0  0  0  0  0  0  0  0
   -2.2703   -1.1176   -1.1444 C   0  0  0  0  0  0  0  0  0  0  0  0
   -1.5576   -0.1438   -0.3560 N   0  0  0  0  0  0  0  0  0  0  0  0
   -0.3132   -0.4194    0.2743 C   0  0  0  0  0  0  0  0  0  0  0  0
    0.8500   -0.0450   -0.2742 N   0  0  0  0  0  0  0  0  0  0  0  0
    2.0639   -0.3065    0.3034 C   0  0  0  0  0  0  0  0  0  0  0  0
    3.2808    0.1379   -0.3453 C   0  0  0  0  0  0  0  0  0  0  0  0
    3.1462    0.8656   -1.5363 C   0  0  0  0  0  0  0  0  0  0  0  0
    4.2693    1.3116   -2.1949 C   0  0  0  0  0  0  0  0  0  0  0  0
    5.5196    1.0734   -1.7335 N   0  0  0  0  0  0  0  0  0  0  0  0
    5.6789    0.3832   -0.6020 C   0  0  0  0  0  0  0  0  0  0  0  0
    4.5603   -0.0737    0.0741 C   0  0  0  0  0  0  0  0  0  0  0  0
    4.7882   -0.7671    1.2033 F   0  0  0  0  0  0  0  0  0  0  0  0
    2.0112   -0.9823    1.4894 C   0  0  0  0  0  0  0  0  0  0  0  0
    0.8056   -1.3912    2.0952 C   0  0  0  0  0  0  0  0  0  0  0  0
    0.8101   -2.0121    3.1899 O   0  0  0  0  0  0  0  0  0  0  0  0
   -0.3316   -1.0817    1.4403 N   0  0  0  0  0  0  0  0  0  0  0  0
   -1.5908   -1.4804    2.0131 C   0  0  0  0  0  0  0  0  0  0  0  0
   -1.8712    3.0515    0.6987 H   0  0  0  0  0  0  0  0  0  0  0  0
   -0.4614    1.9558    0.8531 H   0  0  0  0  0  0  0  0  0  0  0  0
   -1.9783    1.6814    1.8725 H   0  0  0  0  0  0  0  0  0  0  0  0
   -1.9241    1.6855   -1.2066 H   0  0  0  0  0  0  0  0  0  0  0  0
   -4.0028    0.9728    0.9012 H   0  0  0  0  0  0  0  0  0  0  0  0
   -4.0191    2.1219   -0.4453 H   0  0  0  0  0  0  0  0  0  0  0  0
   -3.9084   -1.2173    0.3301 H   0  0  0  0  0  0  0  0  0  0  0  0
   -4.3319   -1.8055   -1.3576 H   0  0  0  0  0  0  0  0  0  0  0  0
   -2.2381   -0.7387   -2.2087 H   0  0  0  0  0  0  0  0  0  0  0  0
   -1.8334   -2.1339   -1.0889 H   0  0  0  0  0  0  0  0  0  0  0  0
    2.1475    1.0513   -1.8960 H   0  0  0  0  0  0  0  0  0  0  0  0
    4.1705    1.8822   -3.1271 H   0  0  0  0  0  0  0  0  0  0  0  0
    6.6868    0.2003   -0.2447 H   0  0  0  0  0  0  0  0  0  0  0  0
    2.9248   -1.2359    2.0271 H   0  0  0  0  0  0  0  0  0  0  0  0
   -2.3379   -0.6655    2.0938 H   0  0  0  0  0  0  0  0  0  0  0  0
   -2.0391   -2.3318    1.4597 H   0  0  0  0  0  0  0  0  0  0  0  0
   -1.4427   -1.8294    3.0773 H   0  0  0  0  0  0  0  0  0  0  0  0
  1  2  1  0
  2  3  1  0
  3  4  1  0
  4  5  1  0
  5  6  1  0
  6  7  1  0
  7  8  1  0
  8  9  2  0
  9 10  1  0
 10 11  1  0
 11 12  2  0
 12 13  1  0
 13 14  2  0
 14 15  1  0
 15 16  2  0
 16 17  1  0
 10 18  2  0
 18 19  1  0
 19 20  2  0
 19 21  1  0
 21 22  1  0
  7  2  1  0
 21  8  1  0
 16 11  1  0
  1 23  1  0
  1 24  1  0
  1 25  1  0
  2 26  1  6
  3 27  1  0
  3 28  1  0
  5 29  1  0
  5 30  1  0
  6 31  1  0
  6 32  1  0
 12 33  1  0
 13 34  1  0
 15 35  1  0
 18 36  1  0
 22 37  1  0
 22 38  1  0
 22 39  1  0
M  END
$$$$
