@<TRIPOS>MOLECULE
*****
 63 67 0 0 0
SMALL
GASTEIGER

@<TRIPOS>ATOM
      1 C           5.6832   -1.5738    0.1275 C.3     1  UNL1       -0.0425
      2 C           5.0209   -0.2763    0.5351 C.3     1  UNL1        0.0444
      3 N           4.2810    0.3146   -0.5300 N.pl3   1  UNL1       -0.3225
      4 C           3.1595   -0.2525   -1.1927 C.ar    1  UNL1        0.1197
      5 C           1.8805    0.1020   -0.7975 C.ar    1  UNL1       -0.0136
      6 C           0.7363   -0.3931   -1.3840 C.ar    1  UNL1       -0.0045
      7 C          -0.6049   -0.0008   -0.9724 C.ar    1  UNL1        0.0471
      8 S          -1.2029    1.7200   -0.9746 S.2     1  UNL1       -0.0712
      9 C          -2.8654    1.2576   -0.3574 C.ar    1  UNL1        0.0827
     10 C          -3.8451    2.3941   -0.1588 C.3     1  UNL1        0.0101
     11 C          -4.8434    2.3780   -1.2880 C.3     1  UNL1       -0.0314
     12 C          -6.0495    1.5373   -1.0519 C.3     1  UNL1       -0.0008
     13 N          -6.5871    1.7842    0.2722 N.3     1  UNL1       -0.3053
     14 C          -7.8931    1.1902    0.4464 C.3     1  UNL1       -0.0128
     15 C          -5.6042    1.2658    1.2134 C.3     1  UNL1       -0.0008
     16 C          -4.4353    2.2318    1.1918 C.3     1  UNL1       -0.0314
     17 N          -2.7548    0.0894   -0.2556 N.ar    1  UNL1       -0.2431
     18 C          -1.7006   -0.6476   -0.5244 C.ar    1  UNL1        0.0862
     19 C          -1.7235   -2.1191   -0.3376 C.ar    1  UNL1        0.0016
     20 C          -0.8683   -2.6252    0.6156 C.ar    1  UNL1       -0.0498
     21 C          -0.8344   -3.9861    0.8530 C.ar    1  UNL1       -0.0258
     22 C          -1.6649   -4.7902    0.1201 C.ar    1  UNL1        0.1234
     23 F          -1.6223   -6.1320    0.3644 F       1  UNL1       -0.2055
     24 C          -2.5393   -4.3120   -0.8486 C.ar    1  UNL1       -0.0258
     25 C          -2.5533   -2.9390   -1.0674 C.ar    1  UNL1       -0.0498
     26 C           0.8700   -1.2798   -2.4071 C.ar    1  UNL1       -0.0352
     27 C           2.1467   -1.6308   -2.7977 C.ar    1  UNL1        0.0303
     28 N           3.2560   -1.1295   -2.2054 N.ar    1  UNL1       -0.2405
     29 C           6.0550    0.6687    1.0014 C.ar    1  UNL1       -0.0275
     30 C           6.3122    0.8993    2.3392 C.ar    1  UNL1       -0.0568
     31 C           7.2849    1.7956    2.7231 C.ar    1  UNL1       -0.0614
     32 C           8.0355    2.4936    1.7947 C.ar    1  UNL1       -0.0617
     33 C           7.7940    2.2771    0.4564 C.ar    1  UNL1       -0.0614
     34 C           6.8117    1.3718    0.0879 C.ar    1  UNL1       -0.0568
     35 H           5.0594   -2.4551    0.2982 H       1  UNL1        0.0251
     36 H           6.0223   -1.4711   -0.9252 H       1  UNL1        0.0251
     37 H           6.5929   -1.6729    0.7528 H       1  UNL1        0.0251
     38 H           4.2934   -0.5259    1.3478 H       1  UNL1        0.0545
     39 H           4.5756    1.2659   -0.8779 H       1  UNL1        0.1480
     40 H           1.7611    0.8087    0.0196 H       1  UNL1        0.0658
     41 H          -3.3403    3.3868   -0.2217 H       1  UNL1        0.0370
     42 H          -4.3589    2.0214   -2.2301 H       1  UNL1        0.0284
     43 H          -5.1875    3.4219   -1.4803 H       1  UNL1        0.0284
     44 H          -5.8827    0.4549   -1.1656 H       1  UNL1        0.0427
     45 H          -6.8307    1.8834   -1.7842 H       1  UNL1        0.0427
     46 H          -8.4560    1.7705    1.1844 H       1  UNL1        0.0391
     47 H          -8.3849    1.1289   -0.5442 H       1  UNL1        0.0391
     48 H          -7.7199    0.1568    0.8311 H       1  UNL1        0.0391
     49 H          -5.2797    0.2818    0.7879 H       1  UNL1        0.0427
     50 H          -5.9989    1.2033    2.2259 H       1  UNL1        0.0427
     51 H          -4.7828    3.1607    1.6621 H       1  UNL1        0.0284
     52 H          -3.6485    1.8175    1.8783 H       1  UNL1        0.0284
     53 H          -0.2090   -1.9818    1.1973 H       1  UNL1        0.0625
     54 H          -0.1633   -4.3583    1.5977 H       1  UNL1        0.0646
     55 H          -3.1868   -4.9620   -1.4167 H       1  UNL1        0.0646
     56 H          -3.2090   -2.4948   -1.8069 H       1  UNL1        0.0625
     57 H          -0.0258   -1.6698   -2.8683 H       1  UNL1        0.0639
     58 H           2.2797   -2.3446   -3.6210 H       1  UNL1        0.0830
     59 H           5.7139    0.3431    3.0424 H       1  UNL1        0.0621
     60 H           7.4654    1.9567    3.7628 H       1  UNL1        0.0618
     61 H           8.8045    3.2027    2.1032 H       1  UNL1        0.0618
     62 H           8.3529    2.7976   -0.3105 H       1  UNL1        0.0618
     63 H           6.6088    1.1904   -0.9541 H       1  UNL1        0.0621
@<TRIPOS>BOND
     1     1     2    1
     2     2     3    1
     3     3     4    1
     4     4     5   ar
     5     5     6   ar
     6     6     7    1
     7     7     8   ar
     8     8     9   ar
     9     9    10    1
    10    10    11    1
    11    11    12    1
    12    12    13    1
    13    13    14    1
    14    13    15    1
    15    15    16    1
    16     9    17   ar
    17    17    18   ar
    18    18    19    1
    19    19    20   ar
    20    20    21   ar
    21    21    22   ar
    22    22    23    1
    23    22    24   ar
    24    24    25   ar
    25     6    26   ar
    26    26    27   ar
    27    27    28   ar
    28     2    29    1
    29    29    30   ar
    30    30    31   ar
    31    31    32   ar
    32    32    33   ar
    33    33    34   ar
    34    28     4   ar
    35    34    29   ar
    36    18     7   ar
    37    25    19   ar
    38    16    10    1
    39     1    35    1
    40     1    36    1
    41     1    37    1
    42     2    38    1
    43     3    39    1
    44     5    40    1
    45    10    41    1
    46    11    42    1
    47    11    43    1
    48    12    44    1
    49    12    45    1
    50    14    46    1
    51    14    47    1
    52    14    48    1
    53    15    49    1
    54    15    50    1
    55    16    51    1
    56    16    52    1
    57    20    53    1
    58    21    54    1
    59    24    55    1
    60    25    56    1
    61    26    57    1
    62    27    58    1
    63    30    59    1
    64    31    60    1
    65    32    61    1
    66    33    62    1
    67    34    63    1
