
     RDKit          3D

 63 67  0  0  0  0  0  0  0  0999 V2000
    5.6832   -1.5738    0.1275 C   0  0  0  0  0  0  0  0  0  0  0  0
    5.0209   -0.2763    0.5351 C   0  0  2  0  0  0  0  0  0  0  0  0
    4.2810    0.3146   -0.5300 N   0  0  0  0  0  0  0  0  0  0  0  0
    3.1595   -0.2525   -1.1927 C   0  0  0  0  0  0  0  0  0  0  0  0
    1.8805    0.1020   -0.7975 C   0  0  0  0  0  0  0  0  0  0  0  0
    0.7363   -0.3931   -1.3840 C   0  0  0  0  0  0  0  0  0  0  0  0
   -0.6049   -0.0008   -0.9724 C   0  0  0  0  0  0  0  0  0  0  0  0
   -1.2029    1.7200   -0.9746 S   0  0  0  0  0  0  0  0  0  0  0  0
   -2.8654    1.2576   -0.3574 C   0  0  0  0  0  0  0  0  0  0  0  0
   -3.8451    2.3941   -0.1588 C   0  0  0  0  0  0  0  0  0  0  0  0
   -4.8434    2.3780   -1.2880 C   0  0  0  0  0  0  0  0  0  0  0  0
   -6.0495    1.5373   -1.0519 C   0  0  0  0  0  0  0  0  0  0  0  0
   -6.5871    1.7842    0.2722 N   0  0  0  0  0  0  0  0  0  0  0  0
   -7.8931    1.1902    0.4464 C   0  0  0  0  0  0  0  0  0  0  0  0
   -5.6042    1.2658    1.2134 C   0  0  0  0  0  0  0  0  0  0  0  0
   -4.4353    2.2318    1.1918 C   0  0  0  0  0  0  0  0  0  0  0  0
   -2.7548    0.0894   -0.2556 N   0  0  0  0  0  0  0  0  0  0  0  0
   -1.7006   -0.6476   -0.5244 C   0  0  0  0  0  0  0  0  0  0  0  0
   -1.7235   -2.1191   -0.3376 C   0  0  0  0  0  0  0  0  0  0  0  0
   -0.8683   -2.6252    0.6156 C   0  0  0  0  0  0  0  0  0  0  0  0
   -0.8344   -3.9861    0.8530 C   0  0  0  0  0  0  0  0  0  0  0  0
   -1.6649   -4.7902    0.1201 C   0  0  0  0  0  0  0  0  0  0  0  0
   -1.6223   -6.1320    0.3644 F   0  0  0  0  0  0  0  0  0  0  0  0
   -2.5393   -4.3120   -0.8486 C   0  0  0  0  0  0  0  0  0  0  0  0
   -2.5533   -2.9390   -1.0674 C   0  0  0  0  0  0  0  0  0  0  0  0
    0.8700   -1.2798   -2.4071 C   0  0  0  0  0  0  0  0  0  0  0  0
    2.1467   -1.6308   -2.7977 C   0  0  0  0  0  0  0  0  0  0  0  0
    3.2560   -1.1295   -2.2054 N   0  0  0  0  0  0  0  0  0  0  0  0
    6.0550    0.6687    1.0014 C   0  0  0  0  0  0  0  0  0  0  0  0
    6.3122    0.8993    2.3392 C   0  0  0  0  0  0  0  0  0  0  0  0
    7.2849    1.7956    2.7231 C   0  0  0  0  0  0  0  0  0  0  0  0
    8.0355    2.4936    1.7947 C   0  0  0  0  0  0  0  0  0  0  0  0
    7.7940    2.2771    0.4564 C   0  0  0  0  0  0  0  0  0  0  0  0
    6.8117    1.3718    0.0879 C   0  0  0  0  0  0  0  0  0  0  0  0
    5.0594   -2.4551    0.2982 H   0  0  0  0  0  0  0  0  0  0  0  0
    6.0223   -1.4711   -0.9252 H   0  0  0  0  0  0  0  0  0  0  0  0
    6.5929   -1.6729    0.7528 H   0  0  0  0  0  0  0  0  0  0  0  0
    4.2934   -0.5259    1.3478 H   0  0  0  0  0  0  0  0  0  0  0  0
    4.5756    1.2659   -0.8779 H   0  0  0  0  0  0  0  0  0  0  0  0
    1.7611    0.8087    0.0196 H   0  0  0  0  0  0  0  0  0  0  0  0
   -3.3403    3.3868   -0.2217 H   0  0  0  0  0  0  0  0  0  0  0  0
   -4.3589    2.0214   -2.2301 H   0  0  0  0  0  0  0  0  0  0  0  0
   -5.1875    3.4219   -1.4803 H   0  0  0  0  0  0  0  0  0  0  0  0
   -5.8827    0.4549   -1.1656 H   0  0  0  0  0  0  0  0  0  0  0  0
   -6.8307    1.8834   -1.7842 H   0  0  0  0  0  0  0  0  0  0  0  0
   -8.4560    1.7705    1.1844 H   0  0  0  0  0  0  0  0  0  0  0  0
   -8.3849    1.1289   -0.5442 H   0  0  0  0  0  0  0  0  0  0  0  0
   -7.7199    0.1568    0.8311 H   0  0  0  0  0  0  0  0  0  0  0  0
   -5.2797    0.2818    0.7879 H   0  0  0  0  0  0  0  0  0  0  0  0
   -5.9989    1.2033    2.2259 H   0  0  0  0  0  0  0  0  0  0  0  0
   -4.7828    3.1607    1.6621 H   0  0  0  0  0  0  0  0  0  0  0  0
   -3.6485    1.8175    1.8783 H   0  0  0  0  0  0  0  0  0  0  0  0
   -0.2090   -1.9818    1.1973 H   0  0  0  0  0  0  0  0  0  0  0  0
   -0.1633   -4.3583    1.5977 H   0  0  0  0  0  0  0  0  0  0  0  0
   -3.1868   -4.9620   -1.4167 H   0  0  0  0  0  0  0  0  0  0  0  0
   -3.2090   -2.4948   -1.8069 H   0  0  0  0  0  0  0  0  0  0  0  0
   -0.0258   -1.6698   -2.8683 H   0  0  0  0  0  0  0  0  0  0  0  0
    2.2797   -2.3446   -3.6210 H   0  0  0  0  0  0  0  0  0  0  0  0
    5.7139    0.3431    3.0424 H   0  0  0  0  0  0  0  0  0  0  0  0
    7.4654    1.9567    3.7628 H   0  0  0  0  0  0  0  0  0  0  0  0
    8.8045    3.2027    2.1032 H   0  0  0  0  0  0  0  0  0  0  0  0
    8.3529    2.7976   -0.3105 H   0  0  0  0  0  0  0  0  0  0  0  0
    6.6088    1.1904   -0.9541 H   0  0  0  0  0  0  0  0  0  0  0  0
  1  2  1  0
  2  3  1  0
  3  4  1  0
  4  5  2  0
  5  6  1  0
  6  7  1  0
  7  8  1  0
  8  9  1  0
  9 10  1  0
 10 11  1  0
 11 12  1  0
 12 13  1  0
 13 14  1  0
 13 15  1  0
 15 16  1  0
  9 17  2  0
 17 18  1  0
 18 19  1  0
 19 20  2  0
 20 21  1  0
 21 22  2  0
 22 23  1  0
 22 24  1  0
 24 25  2  0
  6 26  2  0
 26 27  1  0
 27 28  2  0
  2 29  1  0
 29 30  2  0
 30 31  1  0
 31 32  2  0
 32 33  1  0
 33 34  2  0
 28  4  1  0
 34 29  1  0
 18  7  2  0
 25 19  1  0
 16 10  1  0
  1 35  1  0
  1 36  1  0
  1 37  1  0
  2 38  1  1
  3 39  1  0
  5 40  1  0
 10 41  1  0
 11 42  1  0
 11 43  1  0
 12 44  1  0
 12 45  1  0
 14 46  1  0
 14 47  1  0
 14 48  1  0
 15 49  1  0
 15 50  1  0
 16 51  1  0
 16 52  1  0
 20 53  1  0
 21 54  1  0
 24 55  1  0
 25 56  1  0
 26 57  1  0
 27 58  1  0
 30 59  1  0
 31 60  1  0
 32 61  1  0
 33 62  1  0
 34 63  1  0
M  END
$$$$
