@<TRIPOS>MOLECULE
*****
 32 33 0 0 0
SMALL
GASTEIGER

@<TRIPOS>ATOM
      1 O           4.5427   -2.6348   -0.5498 O.2     1  UNL1       -0.2451
      2 C           3.4718   -2.1547   -0.1648 C.2     1  UNL1        0.3369
      3 O           2.7088   -2.8873    0.7355 O.3     1  UNL1       -0.4771
      4 C           3.0386   -0.8530   -0.6540 C.ar    1  UNL1        0.0606
      5 C           3.8187   -0.1503   -1.5468 C.ar    1  UNL1       -0.0477
      6 C           3.4085    1.0818   -2.0091 C.ar    1  UNL1       -0.0592
      7 C           2.2102    1.6512   -1.5967 C.ar    1  UNL1       -0.0405
      8 C           1.4205    0.9617   -0.7056 C.ar    1  UNL1        0.0322
      9 N           0.2221    1.5641   -0.2669 N.pl3   1  UNL1       -0.3092
     10 C          -0.9300    0.9059    0.2157 C.ar    1  UNL1        0.1095
     11 C          -1.2302    1.1307    1.5695 C.ar    1  UNL1       -0.0334
     12 C          -2.3330    0.5682    2.1682 C.ar    1  UNL1       -0.0479
     13 C          -3.1771   -0.2384    1.4422 C.ar    1  UNL1        0.0613
     14 C          -4.3532   -0.8238    2.1304 C.3     1  UNL1        0.4176
     15 F          -5.4381   -0.0190    1.8353 F       1  UNL1       -0.1659
     16 F          -4.1289   -0.9028    3.4888 F       1  UNL1       -0.1659
     17 F          -4.5497   -2.0911    1.5830 F       1  UNL1       -0.1659
     18 C          -2.8681   -0.4448    0.1236 C.ar    1  UNL1        0.0291
     19 C          -1.7628    0.1070   -0.5184 C.ar    1  UNL1        0.2945
     20 N          -1.5322   -0.1074   -1.8845 N.pl3   1  UNL1        0.0815
     21 O          -0.4225   -0.1581   -2.3806 O.2     1  UNL1        0.0415
     22 O          -2.6261   -0.2684   -2.7249 O.co2   1  UNL1       -0.5760
     23 C           1.8606   -0.2796   -0.2566 C.ar    1  UNL1       -0.0266
     24 H           3.1506   -3.4286    1.4959 H       1  UNL1        0.2954
     25 H           4.7623   -0.5686   -1.8891 H       1  UNL1        0.0626
     26 H           3.9959    1.6554   -2.7071 H       1  UNL1        0.0618
     27 H           1.9229    2.6290   -1.9874 H       1  UNL1        0.0636
     28 H           0.1753    2.6323   -0.2992 H       1  UNL1        0.1523
     29 H          -0.5760    1.7625    2.1532 H       1  UNL1        0.0638
     30 H          -2.5194    0.7785    3.2318 H       1  UNL1        0.0624
     31 H          -3.5096   -1.0694   -0.4642 H       1  UNL1        0.0691
     32 H           1.2475   -0.8106    0.4327 H       1  UNL1        0.0644
@<TRIPOS>UNITY_ATOM_ATTR
20 1
charge 1
22 1
charge -1
@<TRIPOS>BOND
     1     1     2    2
     2     2     3    1
     3     2     4    1
     4     4     5   ar
     5     5     6   ar
     6     6     7   ar
     7     7     8   ar
     8     8     9    1
     9     9    10    1
    10    10    11   ar
    11    11    12   ar
    12    12    13   ar
    13    13    14    1
    14    14    15    1
    15    14    16    1
    16    14    17    1
    17    13    18   ar
    18    18    19   ar
    19    19    20    1
    20    20    21    2
    21    20    22    1
    22     8    23   ar
    23    23     4   ar
    24    19    10   ar
    25     3    24    1
    26     5    25    1
    27     6    26    1
    28     7    27    1
    29     9    28    1
    30    11    29    1
    31    12    30    1
    32    18    31    1
    33    23    32    1
