@<TRIPOS>MOLECULE
*****
 54 57 0 0 0
SMALL
GASTEIGER

@<TRIPOS>ATOM
      1 C           2.8171   -1.2066   -0.5289 C.3     1  UNL1       -0.0500
      2 C           3.0766    0.2660   -0.2352 C.3     1  UNL1        0.0579
      3 C           2.5026    0.6279    1.0913 C.2     1  UNL1        0.2228
      4 O           3.3227    0.9411    2.0028 O.2     1  UNL1       -0.2749
      5 N           1.1235    0.6451    1.3927 N.am    1  UNL1       -0.2993
      6 C           0.7210    1.0066    2.7384 C.3     1  UNL1        0.0035
      7 C           0.1311    0.3256    0.3778 C.3     1  UNL1        0.0440
      8 C          -0.7057    1.5483    0.0952 C.3     1  UNL1       -0.0273
      9 C          -2.0692    1.4117    0.7461 C.3     1  UNL1       -0.0102
     10 C          -2.7218    0.2741    0.0428 C.ar    1  UNL1        0.0250
     11 C          -3.8910    0.0409   -0.6427 C.ar    1  UNL1       -0.0067
     12 C          -4.9552    1.0316   -0.8731 C.3     1  UNL1        0.0722
     13 C          -5.7229    1.1985    0.3872 C.2     1  UNL1        0.3091
     14 O          -5.4171    0.5467    1.4123 O.2     1  UNL1       -0.2507
     15 O          -6.7945    2.0776    0.4594 O.3     1  UNL1       -0.4804
     16 C          -3.9125   -1.2769   -1.0820 C.ar    1  UNL1        0.0228
     17 C          -4.7804   -2.0736   -1.7932 C.ar    1  UNL1       -0.0493
     18 C          -4.5029   -3.3913   -2.0762 C.ar    1  UNL1       -0.0429
     19 C          -3.2893   -3.8799   -1.6020 C.ar    1  UNL1        0.0299
     20 N          -2.4359   -3.1063   -0.9060 N.ar    1  UNL1       -0.2373
     21 C          -2.7097   -1.8168   -0.6302 C.ar    1  UNL1        0.1412
     22 N          -2.0058   -0.8792    0.0417 N.ar    1  UNL1       -0.3270
     23 C          -0.7240   -0.8374    0.7308 C.3     1  UNL1        0.0435
     24 C           4.5371    0.4635   -0.2702 C.ar    1  UNL1       -0.0356
     25 C           5.0668    1.3060   -1.2128 C.ar    1  UNL1       -0.0551
     26 C           6.4412    1.5282   -1.2914 C.ar    1  UNL1       -0.0262
     27 C           7.2875    0.8924   -0.4085 C.ar    1  UNL1        0.1234
     28 F           8.6173    1.1010   -0.4768 F       1  UNL1       -0.2055
     29 C           6.7567    0.0356    0.5511 C.ar    1  UNL1       -0.0262
     30 C           5.3972   -0.1638    0.6042 C.ar    1  UNL1       -0.0551
     31 H           2.3475   -1.3285   -1.5191 H       1  UNL1        0.0240
     32 H           3.8045   -1.7415   -0.5233 H       1  UNL1        0.0240
     33 H           2.1414   -1.6290    0.2506 H       1  UNL1        0.0240
     34 H           2.6035    0.8593   -1.0249 H       1  UNL1        0.0440
     35 H           1.6180    1.1619    3.3876 H       1  UNL1        0.0429
     36 H           0.0653    1.9020    2.7490 H       1  UNL1        0.0429
     37 H           0.1194    0.1820    3.1665 H       1  UNL1        0.0429
     38 H           0.6960    0.0967   -0.5627 H       1  UNL1        0.0518
     39 H          -0.1976    2.4869    0.3887 H       1  UNL1        0.0287
     40 H          -0.8794    1.6160   -0.9971 H       1  UNL1        0.0287
     41 H          -2.6297    2.3646    0.5773 H       1  UNL1        0.0328
     42 H          -2.0130    1.1341    1.8115 H       1  UNL1        0.0328
     43 H          -5.6854    0.6367   -1.6312 H       1  UNL1        0.0427
     44 H          -4.5233    1.9883   -1.2299 H       1  UNL1        0.0427
     45 H          -7.2976    2.2851    1.3058 H       1  UNL1        0.2951
     46 H          -5.7064   -1.6415   -2.1363 H       1  UNL1        0.0625
     47 H          -5.1601   -4.0452   -2.6311 H       1  UNL1        0.0633
     48 H          -3.0567   -4.9332   -1.8231 H       1  UNL1        0.0830
     49 H          -0.8870   -0.9630    1.8422 H       1  UNL1        0.0511
     50 H          -0.2159   -1.8078    0.4507 H       1  UNL1        0.0511
     51 H           4.4720    1.8430   -1.9414 H       1  UNL1        0.0621
     52 H           6.8700    2.1960   -2.0382 H       1  UNL1        0.0646
     53 H           7.4241   -0.4715    1.2550 H       1  UNL1        0.0646
     54 H           4.9301   -0.8279    1.3404 H       1  UNL1        0.0621
@<TRIPOS>BOND
     1     1     2    1
     2     2     3    1
     3     3     4    2
     4     3     5   am
     5     5     6    1
     6     5     7    1
     7     7     8    1
     8     8     9    1
     9     9    10    1
    10    10    11   ar
    11    11    12    1
    12    12    13    1
    13    13    14    2
    14    13    15    1
    15    11    16   ar
    16    16    17   ar
    17    17    18   ar
    18    18    19   ar
    19    19    20   ar
    20    20    21   ar
    21    21    22   ar
    22    22    23    1
    23     2    24    1
    24    24    25   ar
    25    25    26   ar
    26    26    27   ar
    27    27    28    1
    28    27    29   ar
    29    29    30   ar
    30    23     7    1
    31    30    24   ar
    32    22    10   ar
    33    21    16   ar
    34     1    31    1
    35     1    32    1
    36     1    33    1
    37     2    34    1
    38     6    35    1
    39     6    36    1
    40     6    37    1
    41     7    38    1
    42     8    39    1
    43     8    40    1
    44     9    41    1
    45     9    42    1
    46    12    43    1
    47    12    44    1
    48    15    45    1
    49    17    46    1
    50    18    47    1
    51    19    48    1
    52    23    49    1
    53    23    50    1
    54    25    51    1
    55    26    52    1
    56    29    53    1
    57    30    54    1
