
     RDKit          3D

 54 57  0  0  0  0  0  0  0  0999 V2000
    2.8171   -1.2066   -0.5289 C   0  0  0  0  0  0  0  0  0  0  0  0
    3.0766    0.2660   -0.2352 C   0  0  1  0  0  0  0  0  0  0  0  0
    2.5026    0.6279    1.0913 C   0  0  0  0  0  0  0  0  0  0  0  0
    3.3227    0.9411    2.0028 O   0  0  0  0  0  0  0  0  0  0  0  0
    1.1235    0.6451    1.3927 N   0  0  0  0  0  0  0  0  0  0  0  0
    0.7210    1.0066    2.7384 C   0  0  0  0  0  0  0  0  0  0  0  0
    0.1311    0.3256    0.3778 C   0  0  2  0  0  0  0  0  0  0  0  0
   -0.7057    1.5483    0.0952 C   0  0  0  0  0  0  0  0  0  0  0  0
   -2.0692    1.4117    0.7461 C   0  0  0  0  0  0  0  0  0  0  0  0
   -2.7218    0.2741    0.0428 C   0  0  0  0  0  0  0  0  0  0  0  0
   -3.8910    0.0409   -0.6427 C   0  0  0  0  0  0  0  0  0  0  0  0
   -4.9552    1.0316   -0.8731 C   0  0  0  0  0  0  0  0  0  0  0  0
   -5.7229    1.1985    0.3872 C   0  0  0  0  0  0  0  0  0  0  0  0
   -5.4171    0.5467    1.4123 O   0  0  0  0  0  0  0  0  0  0  0  0
   -6.7945    2.0776    0.4594 O   0  0  0  0  0  0  0  0  0  0  0  0
   -3.9125   -1.2769   -1.0820 C   0  0  0  0  0  0  0  0  0  0  0  0
   -4.7804   -2.0736   -1.7932 C   0  0  0  0  0  0  0  0  0  0  0  0
   -4.5029   -3.3913   -2.0762 C   0  0  0  0  0  0  0  0  0  0  0  0
   -3.2893   -3.8799   -1.6020 C   0  0  0  0  0  0  0  0  0  0  0  0
   -2.4359   -3.1063   -0.9060 N   0  0  0  0  0  0  0  0  0  0  0  0
   -2.7097   -1.8168   -0.6302 C   0  0  0  0  0  0  0  0  0  0  0  0
   -2.0058   -0.8792    0.0417 N   0  0  0  0  0  0  0  0  0  0  0  0
   -0.7240   -0.8374    0.7308 C   0  0  0  0  0  0  0  0  0  0  0  0
    4.5371    0.4635   -0.2702 C   0  0  0  0  0  0  0  0  0  0  0  0
    5.0668    1.3060   -1.2128 C   0  0  0  0  0  0  0  0  0  0  0  0
    6.4412    1.5282   -1.2914 C   0  0  0  0  0  0  0  0  0  0  0  0
    7.2875    0.8924   -0.4085 C   0  0  0  0  0  0  0  0  0  0  0  0
    8.6173    1.1010   -0.4768 F   0  0  0  0  0  0  0  0  0  0  0  0
    6.7567    0.0356    0.5511 C   0  0  0  0  0  0  0  0  0  0  0  0
    5.3972   -0.1638    0.6042 C   0  0  0  0  0  0  0  0  0  0  0  0
    2.3475   -1.3285   -1.5191 H   0  0  0  0  0  0  0  0  0  0  0  0
    3.8045   -1.7415   -0.5233 H   0  0  0  0  0  0  0  0  0  0  0  0
    2.1414   -1.6290    0.2506 H   0  0  0  0  0  0  0  0  0  0  0  0
    2.6035    0.8593   -1.0249 H   0  0  0  0  0  0  0  0  0  0  0  0
    1.6180    1.1619    3.3876 H   0  0  0  0  0  0  0  0  0  0  0  0
    0.0653    1.9020    2.7490 H   0  0  0  0  0  0  0  0  0  0  0  0
    0.1194    0.1820    3.1665 H   0  0  0  0  0  0  0  0  0  0  0  0
    0.6960    0.0967   -0.5627 H   0  0  0  0  0  0  0  0  0  0  0  0
   -0.1976    2.4869    0.3887 H   0  0  0  0  0  0  0  0  0  0  0  0
   -0.8794    1.6160   -0.9971 H   0  0  0  0  0  0  0  0  0  0  0  0
   -2.6297    2.3646    0.5773 H   0  0  0  0  0  0  0  0  0  0  0  0
   -2.0130    1.1341    1.8115 H   0  0  0  0  0  0  0  0  0  0  0  0
   -5.6854    0.6367   -1.6312 H   0  0  0  0  0  0  0  0  0  0  0  0
   -4.5233    1.9883   -1.2299 H   0  0  0  0  0  0  0  0  0  0  0  0
   -7.2976    2.2851    1.3058 H   0  0  0  0  0  0  0  0  0  0  0  0
   -5.7064   -1.6415   -2.1363 H   0  0  0  0  0  0  0  0  0  0  0  0
   -5.1601   -4.0452   -2.6311 H   0  0  0  0  0  0  0  0  0  0  0  0
   -3.0567   -4.9332   -1.8231 H   0  0  0  0  0  0  0  0  0  0  0  0
   -0.8870   -0.9630    1.8422 H   0  0  0  0  0  0  0  0  0  0  0  0
   -0.2159   -1.8078    0.4507 H   0  0  0  0  0  0  0  0  0  0  0  0
    4.4720    1.8430   -1.9414 H   0  0  0  0  0  0  0  0  0  0  0  0
    6.8700    2.1960   -2.0382 H   0  0  0  0  0  0  0  0  0  0  0  0
    7.4241   -0.4715    1.2550 H   0  0  0  0  0  0  0  0  0  0  0  0
    4.9301   -0.8279    1.3404 H   0  0  0  0  0  0  0  0  0  0  0  0
  1  2  1  0
  2  3  1  0
  3  4  2  0
  3  5  1  0
  5  6  1  0
  5  7  1  0
  7  8  1  0
  8  9  1  0
  9 10  1  0
 10 11  2  0
 11 12  1  0
 12 13  1  0
 13 14  2  0
 13 15  1  0
 11 16  1  0
 16 17  2  0
 17 18  1  0
 18 19  2  0
 19 20  1  0
 20 21  2  0
 21 22  1  0
 22 23  1  0
  2 24  1  0
 24 25  2  0
 25 26  1  0
 26 27  2  0
 27 28  1  0
 27 29  1  0
 29 30  2  0
 23  7  1  0
 30 24  1  0
 22 10  1  0
 21 16  1  0
  1 31  1  0
  1 32  1  0
  1 33  1  0
  2 34  1  6
  6 35  1  0
  6 36  1  0
  6 37  1  0
  7 38  1  6
  8 39  1  0
  8 40  1  0
  9 41  1  0
  9 42  1  0
 12 43  1  0
 12 44  1  0
 15 45  1  0
 17 46  1  0
 18 47  1  0
 19 48  1  0
 23 49  1  0
 23 50  1  0
 25 51  1  0
 26 52  1  0
 29 53  1  0
 30 54  1  0
M  END
$$$$
