@<TRIPOS>MOLECULE
*****
 66 67 0 0 0
SMALL
GASTEIGER

@<TRIPOS>ATOM
      1 C          -4.4882    2.8635    1.5531 C.3     1  UNL1       -0.0645
      2 C          -3.4223    1.8704    1.1447 C.3     1  UNL1       -0.0432
      3 C          -3.7044    0.5500    1.8091 C.3     1  UNL1        0.0534
      4 C          -3.6986    0.6732    3.3131 C.3     1  UNL1       -0.0523
      5 C          -2.8022   -0.5300    1.3577 C.2     1  UNL1        0.3102
      6 O          -2.0887   -1.1002    2.2218 O.2     1  UNL1       -0.2505
      7 O          -2.6916   -0.9515    0.0616 O.3     1  UNL1       -0.4604
      8 C          -1.8441   -1.9798   -0.4151 C.3     1  UNL1        0.1127
      9 C          -2.8067   -2.9990   -1.0553 C.3     1  UNL1        0.0146
     10 C          -3.7993   -2.1667   -1.8387 C.3     1  UNL1        0.0773
     11 O          -4.4603   -2.9016   -2.8138 O.3     1  UNL1       -0.3876
     12 C          -3.1929   -0.9582   -2.4448 C.2     1  UNL1       -0.0522
     13 C          -1.9425   -0.6003   -2.3670 C.2     1  UNL1       -0.0423
     14 C          -1.4129    0.6148   -2.9956 C.2     1  UNL1       -0.0621
     15 C          -0.1205    0.8597   -3.0736 C.2     1  UNL1       -0.0806
     16 C           0.7828   -0.1522   -2.4953 C.3     1  UNL1       -0.0219
     17 C           0.6688   -1.3449   -3.5260 C.3     1  UNL1       -0.0587
     18 C           0.1442   -0.6272   -1.2058 C.3     1  UNL1       -0.0247
     19 C           1.1116   -1.0892   -0.2263 C.3     1  UNL1       -0.0467
     20 C           2.0052   -0.1104    0.3991 C.3     1  UNL1       -0.0265
     21 C           2.8591    0.8444   -0.2794 C.3     1  UNL1        0.0576
     22 O           2.2152    1.8320   -1.0507 O.3     1  UNL1       -0.3917
     23 C           3.7304    1.6705    0.6864 C.3     1  UNL1       -0.0002
     24 C           4.6505    0.8461    1.5097 C.3     1  UNL1        0.0676
     25 O           5.4905    0.1430    0.6433 O.3     1  UNL1       -0.3912
     26 C           5.4664    1.8124    2.3641 C.3     1  UNL1        0.0708
     27 C           6.4121    1.0607    3.2156 C.2     1  UNL1        0.3072
     28 O           6.0078    0.4923    4.2422 O.2     1  UNL1       -0.2509
     29 O           7.7434    1.0052    2.8471 O.3     1  UNL1       -0.4806
     30 C          -1.0035   -1.4943   -1.5817 C.3     1  UNL1        0.0245
     31 H          -5.3856    2.7864    0.8774 H       1  UNL1        0.0230
     32 H          -4.8266    2.6126    2.5638 H       1  UNL1        0.0230
     33 H          -4.1017    3.9055    1.5754 H       1  UNL1        0.0230
     34 H          -3.2692    1.7979    0.0695 H       1  UNL1        0.0270
     35 H          -2.4578    2.2757    1.5671 H       1  UNL1        0.0270
     36 H          -4.7504    0.2264    1.5339 H       1  UNL1        0.0410
     37 H          -4.7463    0.7632    3.7234 H       1  UNL1        0.0238
     38 H          -3.2095   -0.1852    3.8167 H       1  UNL1        0.0238
     39 H          -3.2172    1.6510    3.5690 H       1  UNL1        0.0238
     40 H          -1.2824   -2.4010    0.4116 H       1  UNL1        0.0741
     41 H          -3.3092   -3.5085   -0.1902 H       1  UNL1        0.0329
     42 H          -2.2437   -3.7031   -1.6922 H       1  UNL1        0.0329
     43 H          -4.5519   -1.7965   -1.0772 H       1  UNL1        0.0639
     44 H          -5.3609   -3.1894   -2.4663 H       1  UNL1        0.2102
     45 H          -3.8838   -0.3253   -3.0051 H       1  UNL1        0.0600
     46 H          -2.1144    1.3318   -3.4077 H       1  UNL1        0.0617
     47 H           0.2513    1.7343   -3.5261 H       1  UNL1        0.0575
     48 H           1.8325    0.0305   -2.4937 H       1  UNL1        0.0343
     49 H           1.0787   -2.2467   -3.0648 H       1  UNL1        0.0235
     50 H           1.3593   -1.0570   -4.3727 H       1  UNL1        0.0235
     51 H          -0.3175   -1.3874   -3.9534 H       1  UNL1        0.0235
     52 H          -0.3579    0.3391   -0.7670 H       1  UNL1        0.0313
     53 H           1.7773   -1.9231   -0.6961 H       1  UNL1        0.0269
     54 H           0.6110   -1.7384    0.5944 H       1  UNL1        0.0269
     55 H           2.7035   -0.7140    1.1153 H       1  UNL1        0.0290
     56 H           1.4124    0.4751    1.2153 H       1  UNL1        0.0290
     57 H           3.6059    0.3841   -0.9774 H       1  UNL1        0.0594
     58 H           2.7284    2.6558   -1.1177 H       1  UNL1        0.2098
     59 H           3.0517    2.3208    1.2801 H       1  UNL1        0.0315
     60 H           4.3046    2.3729    0.0269 H       1  UNL1        0.0315
     61 H           4.1053    0.1881    2.1826 H       1  UNL1        0.0599
     62 H           6.4157    0.0517    1.0201 H       1  UNL1        0.2098
     63 H           4.7282    2.3858    2.9835 H       1  UNL1        0.0403
     64 H           6.0201    2.5357    1.7534 H       1  UNL1        0.0403
     65 H           8.3304    0.2157    3.1359 H       1  UNL1        0.2951
     66 H          -0.7396   -2.3363   -2.2072 H       1  UNL1        0.0388
@<TRIPOS>BOND
     1     1     2    1
     2     2     3    1
     3     3     4    1
     4     3     5    1
     5     5     6    2
     6     5     7    1
     7     7     8    1
     8     8     9    1
     9     9    10    1
    10    10    11    1
    11    10    12    1
    12    12    13    2
    13    13    14    1
    14    14    15    2
    15    15    16    1
    16    16    17    1
    17    16    18    1
    18    18    19    1
    19    19    20    1
    20    20    21    1
    21    21    22    1
    22    21    23    1
    23    23    24    1
    24    24    25    1
    25    24    26    1
    26    26    27    1
    27    27    28    2
    28    27    29    1
    29    18    30    1
    30    30     8    1
    31    30    13    1
    32     1    31    1
    33     1    32    1
    34     1    33    1
    35     2    34    1
    36     2    35    1
    37     3    36    1
    38     4    37    1
    39     4    38    1
    40     4    39    1
    41     8    40    1
    42     9    41    1
    43     9    42    1
    44    10    43    1
    45    11    44    1
    46    12    45    1
    47    14    46    1
    48    15    47    1
    49    16    48    1
    50    17    49    1
    51    17    50    1
    52    17    51    1
    53    18    52    1
    54    19    53    1
    55    19    54    1
    56    20    55    1
    57    20    56    1
    58    21    57    1
    59    22    58    1
    60    23    59    1
    61    23    60    1
    62    24    61    1
    63    25    62    1
    64    26    63    1
    65    26    64    1
    66    29    65    1
    67    30    66    1
