
     RDKit          3D

 66 67  0  0  0  0  0  0  0  0999 V2000
   -4.4882    2.8635    1.5531 C   0  0  0  0  0  0  0  0  0  0  0  0
   -3.4223    1.8704    1.1447 C   0  0  0  0  0  0  0  0  0  0  0  0
   -3.7044    0.5500    1.8091 C   0  0  2  0  0  0  0  0  0  0  0  0
   -3.6986    0.6732    3.3131 C   0  0  0  0  0  0  0  0  0  0  0  0
   -2.8022   -0.5300    1.3577 C   0  0  0  0  0  0  0  0  0  0  0  0
   -2.0887   -1.1002    2.2218 O   0  0  0  0  0  0  0  0  0  0  0  0
   -2.6916   -0.9515    0.0616 O   0  0  0  0  0  0  0  0  0  0  0  0
   -1.8441   -1.9798   -0.4151 C   0  0  1  0  0  0  0  0  0  0  0  0
   -2.8067   -2.9990   -1.0553 C   0  0  0  0  0  0  0  0  0  0  0  0
   -3.7993   -2.1667   -1.8387 C   0  0  2  0  0  0  0  0  0  0  0  0
   -4.4603   -2.9016   -2.8138 O   0  0  0  0  0  0  0  0  0  0  0  0
   -3.1929   -0.9582   -2.4448 C   0  0  0  0  0  0  0  0  0  0  0  0
   -1.9425   -0.6003   -2.3670 C   0  0  0  0  0  0  0  0  0  0  0  0
   -1.4129    0.6148   -2.9956 C   0  0  0  0  0  0  0  0  0  0  0  0
   -0.1205    0.8597   -3.0736 C   0  0  0  0  0  0  0  0  0  0  0  0
    0.7828   -0.1522   -2.4953 C   0  0  2  0  0  0  0  0  0  0  0  0
    0.6688   -1.3449   -3.5260 C   0  0  0  0  0  0  0  0  0  0  0  0
    0.1442   -0.6272   -1.2058 C   0  0  2  0  0  0  0  0  0  0  0  0
    1.1116   -1.0892   -0.2263 C   0  0  0  0  0  0  0  0  0  0  0  0
    2.0052   -0.1104    0.3991 C   0  0  0  0  0  0  0  0  0  0  0  0
    2.8591    0.8444   -0.2794 C   0  0  1  0  0  0  0  0  0  0  0  0
    2.2152    1.8320   -1.0507 O   0  0  0  0  0  0  0  0  0  0  0  0
    3.7304    1.6705    0.6864 C   0  0  0  0  0  0  0  0  0  0  0  0
    4.6505    0.8461    1.5097 C   0  0  1  0  0  0  0  0  0  0  0  0
    5.4905    0.1430    0.6433 O   0  0  0  0  0  0  0  0  0  0  0  0
    5.4664    1.8124    2.3641 C   0  0  0  0  0  0  0  0  0  0  0  0
    6.4121    1.0607    3.2156 C   0  0  0  0  0  0  0  0  0  0  0  0
    6.0078    0.4923    4.2422 O   0  0  0  0  0  0  0  0  0  0  0  0
    7.7434    1.0052    2.8471 O   0  0  0  0  0  0  0  0  0  0  0  0
   -1.0035   -1.4943   -1.5817 C   0  0  1  0  0  0  0  0  0  0  0  0
   -5.3856    2.7864    0.8774 H   0  0  0  0  0  0  0  0  0  0  0  0
   -4.8266    2.6126    2.5638 H   0  0  0  0  0  0  0  0  0  0  0  0
   -4.1017    3.9055    1.5754 H   0  0  0  0  0  0  0  0  0  0  0  0
   -3.2692    1.7979    0.0695 H   0  0  0  0  0  0  0  0  0  0  0  0
   -2.4578    2.2757    1.5671 H   0  0  0  0  0  0  0  0  0  0  0  0
   -4.7504    0.2264    1.5339 H   0  0  0  0  0  0  0  0  0  0  0  0
   -4.7463    0.7632    3.7234 H   0  0  0  0  0  0  0  0  0  0  0  0
   -3.2095   -0.1852    3.8167 H   0  0  0  0  0  0  0  0  0  0  0  0
   -3.2172    1.6510    3.5690 H   0  0  0  0  0  0  0  0  0  0  0  0
   -1.2824   -2.4010    0.4116 H   0  0  0  0  0  0  0  0  0  0  0  0
   -3.3092   -3.5085   -0.1902 H   0  0  0  0  0  0  0  0  0  0  0  0
   -2.2437   -3.7031   -1.6922 H   0  0  0  0  0  0  0  0  0  0  0  0
   -4.5519   -1.7965   -1.0772 H   0  0  0  0  0  0  0  0  0  0  0  0
   -5.3609   -3.1894   -2.4663 H   0  0  0  0  0  0  0  0  0  0  0  0
   -3.8838   -0.3253   -3.0051 H   0  0  0  0  0  0  0  0  0  0  0  0
   -2.1144    1.3318   -3.4077 H   0  0  0  0  0  0  0  0  0  0  0  0
    0.2513    1.7343   -3.5261 H   0  0  0  0  0  0  0  0  0  0  0  0
    1.8325    0.0305   -2.4937 H   0  0  0  0  0  0  0  0  0  0  0  0
    1.0787   -2.2467   -3.0648 H   0  0  0  0  0  0  0  0  0  0  0  0
    1.3593   -1.0570   -4.3727 H   0  0  0  0  0  0  0  0  0  0  0  0
   -0.3175   -1.3874   -3.9534 H   0  0  0  0  0  0  0  0  0  0  0  0
   -0.3579    0.3391   -0.7670 H   0  0  0  0  0  0  0  0  0  0  0  0
    1.7773   -1.9231   -0.6961 H   0  0  0  0  0  0  0  0  0  0  0  0
    0.6110   -1.7384    0.5944 H   0  0  0  0  0  0  0  0  0  0  0  0
    2.7035   -0.7140    1.1153 H   0  0  0  0  0  0  0  0  0  0  0  0
    1.4124    0.4751    1.2153 H   0  0  0  0  0  0  0  0  0  0  0  0
    3.6059    0.3841   -0.9774 H   0  0  0  0  0  0  0  0  0  0  0  0
    2.7284    2.6558   -1.1177 H   0  0  0  0  0  0  0  0  0  0  0  0
    3.0517    2.3208    1.2801 H   0  0  0  0  0  0  0  0  0  0  0  0
    4.3046    2.3729    0.0269 H   0  0  0  0  0  0  0  0  0  0  0  0
    4.1053    0.1881    2.1826 H   0  0  0  0  0  0  0  0  0  0  0  0
    6.4157    0.0517    1.0201 H   0  0  0  0  0  0  0  0  0  0  0  0
    4.7282    2.3858    2.9835 H   0  0  0  0  0  0  0  0  0  0  0  0
    6.0201    2.5357    1.7534 H   0  0  0  0  0  0  0  0  0  0  0  0
    8.3304    0.2157    3.1359 H   0  0  0  0  0  0  0  0  0  0  0  0
   -0.7396   -2.3363   -2.2072 H   0  0  0  0  0  0  0  0  0  0  0  0
  1  2  1  0
  2  3  1  0
  3  4  1  0
  3  5  1  0
  5  6  2  0
  5  7  1  0
  7  8  1  0
  8  9  1  0
  9 10  1  0
 10 11  1  0
 10 12  1  0
 12 13  2  0
 13 14  1  0
 14 15  2  0
 15 16  1  0
 16 17  1  0
 16 18  1  0
 18 19  1  0
 19 20  1  0
 20 21  1  0
 21 22  1  0
 21 23  1  0
 23 24  1  0
 24 25  1  0
 24 26  1  0
 26 27  1  0
 27 28  2  0
 27 29  1  0
 18 30  1  0
 30  8  1  0
 30 13  1  0
  1 31  1  0
  1 32  1  0
  1 33  1  0
  2 34  1  0
  2 35  1  0
  3 36  1  6
  4 37  1  0
  4 38  1  0
  4 39  1  0
  8 40  1  1
  9 41  1  0
  9 42  1  0
 10 43  1  1
 11 44  1  0
 12 45  1  0
 14 46  1  0
 15 47  1  0
 16 48  1  1
 17 49  1  0
 17 50  1  0
 17 51  1  0
 18 52  1  1
 19 53  1  0
 19 54  1  0
 20 55  1  0
 20 56  1  0
 21 57  1  6
 22 58  1  0
 23 59  1  0
 23 60  1  0
 24 61  1  1
 25 62  1  0
 26 63  1  0
 26 64  1  0
 29 65  1  0
 30 66  1  6
M  END
$$$$
