@<TRIPOS>MOLECULE
*****
 38 42 0 0 0
SMALL
GASTEIGER

@<TRIPOS>ATOM
      1 N           3.7250   -2.3832   -1.3525 N.pl3   1  UNL1       -0.3412
      2 C           3.7622   -1.6286   -0.1388 C.ar    1  UNL1        0.1473
      3 N           4.7567   -1.6137    0.7763 N.ar    1  UNL1       -0.1567
      4 N           4.4259   -0.7926    1.7635 N.ar    1  UNL1       -0.2570
      5 C           3.2176   -0.2440    1.5379 C.ar    1  UNL1        0.1798
      6 C           2.8085   -0.7783    0.3358 C.ar    1  UNL1        0.0636
      7 C           1.6042   -0.4480   -0.2270 C.ar    1  UNL1       -0.0197
      8 C           0.7925    0.4457    0.4428 C.ar    1  UNL1        0.0983
      9 N           1.2190    0.9617    1.6319 N.ar    1  UNL1       -0.1471
     10 N           2.3923    0.6238    2.1551 N.ar    1  UNL1       -0.1290
     11 C          -0.5199    0.9680    0.0823 C.ar    1  UNL1        0.0551
     12 C          -0.7922    2.3124   -0.1679 C.ar    1  UNL1        0.0767
     13 C           0.0285    3.4216   -0.1464 C.ar    1  UNL1       -0.0355
     14 C          -0.5083    4.6527   -0.4381 C.ar    1  UNL1       -0.0583
     15 C          -1.8554    4.7630   -0.7474 C.ar    1  UNL1       -0.0435
     16 C          -2.6560    3.6220   -0.7600 C.ar    1  UNL1        0.0298
     17 N          -2.0881    2.4408   -0.4686 N.ar    1  UNL1       -0.2386
     18 N          -2.6217    1.2530   -0.4163 N.ar    1  UNL1       -0.1657
     19 C          -1.7059    0.3219   -0.0844 C.ar    1  UNL1        0.1029
     20 C          -1.9393   -1.0846    0.0642 C.ar    1  UNL1        0.0028
     21 C          -2.3901   -1.7370   -1.0895 C.ar    1  UNL1       -0.0525
     22 C          -2.6547   -3.0976   -1.0843 C.ar    1  UNL1       -0.0611
     23 C          -2.4707   -3.8336    0.0863 C.ar    1  UNL1       -0.0617
     24 C          -2.0222   -3.1629    1.2193 C.ar    1  UNL1       -0.0611
     25 C          -1.7596   -1.7986    1.2045 C.ar    1  UNL1       -0.0525
     26 H           2.9019   -2.8908   -1.7471 H       1  UNL1        0.1438
     27 H           4.6345   -2.4179   -1.8894 H       1  UNL1        0.1438
     28 H           4.9832   -0.5631    2.6222 H       1  UNL1        0.1906
     29 H           1.1705   -0.7872   -1.1457 H       1  UNL1        0.0648
     30 H           1.0692    3.2987    0.0978 H       1  UNL1        0.0639
     31 H           0.0912    5.5520   -0.4355 H       1  UNL1        0.0619
     32 H          -2.3539    5.6934   -0.9882 H       1  UNL1        0.0633
     33 H          -3.7182    3.6971   -1.0025 H       1  UNL1        0.0830
     34 H          -2.5569   -1.2277   -2.0407 H       1  UNL1        0.0624
     35 H          -3.0084   -3.6272   -1.9774 H       1  UNL1        0.0618
     36 H          -2.6731   -4.9069    0.1115 H       1  UNL1        0.0618
     37 H          -1.8723   -3.7081    2.1370 H       1  UNL1        0.0618
     38 H          -1.4161   -1.2965    2.0792 H       1  UNL1        0.0624
@<TRIPOS>BOND
     1     1     2    1
     2     2     3   ar
     3     3     4   ar
     4     4     5   ar
     5     5     6   ar
     6     6     7   ar
     7     7     8   ar
     8     8     9   ar
     9     9    10   ar
    10     8    11    1
    11    11    12   ar
    12    12    13   ar
    13    13    14   ar
    14    14    15   ar
    15    15    16   ar
    16    16    17   ar
    17    17    18   ar
    18    18    19   ar
    19    19    20    1
    20    20    21   ar
    21    21    22   ar
    22    22    23   ar
    23    23    24   ar
    24    24    25   ar
    25     6     2   ar
    26    19    11   ar
    27    25    20   ar
    28    10     5   ar
    29    17    12   ar
    30     1    26    1
    31     1    27    1
    32     4    28    1
    33     7    29    1
    34    13    30    1
    35    14    31    1
    36    15    32    1
    37    16    33    1
    38    21    34    1
    39    22    35    1
    40    23    36    1
    41    24    37    1
    42    25    38    1
