
     RDKit          3D

 21 22  0  0  0  0  0  0  0  0999 V2000
   -3.6052   -0.5482   -0.0607 N   0  0  0  0  0  0  0  0  0  0  0  0
   -2.6782    0.4529   -0.4611 C   0  0  0  0  0  0  0  0  0  0  0  0
   -3.1494    1.5570   -0.9341 N   0  0  0  0  0  4  0  0  0  0  0  0
   -1.2704    0.2680   -0.3537 C   0  0  0  0  0  0  0  0  0  0  0  0
   -0.4578   -0.4302    0.4797 C   0  0  0  0  0  0  0  0  0  0  0  0
    0.9041   -0.4104    0.3244 C   0  0  0  0  0  0  0  0  0  0  0  0
    1.3725    0.3814   -0.7530 C   0  0  0  0  0  0  0  0  0  0  0  0
   -0.1293    1.0660   -1.5032 S   0  0  0  0  0  0  0  0  0  0  0  0
    2.7062    0.5339   -1.0788 C   0  0  0  0  0  0  0  0  0  0  0  0
    3.6598   -0.1104   -0.3290 C   0  0  0  0  0  0  0  0  0  0  0  0
    3.1689   -0.8714    0.7102 C   0  0  0  0  0  0  0  0  0  0  0  0
    1.8663   -1.0548    1.0734 C   0  0  0  0  0  0  0  0  0  0  0  0
   -3.2415   -1.4907    0.1958 H   0  0  0  0  0  0  0  0  0  0  0  0
   -4.6318   -0.3694   -0.0162 H   0  0  0  0  0  0  0  0  0  0  0  0
   -4.1787    1.5836   -0.9670 H   0  0  0  0  0  0  0  0  0  0  0  0
   -2.5160    2.3279   -1.2441 H   0  0  0  0  0  0  0  0  0  0  0  0
   -0.9848   -0.9805    1.2476 H   0  0  0  0  0  0  0  0  0  0  0  0
    2.9237    1.1674   -1.9258 H   0  0  0  0  0  0  0  0  0  0  0  0
    4.7006   -0.0002   -0.5718 H   0  0  0  0  0  0  0  0  0  0  0  0
    3.9243   -1.3942    1.3203 H   0  0  0  0  0  0  0  0  0  0  0  0
    1.6165   -1.6775    1.9094 H   0  0  0  0  0  0  0  0  0  0  0  0
  1  2  1  0
  2  3  2  0
  2  4  1  0
  4  5  2  0
  5  6  1  0
  6  7  2  0
  7  8  1  0
  7  9  1  0
  9 10  2  0
 10 11  1  0
 11 12  2  0
  8  4  1  0
 12  6  1  0
  1 13  1  0
  1 14  1  0
  3 15  1  0
  3 16  1  0
  5 17  1  0
  9 18  1  0
 10 19  1  0
 11 20  1  0
 12 21  1  0
M  CHG  1   3   1
M  END
$$$$
