@<TRIPOS>MOLECULE
*****
 41 43 0 0 0
SMALL
GASTEIGER

@<TRIPOS>ATOM
      1 C           6.9957   -1.5621    0.4832 C.3     1  UNL1        0.0596
      2 S           6.6909    0.1578    0.8242 S.O2    1  UNL1       -0.0058
      3 O           7.2495    0.5583    2.1363 O.2     1  UNL1       -0.1696
      4 O           7.3319    0.9244   -0.3237 O.2     1  UNL1       -0.1696
      5 C           4.9658    0.4235    0.6899 C.ar    1  UNL1        0.0893
      6 C           4.3940    0.7864   -0.5271 C.ar    1  UNL1       -0.0178
      7 C           3.0196    0.9874   -0.5907 C.ar    1  UNL1        0.0549
      8 CL          2.4637    1.4371   -2.1857 Cl      1  UNL1       -0.0827
      9 C           2.2216    0.8307    0.5370 C.ar    1  UNL1        0.0554
     10 C           2.7995    0.4706    1.7380 C.ar    1  UNL1       -0.0464
     11 C           4.1620    0.2718    1.8000 C.ar    1  UNL1       -0.0361
     12 C           0.8200    1.0929    0.2267 C.2     1  UNL1        0.2497
     13 O           0.4463    2.0621    0.9411 O.2     1  UNL1       -0.2698
     14 N           0.1061    0.3234   -0.7317 N.am    1  UNL1       -0.2814
     15 C          -1.2502    0.5550   -1.0513 C.ar    1  UNL1        0.0344
     16 C          -1.4735    1.4538   -2.0879 C.ar    1  UNL1       -0.0391
     17 C          -2.7724    1.7525   -2.4821 C.ar    1  UNL1       -0.0410
     18 C          -3.7871    1.1153   -1.7950 C.ar    1  UNL1        0.0502
     19 CL         -5.4113    1.5243   -2.3283 Cl      1  UNL1       -0.0829
     20 C          -3.5877    0.2206   -0.7642 C.ar    1  UNL1        0.0204
     21 C          -2.2917   -0.0588   -0.3921 C.ar    1  UNL1       -0.0299
     22 C          -4.7606   -0.3719   -0.1347 C.ar    1  UNL1        0.0724
     23 C          -4.6848   -1.2775    0.9018 C.ar    1  UNL1       -0.0356
     24 C          -5.8234   -1.8118    1.4657 C.ar    1  UNL1       -0.0583
     25 C          -7.0904   -1.4786    1.0344 C.ar    1  UNL1       -0.0436
     26 C          -7.1278   -0.5693   -0.0049 C.ar    1  UNL1        0.0283
     27 N          -6.0086   -0.0684   -0.5314 N.ar    1  UNL1       -0.2549
     28 H           6.8194   -1.7824   -0.5894 H       1  UNL1        0.0468
     29 H           6.3663   -2.2230    1.1073 H       1  UNL1        0.0468
     30 H           8.0672   -1.8112    0.6835 H       1  UNL1        0.0468
     31 H           5.0771    0.8888   -1.3572 H       1  UNL1        0.0651
     32 H           2.0793    0.3798    2.5405 H       1  UNL1        0.0626
     33 H           4.5525   -0.0121    2.7850 H       1  UNL1        0.0637
     34 H           0.6447   -0.4253   -1.1872 H       1  UNL1        0.1551
     35 H          -0.6518    1.9368   -2.6063 H       1  UNL1        0.0636
     36 H          -2.9162    2.4457   -3.2806 H       1  UNL1        0.0633
     37 H          -2.1039   -0.7496    0.4048 H       1  UNL1        0.0643
     38 H          -3.7311   -1.5838    1.2894 H       1  UNL1        0.0639
     39 H          -5.7275   -2.5315    2.2910 H       1  UNL1        0.0619
     40 H          -7.9765   -1.9038    1.4839 H       1  UNL1        0.0633
     41 H          -8.0967   -0.2468   -0.4122 H       1  UNL1        0.0830
@<TRIPOS>BOND
     1     1     2    1
     2     2     3    2
     3     2     4    2
     4     2     5    1
     5     5     6   ar
     6     6     7   ar
     7     7     8    1
     8     7     9   ar
     9     9    10   ar
    10    10    11   ar
    11     9    12    1
    12    12    13    2
    13    12    14   am
    14    14    15    1
    15    15    16   ar
    16    16    17   ar
    17    17    18   ar
    18    18    19    1
    19    18    20   ar
    20    20    21   ar
    21    20    22    1
    22    22    23   ar
    23    23    24   ar
    24    24    25   ar
    25    25    26   ar
    26    26    27   ar
    27    11     5   ar
    28    21    15   ar
    29    27    22   ar
    30     1    28    1
    31     1    29    1
    32     1    30    1
    33     6    31    1
    34    10    32    1
    35    11    33    1
    36    14    34    1
    37    16    35    1
    38    17    36    1
    39    21    37    1
    40    23    38    1
    41    24    39    1
    42    25    40    1
    43    26    41    1
