
     RDKit          3D

 41 43  0  0  0  0  0  0  0  0999 V2000
    6.9957   -1.5621    0.4832 C   0  0  0  0  0  0  0  0  0  0  0  0
    6.6909    0.1578    0.8242 S   0  0  0  0  0  0  0  0  0  0  0  0
    7.2495    0.5583    2.1363 O   0  0  0  0  0  0  0  0  0  0  0  0
    7.3319    0.9244   -0.3237 O   0  0  0  0  0  0  0  0  0  0  0  0
    4.9658    0.4235    0.6899 C   0  0  0  0  0  0  0  0  0  0  0  0
    4.3940    0.7864   -0.5271 C   0  0  0  0  0  0  0  0  0  0  0  0
    3.0196    0.9874   -0.5907 C   0  0  0  0  0  0  0  0  0  0  0  0
    2.4637    1.4371   -2.1857 Cl  0  0  0  0  0  0  0  0  0  0  0  0
    2.2216    0.8307    0.5370 C   0  0  0  0  0  0  0  0  0  0  0  0
    2.7995    0.4706    1.7380 C   0  0  0  0  0  0  0  0  0  0  0  0
    4.1620    0.2718    1.8000 C   0  0  0  0  0  0  0  0  0  0  0  0
    0.8200    1.0929    0.2267 C   0  0  0  0  0  0  0  0  0  0  0  0
    0.4463    2.0621    0.9411 O   0  0  0  0  0  0  0  0  0  0  0  0
    0.1061    0.3234   -0.7317 N   0  0  0  0  0  0  0  0  0  0  0  0
   -1.2502    0.5550   -1.0513 C   0  0  0  0  0  0  0  0  0  0  0  0
   -1.4735    1.4538   -2.0879 C   0  0  0  0  0  0  0  0  0  0  0  0
   -2.7724    1.7525   -2.4821 C   0  0  0  0  0  0  0  0  0  0  0  0
   -3.7871    1.1153   -1.7950 C   0  0  0  0  0  0  0  0  0  0  0  0
   -5.4113    1.5243   -2.3283 Cl  0  0  0  0  0  0  0  0  0  0  0  0
   -3.5877    0.2206   -0.7642 C   0  0  0  0  0  0  0  0  0  0  0  0
   -2.2917   -0.0588   -0.3921 C   0  0  0  0  0  0  0  0  0  0  0  0
   -4.7606   -0.3719   -0.1347 C   0  0  0  0  0  0  0  0  0  0  0  0
   -4.6848   -1.2775    0.9018 C   0  0  0  0  0  0  0  0  0  0  0  0
   -5.8234   -1.8118    1.4657 C   0  0  0  0  0  0  0  0  0  0  0  0
   -7.0904   -1.4786    1.0344 C   0  0  0  0  0  0  0  0  0  0  0  0
   -7.1278   -0.5693   -0.0049 C   0  0  0  0  0  0  0  0  0  0  0  0
   -6.0086   -0.0684   -0.5314 N   0  0  0  0  0  0  0  0  0  0  0  0
    6.8194   -1.7824   -0.5894 H   0  0  0  0  0  0  0  0  0  0  0  0
    6.3663   -2.2230    1.1073 H   0  0  0  0  0  0  0  0  0  0  0  0
    8.0672   -1.8112    0.6835 H   0  0  0  0  0  0  0  0  0  0  0  0
    5.0771    0.8888   -1.3572 H   0  0  0  0  0  0  0  0  0  0  0  0
    2.0793    0.3798    2.5405 H   0  0  0  0  0  0  0  0  0  0  0  0
    4.5525   -0.0121    2.7850 H   0  0  0  0  0  0  0  0  0  0  0  0
    0.6447   -0.4253   -1.1872 H   0  0  0  0  0  0  0  0  0  0  0  0
   -0.6518    1.9368   -2.6063 H   0  0  0  0  0  0  0  0  0  0  0  0
   -2.9162    2.4457   -3.2806 H   0  0  0  0  0  0  0  0  0  0  0  0
   -2.1039   -0.7496    0.4048 H   0  0  0  0  0  0  0  0  0  0  0  0
   -3.7311   -1.5838    1.2894 H   0  0  0  0  0  0  0  0  0  0  0  0
   -5.7275   -2.5315    2.2910 H   0  0  0  0  0  0  0  0  0  0  0  0
   -7.9765   -1.9038    1.4839 H   0  0  0  0  0  0  0  0  0  0  0  0
   -8.0967   -0.2468   -0.4122 H   0  0  0  0  0  0  0  0  0  0  0  0
  1  2  1  0
  2  3  2  0
  2  4  2  0
  2  5  1  0
  5  6  2  0
  6  7  1  0
  7  8  1  0
  7  9  2  0
  9 10  1  0
 10 11  2  0
  9 12  1  0
 12 13  2  0
 12 14  1  0
 14 15  1  0
 15 16  2  0
 16 17  1  0
 17 18  2  0
 18 19  1  0
 18 20  1  0
 20 21  2  0
 20 22  1  0
 22 23  2  0
 23 24  1  0
 24 25  2  0
 25 26  1  0
 26 27  2  0
 11  5  1  0
 21 15  1  0
 27 22  1  0
  1 28  1  0
  1 29  1  0
  1 30  1  0
  6 31  1  0
 10 32  1  0
 11 33  1  0
 14 34  1  0
 16 35  1  0
 17 36  1  0
 21 37  1  0
 23 38  1  0
 24 39  1  0
 25 40  1  0
 26 41  1  0
M  END
$$$$
