
     RDKit          3D

 74 80  0  0  0  0  0  0  0  0999 V2000
    7.1827    1.9717    3.2289 C   0  0  0  0  0  0  0  0  0  0  0  0
    6.6331    0.9248    2.4536 O   0  0  0  0  0  0  0  0  0  0  0  0
    7.3582    0.3428    1.4117 C   0  0  0  0  0  0  0  0  0  0  0  0
    8.6340    0.7526    1.0876 C   0  0  0  0  0  0  0  0  0  0  0  0
    9.3588    0.1885    0.0654 C   0  0  0  0  0  0  0  0  0  0  0  0
    8.8148   -0.8448   -0.6997 C   0  0  0  0  0  0  0  0  0  0  0  0
    7.5525   -1.2714   -0.4041 C   0  0  0  0  0  0  0  0  0  0  0  0
    6.8379   -0.6770    0.6458 C   0  0  0  0  0  0  0  0  0  0  0  0
    7.1894   -2.3260   -1.3473 C   0  0  1  0  0  0  0  0  0  0  0  0
    6.3983   -3.5055   -0.9250 C   0  0  0  0  0  0  0  0  0  0  0  0
    5.8371   -2.4796   -1.9235 C   0  0  1  0  0  0  0  0  0  0  0  0
    4.6901   -1.6569   -1.5684 C   0  0  0  0  0  0  0  0  0  0  0  0
    3.4992   -2.2130   -1.1713 C   0  0  0  0  0  0  0  0  0  0  0  0
    2.3914   -1.4608   -0.8404 C   0  0  0  0  0  0  0  0  0  0  0  0
    2.4031   -0.0883   -0.8864 C   0  0  0  0  0  0  0  0  0  0  0  0
    1.4869    0.9006   -0.6153 C   0  0  0  0  0  0  0  0  0  0  0  0
    0.1125    0.8594   -0.2127 C   0  0  0  0  0  0  0  0  0  0  0  0
   -0.6905   -0.1518   -0.0849 C   0  0  0  0  0  0  0  0  0  0  0  0
   -2.0953   -0.0652    0.3433 C   0  0  0  0  0  0  0  0  0  0  0  0
   -2.8259   -1.2270    0.4302 C   0  0  0  0  0  0  0  0  0  0  0  0
   -4.1392   -1.1640    0.8304 C   0  0  0  0  0  0  0  0  0  0  0  0
   -4.7815    0.0056    1.1551 C   0  0  0  0  0  0  0  0  0  0  0  0
   -6.1964    0.0291    1.5869 C   0  0  0  0  0  0  0  0  0  0  0  0
   -7.0441    0.1484    0.4812 N   0  0  0  0  0  0  0  0  0  0  0  0
   -6.9934    1.2349   -0.3777 C   0  0  0  0  0  0  0  0  0  0  0  0
   -8.2708    1.7062   -0.9914 C   0  0  2  0  0  0  0  0  0  0  0  0
   -8.7954    2.8936   -0.2114 C   0  0  0  0  0  0  0  0  0  0  0  0
   -9.2400    0.7726   -1.1758 O   0  0  0  0  0  0  0  0  0  0  0  0
   -9.3483   -0.2383   -0.2872 C   0  0  2  0  0  0  0  0  0  0  0  0
  -10.2199    0.0986    0.9180 C   0  0  0  0  0  0  0  0  0  0  0  0
   -8.0514   -0.7843    0.2377 C   0  0  0  0  0  0  0  0  0  0  0  0
   -4.0446    1.1561    1.0650 C   0  0  0  0  0  0  0  0  0  0  0  0
   -2.6946    1.1192    0.6568 C   0  0  0  0  0  0  0  0  0  0  0  0
    2.1844    2.0736   -0.8658 N   0  0  0  0  0  0  0  0  0  0  0  0
    3.4010    1.8095   -1.2512 N   0  0  0  0  0  0  0  0  0  0  0  0
    3.6102    0.4835   -1.2884 C   0  0  0  0  0  0  0  0  0  0  0  0
    4.7085   -0.2719   -1.6161 C   0  0  0  0  0  0  0  0  0  0  0  0
    8.3839   -2.5630   -2.1518 C   0  0  0  0  0  0  0  0  0  0  0  0
    8.5622   -3.4469   -3.0418 O   0  0  0  0  0  0  0  0  0  0  0  0
    9.3624   -1.6176   -1.7771 N   0  0  0  0  0  0  0  0  0  0  0  0
    6.3985    2.5378    3.7738 H   0  0  0  0  0  0  0  0  0  0  0  0
    7.9151    1.6397    3.9714 H   0  0  0  0  0  0  0  0  0  0  0  0
    7.6658    2.7197    2.5445 H   0  0  0  0  0  0  0  0  0  0  0  0
    9.0775    1.5544    1.6697 H   0  0  0  0  0  0  0  0  0  0  0  0
   10.3740    0.5254   -0.1809 H   0  0  0  0  0  0  0  0  0  0  0  0
    5.8253   -1.0123    0.9061 H   0  0  0  0  0  0  0  0  0  0  0  0
    6.0025   -3.4798    0.1095 H   0  0  0  0  0  0  0  0  0  0  0  0
    6.6909   -4.4995   -1.3017 H   0  0  0  0  0  0  0  0  0  0  0  0
    5.8244   -2.8893   -2.9827 H   0  0  0  0  0  0  0  0  0  0  0  0
    3.4006   -3.2822   -1.1069 H   0  0  0  0  0  0  0  0  0  0  0  0
    1.4922   -1.9444   -0.5241 H   0  0  0  0  0  0  0  0  0  0  0  0
   -0.3176    1.8529    0.0291 H   0  0  0  0  0  0  0  0  0  0  0  0
   -0.3249   -1.1185   -0.3193 H   0  0  0  0  0  0  0  0  0  0  0  0
   -2.3788   -2.1908    0.1872 H   0  0  0  0  0  0  0  0  0  0  0  0
   -4.7363   -2.0718    0.9062 H   0  0  0  0  0  0  0  0  0  0  0  0
   -6.3346    0.7972    2.3811 H   0  0  0  0  0  0  0  0  0  0  0  0
   -6.4510   -0.9412    2.1104 H   0  0  0  0  0  0  0  0  0  0  0  0
   -6.5493    2.1208    0.1659 H   0  0  0  0  0  0  0  0  0  0  0  0
   -6.2196    1.0223   -1.1756 H   0  0  0  0  0  0  0  0  0  0  0  0
   -8.0022    2.1050   -2.0056 H   0  0  0  0  0  0  0  0  0  0  0  0
   -8.8563    3.8176   -0.8240 H   0  0  0  0  0  0  0  0  0  0  0  0
   -9.8183    2.7228    0.1786 H   0  0  0  0  0  0  0  0  0  0  0  0
   -8.1032    3.1525    0.6325 H   0  0  0  0  0  0  0  0  0  0  0  0
   -9.8667   -1.0925   -0.7894 H   0  0  0  0  0  0  0  0  0  0  0  0
  -10.4105   -0.8394    1.4999 H   0  0  0  0  0  0  0  0  0  0  0  0
  -11.2258    0.4678    0.6033 H   0  0  0  0  0  0  0  0  0  0  0  0
   -9.7410    0.7999    1.6093 H   0  0  0  0  0  0  0  0  0  0  0  0
   -8.2846   -1.3303    1.1988 H   0  0  0  0  0  0  0  0  0  0  0  0
   -7.6791   -1.5762   -0.4473 H   0  0  0  0  0  0  0  0  0  0  0  0
   -4.4518    2.1061    1.2966 H   0  0  0  0  0  0  0  0  0  0  0  0
   -2.1423    2.0499    0.5968 H   0  0  0  0  0  0  0  0  0  0  0  0
    4.0991    2.5483   -1.4926 H   0  0  0  0  0  0  0  0  0  0  0  0
    5.6392    0.2011   -1.9275 H   0  0  0  0  0  0  0  0  0  0  0  0
   10.3277   -1.4617   -2.1757 H   0  0  0  0  0  0  0  0  0  0  0  0
  1  2  1  0
  2  3  1  0
  3  4  2  0
  4  5  1  0
  5  6  2  0
  6  7  1  0
  7  8  2  0
  7  9  1  0
  9 10  1  1
 10 11  1  0
 11 12  1  0
 12 13  2  0
 13 14  1  0
 14 15  2  0
 15 16  1  0
 16 17  1  0
 17 18  2  0
 18 19  1  0
 19 20  2  0
 20 21  1  0
 21 22  2  0
 22 23  1  0
 23 24  1  0
 24 25  1  0
 25 26  1  0
 26 27  1  0
 26 28  1  0
 28 29  1  0
 29 30  1  0
 29 31  1  0
 22 32  1  0
 32 33  2  0
 16 34  2  0
 34 35  1  0
 35 36  1  0
 36 37  2  0
  9 38  1  0
 38 39  2  0
 38 40  1  0
  8  3  1  0
 11  9  1  0
 37 12  1  0
 40  6  1  0
 36 15  1  0
 33 19  1  0
 31 24  1  0
  1 41  1  0
  1 42  1  0
  1 43  1  0
  4 44  1  0
  5 45  1  0
  8 46  1  0
 10 47  1  0
 10 48  1  0
 11 49  1  6
 13 50  1  0
 14 51  1  0
 17 52  1  0
 18 53  1  0
 20 54  1  0
 21 55  1  0
 23 56  1  0
 23 57  1  0
 25 58  1  0
 25 59  1  0
 26 60  1  6
 27 61  1  0
 27 62  1  0
 27 63  1  0
 29 64  1  6
 30 65  1  0
 30 66  1  0
 30 67  1  0
 31 68  1  0
 31 69  1  0
 32 70  1  0
 33 71  1  0
 35 72  1  0
 37 73  1  0
 40 74  1  0
M  END
$$$$
