@<TRIPOS>MOLECULE
*****
 74 80 0 0 0
SMALL
GASTEIGER

@<TRIPOS>ATOM
      1 C           7.1827    1.9717    3.2289 C.3     1  UNL1        0.0788
      2 O           6.6331    0.9248    2.4536 O.3     1  UNL1       -0.4951
      3 C           7.3582    0.3428    1.4117 C.ar    1  UNL1        0.1205
      4 C           8.6340    0.7526    1.0876 C.ar    1  UNL1       -0.0182
      5 C           9.3588    0.1885    0.0654 C.ar    1  UNL1       -0.0367
      6 C           8.8148   -0.8448   -0.6997 C.ar    1  UNL1        0.0378
      7 C           7.5525   -1.2714   -0.4041 C.ar    1  UNL1       -0.0072
      8 C           6.8379   -0.6770    0.6458 C.ar    1  UNL1       -0.0140
      9 C           7.1894   -2.3260   -1.3473 C.3     1  UNL1        0.0813
     10 C           6.3983   -3.5055   -0.9250 C.3     1  UNL1       -0.0262
     11 C           5.8371   -2.4796   -1.9235 C.3     1  UNL1        0.0035
     12 C           4.6901   -1.6569   -1.5684 C.ar    1  UNL1       -0.0409
     13 C           3.4992   -2.2130   -1.1713 C.ar    1  UNL1       -0.0575
     14 C           2.3914   -1.4608   -0.8404 C.ar    1  UNL1       -0.0502
     15 C           2.4031   -0.0883   -0.8864 C.ar    1  UNL1        0.0268
     16 C           1.4869    0.9006   -0.6153 C.ar    1  UNL1        0.0931
     17 C           0.1125    0.8594   -0.2127 C.2     1  UNL1       -0.0334
     18 C          -0.6905   -0.1518   -0.0849 C.2     1  UNL1       -0.0525
     19 C          -2.0953   -0.0652    0.3433 C.ar    1  UNL1       -0.0249
     20 C          -2.8259   -1.2270    0.4302 C.ar    1  UNL1       -0.0543
     21 C          -4.1392   -1.1640    0.8304 C.ar    1  UNL1       -0.0568
     22 C          -4.7815    0.0056    1.1551 C.ar    1  UNL1       -0.0333
     23 C          -6.1964    0.0291    1.5869 C.3     1  UNL1        0.0242
     24 N          -7.0441    0.1484    0.4812 N.3     1  UNL1       -0.2933
     25 C          -6.9934    1.2349   -0.3777 C.3     1  UNL1        0.0254
     26 C          -8.2708    1.7062   -0.9914 C.3     1  UNL1        0.0690
     27 C          -8.7954    2.8936   -0.2114 C.3     1  UNL1       -0.0375
     28 O          -9.2400    0.7726   -1.1758 O.3     1  UNL1       -0.3714
     29 C          -9.3483   -0.2383   -0.2872 C.3     1  UNL1        0.0690
     30 C         -10.2199    0.0986    0.9180 C.3     1  UNL1       -0.0375
     31 C          -8.0514   -0.7843    0.2377 C.3     1  UNL1        0.0254
     32 C          -4.0446    1.1561    1.0650 C.ar    1  UNL1       -0.0568
     33 C          -2.6946    1.1192    0.6568 C.ar    1  UNL1       -0.0543
     34 N           2.1844    2.0736   -0.8658 N.ar    1  UNL1       -0.1733
     35 N           3.4010    1.8095   -1.2512 N.ar    1  UNL1       -0.2764
     36 C           3.6102    0.4835   -1.2884 C.ar    1  UNL1        0.0666
     37 C           4.7085   -0.2719   -1.6161 C.ar    1  UNL1       -0.0328
     38 C           8.3839   -2.5630   -2.1518 C.2     1  UNL1        0.2284
     39 O           8.5622   -3.4469   -3.0418 O.2     1  UNL1       -0.2745
     40 N           9.3624   -1.6176   -1.7771 N.am    1  UNL1       -0.2845
     41 H           6.3985    2.5378    3.7738 H       1  UNL1        0.0660
     42 H           7.9151    1.6397    3.9714 H       1  UNL1        0.0660
     43 H           7.6658    2.7197    2.5445 H       1  UNL1        0.0660
     44 H           9.0775    1.5544    1.6697 H       1  UNL1        0.0655
     45 H          10.3740    0.5254   -0.1809 H       1  UNL1        0.0637
     46 H           5.8253   -1.0123    0.9061 H       1  UNL1        0.0658
     47 H           6.0025   -3.4798    0.1095 H       1  UNL1        0.0285
     48 H           6.6909   -4.4995   -1.3017 H       1  UNL1        0.0285
     49 H           5.8244   -2.8893   -2.9827 H       1  UNL1        0.0362
     50 H           3.4006   -3.2822   -1.1069 H       1  UNL1        0.0621
     51 H           1.4922   -1.9444   -0.5241 H       1  UNL1        0.0625
     52 H          -0.3176    1.8529    0.0291 H       1  UNL1        0.0640
     53 H          -0.3249   -1.1185   -0.3193 H       1  UNL1        0.0624
     54 H          -2.3788   -2.1908    0.1872 H       1  UNL1        0.0624
     55 H          -4.7363   -2.0718    0.9062 H       1  UNL1        0.0621
     56 H          -6.3346    0.7972    2.3811 H       1  UNL1        0.0476
     57 H          -6.4510   -0.9412    2.1104 H       1  UNL1        0.0476
     58 H          -6.5493    2.1208    0.1659 H       1  UNL1        0.0452
     59 H          -6.2196    1.0223   -1.1756 H       1  UNL1        0.0452
     60 H          -8.0022    2.1050   -2.0056 H       1  UNL1        0.0606
     61 H          -8.8563    3.8176   -0.8240 H       1  UNL1        0.0255
     62 H          -9.8183    2.7228    0.1786 H       1  UNL1        0.0255
     63 H          -8.1032    3.1525    0.6325 H       1  UNL1        0.0255
     64 H          -9.8667   -1.0925   -0.7894 H       1  UNL1        0.0606
     65 H         -10.4105   -0.8394    1.4999 H       1  UNL1        0.0255
     66 H         -11.2258    0.4678    0.6033 H       1  UNL1        0.0255
     67 H          -9.7410    0.7999    1.6093 H       1  UNL1        0.0255
     68 H          -8.2846   -1.3303    1.1988 H       1  UNL1        0.0452
     69 H          -7.6791   -1.5762   -0.4473 H       1  UNL1        0.0452
     70 H          -4.4518    2.1061    1.2966 H       1  UNL1        0.0621
     71 H          -2.1423    2.0499    0.5968 H       1  UNL1        0.0624
     72 H           4.0991    2.5483   -1.4926 H       1  UNL1        0.1889
     73 H           5.6392    0.2011   -1.9275 H       1  UNL1        0.0642
     74 H          10.3277   -1.4617   -2.1757 H       1  UNL1        0.1548
@<TRIPOS>BOND
     1     1     2    1
     2     2     3    1
     3     3     4   ar
     4     4     5   ar
     5     5     6   ar
     6     6     7   ar
     7     7     8   ar
     8     7     9    1
     9     9    10    1
    10    10    11    1
    11    11    12    1
    12    12    13   ar
    13    13    14   ar
    14    14    15   ar
    15    15    16   ar
    16    16    17    1
    17    17    18    2
    18    18    19    1
    19    19    20   ar
    20    20    21   ar
    21    21    22   ar
    22    22    23    1
    23    23    24    1
    24    24    25    1
    25    25    26    1
    26    26    27    1
    27    26    28    1
    28    28    29    1
    29    29    30    1
    30    29    31    1
    31    22    32   ar
    32    32    33   ar
    33    16    34   ar
    34    34    35   ar
    35    35    36   ar
    36    36    37   ar
    37     9    38    1
    38    38    39    2
    39    38    40   am
    40     8     3   ar
    41    11     9    1
    42    37    12   ar
    43    40     6    1
    44    36    15   ar
    45    33    19   ar
    46    31    24    1
    47     1    41    1
    48     1    42    1
    49     1    43    1
    50     4    44    1
    51     5    45    1
    52     8    46    1
    53    10    47    1
    54    10    48    1
    55    11    49    1
    56    13    50    1
    57    14    51    1
    58    17    52    1
    59    18    53    1
    60    20    54    1
    61    21    55    1
    62    23    56    1
    63    23    57    1
    64    25    58    1
    65    25    59    1
    66    26    60    1
    67    27    61    1
    68    27    62    1
    69    27    63    1
    70    29    64    1
    71    30    65    1
    72    30    66    1
    73    30    67    1
    74    31    68    1
    75    31    69    1
    76    32    70    1
    77    33    71    1
    78    35    72    1
    79    37    73    1
    80    40    74    1
