
     RDKit          3D

 26 26  0  0  0  0  0  0  0  0999 V2000
   -4.3131   -0.4664    0.1816 C   0  0  0  0  0  0  0  0  0  0  0  0
   -3.8265    0.7773   -0.3352 N   0  0  0  0  0  0  0  0  0  0  0  0
   -2.4101    0.8835   -0.1246 C   0  0  0  0  0  0  0  0  0  0  0  0
   -1.6153   -0.0570   -0.9632 C   0  0  0  0  0  0  0  0  0  0  0  0
   -0.1679    0.2037   -0.6066 C   0  0  0  0  0  0  0  0  0  0  0  0
    0.7760   -0.5881   -0.1401 C   0  0  0  0  0  0  0  0  0  0  0  0
    2.1381   -0.1795    0.1593 C   0  0  0  0  0  0  0  0  0  0  0  0
    2.5977    1.0953    0.0166 C   0  0  0  0  0  0  0  0  0  0  0  0
    3.8595    1.4274    0.3018 N   0  0  0  0  0  0  0  0  0  0  0  0
    4.7228    0.4842    0.7460 C   0  0  0  0  0  0  0  0  0  0  0  0
    4.2843   -0.8167    0.9001 C   0  0  0  0  0  0  0  0  0  0  0  0
    3.0001   -1.1572    0.6107 C   0  0  0  0  0  0  0  0  0  0  0  0
   -4.2206   -0.4726    1.2863 H   0  0  0  0  0  0  0  0  0  0  0  0
   -3.7011   -1.2947   -0.2132 H   0  0  0  0  0  0  0  0  0  0  0  0
   -5.3862   -0.6520   -0.0979 H   0  0  0  0  0  0  0  0  0  0  0  0
   -4.0062    0.8705   -1.3655 H   0  0  0  0  0  0  0  0  0  0  0  0
   -2.0239    1.9158   -0.3664 H   0  0  0  0  0  0  0  0  0  0  0  0
   -2.1597    0.7273    0.9675 H   0  0  0  0  0  0  0  0  0  0  0  0
   -1.7872   -1.1329   -0.7758 H   0  0  0  0  0  0  0  0  0  0  0  0
   -1.6934    0.1952   -2.0275 H   0  0  0  0  0  0  0  0  0  0  0  0
    0.0685    1.2549   -0.7895 H   0  0  0  0  0  0  0  0  0  0  0  0
    0.4067   -1.5950   -0.0091 H   0  0  0  0  0  0  0  0  0  0  0  0
    1.9437    1.8857   -0.3340 H   0  0  0  0  0  0  0  0  0  0  0  0
    5.7282    0.8374    0.9519 H   0  0  0  0  0  0  0  0  0  0  0  0
    5.0157   -1.5152    1.2539 H   0  0  0  0  0  0  0  0  0  0  0  0
    2.7700   -2.2242    0.7727 H   0  0  0  0  0  0  0  0  0  0  0  0
  1  2  1  0
  2  3  1  0
  3  4  1  0
  4  5  1  0
  5  6  2  0
  6  7  1  0
  7  8  2  0
  8  9  1  0
  9 10  2  0
 10 11  1  0
 11 12  2  0
 12  7  1  0
  1 13  1  0
  1 14  1  0
  1 15  1  0
  2 16  1  0
  3 17  1  0
  3 18  1  0
  4 19  1  0
  4 20  1  0
  5 21  1  0
  6 22  1  0
  8 23  1  0
 10 24  1  0
 11 25  1  0
 12 26  1  0
M  END
$$$$
