
     RDKit          3D

 49 50  0  0  0  0  0  0  0  0999 V2000
   -3.3355    0.6683    1.9971 C   0  0  0  0  0  0  0  0  0  0  0  0
   -3.0652    0.2379    0.7102 O   0  0  0  0  0  0  0  0  0  0  0  0
   -1.8660    0.0530    0.0804 C   0  0  0  0  0  0  0  0  0  0  0  0
   -1.1818   -1.1649    0.1846 C   0  0  0  0  0  0  0  0  0  0  0  0
   -1.8282   -2.2315    1.0171 C   0  0  0  0  0  0  0  0  0  0  0  0
   -2.7657   -3.0924    0.1968 C   0  0  0  0  0  0  0  0  0  0  0  0
   -0.7228   -3.0674    1.6420 C   0  0  0  0  0  0  0  0  0  0  0  0
    0.0153   -1.3461   -0.4522 C   0  0  0  0  0  0  0  0  0  0  0  0
    0.6008   -0.3388   -1.2243 C   0  0  0  0  0  0  0  0  0  0  0  0
    1.8933   -0.6430   -1.8702 C   0  0  0  0  0  0  0  0  0  0  0  0
    3.0716   -0.4318   -1.0124 C   0  0  0  0  0  0  0  0  0  0  0  0
    3.6861   -1.5415   -0.4229 C   0  0  0  0  0  0  0  0  0  0  0  0
    4.7554   -1.3915    0.3779 N   0  0  0  0  0  0  0  0  0  0  0  0
    5.2986   -0.2000    0.6642 C   0  0  0  0  0  0  0  0  0  0  0  0
    6.4287   -0.0465    1.5121 N   0  0  0  0  0  0  0  0  0  0  0  0
    4.7027    0.8859    0.0911 N   0  0  0  0  0  0  0  0  0  0  0  0
    3.6313    0.7813   -0.7165 C   0  0  0  0  0  0  0  0  0  0  0  0
    3.0409    1.9482   -1.3093 N   0  0  0  0  0  0  0  0  0  0  0  0
   -0.0817    0.8466   -1.3159 C   0  0  0  0  0  0  0  0  0  0  0  0
   -1.3106    1.0516   -0.6696 C   0  0  0  0  0  0  0  0  0  0  0  0
   -1.9272    2.3781   -0.8379 C   0  0  0  0  0  0  0  0  0  0  0  0
   -3.2434    2.3431   -1.5771 C   0  0  0  0  0  0  0  0  0  0  0  0
   -2.0304    3.1501    0.4282 C   0  0  0  0  0  0  0  0  0  0  0  0
   -2.3961    0.9078    2.5630 H   0  0  0  0  0  0  0  0  0  0  0  0
   -3.9434   -0.0537    2.5924 H   0  0  0  0  0  0  0  0  0  0  0  0
   -3.9472    1.5910    1.9726 H   0  0  0  0  0  0  0  0  0  0  0  0
   -2.3512   -1.7312    1.8697 H   0  0  0  0  0  0  0  0  0  0  0  0
   -3.6892   -3.2924    0.7537 H   0  0  0  0  0  0  0  0  0  0  0  0
   -2.9851   -2.6651   -0.7953 H   0  0  0  0  0  0  0  0  0  0  0  0
   -2.2795   -4.0847    0.0407 H   0  0  0  0  0  0  0  0  0  0  0  0
   -0.2655   -3.6977    0.8556 H   0  0  0  0  0  0  0  0  0  0  0  0
   -0.0137   -2.3522    2.1092 H   0  0  0  0  0  0  0  0  0  0  0  0
   -1.1570   -3.6684    2.4670 H   0  0  0  0  0  0  0  0  0  0  0  0
    0.5301   -2.2806   -0.3663 H   0  0  0  0  0  0  0  0  0  0  0  0
    1.9293   -0.0056   -2.7950 H   0  0  0  0  0  0  0  0  0  0  0  0
    1.8360   -1.6834   -2.2671 H   0  0  0  0  0  0  0  0  0  0  0  0
    3.2596   -2.5190   -0.6440 H   0  0  0  0  0  0  0  0  0  0  0  0
    6.5367    0.8633    2.0041 H   0  0  0  0  0  0  0  0  0  0  0  0
    7.1517   -0.7731    1.6757 H   0  0  0  0  0  0  0  0  0  0  0  0
    3.0142    1.9093   -2.3639 H   0  0  0  0  0  0  0  0  0  0  0  0
    2.6719    2.7564   -0.8059 H   0  0  0  0  0  0  0  0  0  0  0  0
    0.3747    1.6265   -1.9243 H   0  0  0  0  0  0  0  0  0  0  0  0
   -1.2516    2.9797   -1.5309 H   0  0  0  0  0  0  0  0  0  0  0  0
   -3.1088    2.4341   -2.6689 H   0  0  0  0  0  0  0  0  0  0  0  0
   -3.8280    3.2279   -1.2534 H   0  0  0  0  0  0  0  0  0  0  0  0
   -3.8223    1.4485   -1.2868 H   0  0  0  0  0  0  0  0  0  0  0  0
   -1.5389    4.1702    0.3108 H   0  0  0  0  0  0  0  0  0  0  0  0
   -1.4356    2.6461    1.2423 H   0  0  0  0  0  0  0  0  0  0  0  0
   -3.0574    3.3977    0.7516 H   0  0  0  0  0  0  0  0  0  0  0  0
  1  2  1  0
  2  3  1  0
  3  4  2  0
  4  5  1  0
  5  6  1  0
  5  7  1  0
  4  8  1  0
  8  9  2  0
  9 10  1  0
 10 11  1  0
 11 12  2  0
 12 13  1  0
 13 14  2  0
 14 15  1  0
 14 16  1  0
 16 17  2  0
 17 18  1  0
  9 19  1  0
 19 20  2  0
 20 21  1  0
 21 22  1  0
 21 23  1  0
 20  3  1  0
 17 11  1  0
  1 24  1  0
  1 25  1  0
  1 26  1  0
  5 27  1  0
  6 28  1  0
  6 29  1  0
  6 30  1  0
  7 31  1  0
  7 32  1  0
  7 33  1  0
  8 34  1  0
 10 35  1  0
 10 36  1  0
 12 37  1  0
 15 38  1  0
 15 39  1  0
 18 40  1  0
 18 41  1  0
 19 42  1  0
 21 43  1  0
 22 44  1  0
 22 45  1  0
 22 46  1  0
 23 47  1  0
 23 48  1  0
 23 49  1  0
M  END
$$$$
