@<TRIPOS>MOLECULE
*****
 49 50 0 0 0
SMALL
GASTEIGER

@<TRIPOS>ATOM
      1 C          -3.3355    0.6683    1.9971 C.3     1  UNL1        0.0788
      2 O          -3.0652    0.2379    0.7102 O.3     1  UNL1       -0.4945
      3 C          -1.8660    0.0530    0.0804 C.ar    1  UNL1        0.1269
      4 C          -1.1818   -1.1649    0.1846 C.ar    1  UNL1       -0.0026
      5 C          -1.8282   -2.2315    1.0171 C.3     1  UNL1       -0.0180
      6 C          -2.7657   -3.0924    0.1968 C.3     1  UNL1       -0.0585
      7 C          -0.7228   -3.0674    1.6420 C.3     1  UNL1       -0.0585
      8 C           0.0153   -1.3461   -0.4522 C.ar    1  UNL1       -0.0513
      9 C           0.6008   -0.3388   -1.2243 C.ar    1  UNL1       -0.0421
     10 C           1.8933   -0.6430   -1.8702 C.3     1  UNL1        0.0023
     11 C           3.0716   -0.4318   -1.0124 C.ar    1  UNL1        0.0146
     12 C           3.6861   -1.5415   -0.4229 C.ar    1  UNL1        0.0379
     13 N           4.7554   -1.3915    0.3779 N.ar    1  UNL1       -0.2227
     14 C           5.2986   -0.2000    0.6642 C.ar    1  UNL1        0.2142
     15 N           6.4287   -0.0465    1.5121 N.pl3   1  UNL1       -0.3274
     16 N           4.7027    0.8859    0.0911 N.ar    1  UNL1       -0.1999
     17 C           3.6313    0.7813   -0.7165 C.ar    1  UNL1        0.1247
     18 N           3.0409    1.9482   -1.3093 N.pl3   1  UNL1       -0.3428
     19 C          -0.0817    0.8466   -1.3159 C.ar    1  UNL1       -0.0513
     20 C          -1.3106    1.0516   -0.6696 C.ar    1  UNL1       -0.0026
     21 C          -1.9272    2.3781   -0.8379 C.3     1  UNL1       -0.0180
     22 C          -3.2434    2.3431   -1.5771 C.3     1  UNL1       -0.0585
     23 C          -2.0304    3.1501    0.4282 C.3     1  UNL1       -0.0585
     24 H          -2.3961    0.9078    2.5630 H       1  UNL1        0.0660
     25 H          -3.9434   -0.0537    2.5924 H       1  UNL1        0.0660
     26 H          -3.9472    1.5910    1.9726 H       1  UNL1        0.0660
     27 H          -2.3512   -1.7312    1.8697 H       1  UNL1        0.0345
     28 H          -3.6892   -3.2924    0.7537 H       1  UNL1        0.0235
     29 H          -2.9851   -2.6651   -0.7953 H       1  UNL1        0.0235
     30 H          -2.2795   -4.0847    0.0407 H       1  UNL1        0.0235
     31 H          -0.2655   -3.6977    0.8556 H       1  UNL1        0.0235
     32 H          -0.0137   -2.3522    2.1092 H       1  UNL1        0.0235
     33 H          -1.1570   -3.6684    2.4670 H       1  UNL1        0.0235
     34 H           0.5301   -2.2806   -0.3663 H       1  UNL1        0.0624
     35 H           1.9293   -0.0056   -2.7950 H       1  UNL1        0.0363
     36 H           1.8360   -1.6834   -2.2671 H       1  UNL1        0.0363
     37 H           3.2596   -2.5190   -0.6440 H       1  UNL1        0.0834
     38 H           6.5367    0.8633    2.0041 H       1  UNL1        0.1452
     39 H           7.1517   -0.7731    1.6757 H       1  UNL1        0.1452
     40 H           3.0142    1.9093   -2.3639 H       1  UNL1        0.1437
     41 H           2.6719    2.7564   -0.8059 H       1  UNL1        0.1437
     42 H           0.3747    1.6265   -1.9243 H       1  UNL1        0.0624
     43 H          -1.2516    2.9797   -1.5309 H       1  UNL1        0.0345
     44 H          -3.1088    2.4341   -2.6689 H       1  UNL1        0.0235
     45 H          -3.8280    3.2279   -1.2534 H       1  UNL1        0.0235
     46 H          -3.8223    1.4485   -1.2868 H       1  UNL1        0.0235
     47 H          -1.5389    4.1702    0.3108 H       1  UNL1        0.0235
     48 H          -1.4356    2.6461    1.2423 H       1  UNL1        0.0235
     49 H          -3.0574    3.3977    0.7516 H       1  UNL1        0.0235
@<TRIPOS>BOND
     1     1     2    1
     2     2     3    1
     3     3     4   ar
     4     4     5    1
     5     5     6    1
     6     5     7    1
     7     4     8   ar
     8     8     9   ar
     9     9    10    1
    10    10    11    1
    11    11    12   ar
    12    12    13   ar
    13    13    14   ar
    14    14    15    1
    15    14    16   ar
    16    16    17   ar
    17    17    18    1
    18     9    19   ar
    19    19    20   ar
    20    20    21    1
    21    21    22    1
    22    21    23    1
    23    20     3   ar
    24    17    11   ar
    25     1    24    1
    26     1    25    1
    27     1    26    1
    28     5    27    1
    29     6    28    1
    30     6    29    1
    31     6    30    1
    32     7    31    1
    33     7    32    1
    34     7    33    1
    35     8    34    1
    36    10    35    1
    37    10    36    1
    38    12    37    1
    39    15    38    1
    40    15    39    1
    41    18    40    1
    42    18    41    1
    43    19    42    1
    44    21    43    1
    45    22    44    1
    46    22    45    1
    47    22    46    1
    48    23    47    1
    49    23    48    1
    50    23    49    1
