@<TRIPOS>MOLECULE
*****
 65 69 0 0 0
SMALL
GASTEIGER

@<TRIPOS>ATOM
      1 C          -7.7398   -1.0578   -1.9958 C.3     1  UNL1       -0.0391
      2 C          -8.0852   -0.6582   -0.6012 C.ar    1  UNL1       -0.0425
      3 C          -9.3919   -0.7579   -0.1807 C.ar    1  UNL1       -0.0582
      4 C          -9.7656   -0.3976    1.1131 C.ar    1  UNL1       -0.0612
      5 C          -8.7823    0.0629    1.9597 C.ar    1  UNL1       -0.0582
      6 C          -7.4634    0.1720    1.5596 C.ar    1  UNL1       -0.0425
      7 C          -6.3997    0.6722    2.4747 C.3     1  UNL1       -0.0391
      8 C          -7.1191   -0.1900    0.2768 C.ar    1  UNL1       -0.0120
      9 C          -5.7201   -0.0684   -0.1511 C.ar    1  UNL1       -0.0149
     10 C          -5.2662    1.1237   -0.7252 C.ar    1  UNL1       -0.0489
     11 C          -3.9596    1.2307   -1.1376 C.ar    1  UNL1       -0.0223
     12 C          -3.4789    2.5164   -1.7563 C.3     1  UNL1       -0.0376
     13 C          -3.0497    0.2217   -1.0203 C.ar    1  UNL1        0.0975
     14 N          -1.7682    0.3150   -1.4410 N.ar    1  UNL1       -0.2112
     15 C          -0.9030   -0.7046   -1.3283 C.ar    1  UNL1        0.2398
     16 N           0.3968   -0.5530   -1.8023 N.pl3   1  UNL1       -0.2824
     17 C           1.5340   -0.4733   -0.9583 C.ar    1  UNL1        0.0338
     18 C           1.5160   -0.7034    0.3988 C.ar    1  UNL1       -0.0370
     19 C           2.7041   -0.5959    1.1127 C.ar    1  UNL1       -0.0182
     20 C           3.9091   -0.2687    0.5323 C.ar    1  UNL1        0.1207
     21 O           5.0117   -0.1900    1.3245 O.3     1  UNL1       -0.4907
     22 C           6.3367    0.0933    1.0035 C.3     1  UNL1        0.1022
     23 C           6.9206   -0.9454    0.1243 C.3     1  UNL1        0.0331
     24 N           8.2923   -0.6850   -0.2614 N.3     1  UNL1       -0.2991
     25 C           9.2386   -0.7684    0.8014 C.3     1  UNL1       -0.0010
     26 C          10.1738    0.4106    0.6392 C.3     1  UNL1       -0.0390
     27 C           9.3087    1.4388   -0.0194 C.3     1  UNL1       -0.0390
     28 C           8.4501    0.5786   -0.9357 C.3     1  UNL1       -0.0010
     29 C           3.9117   -0.0411   -0.8139 C.ar    1  UNL1       -0.0182
     30 C           2.7601   -0.1386   -1.5503 C.ar    1  UNL1       -0.0370
     31 N          -1.3273   -1.8476   -0.7795 N.ar    1  UNL1       -0.1123
     32 N          -2.5885   -1.9617   -0.3565 N.ar    1  UNL1       -0.1444
     33 C          -3.4828   -0.9634   -0.4545 C.ar    1  UNL1        0.1125
     34 C          -4.7967   -1.0835   -0.0351 C.ar    1  UNL1       -0.0247
     35 H          -6.9902   -0.3631   -2.3973 H       1  UNL1        0.0278
     36 H          -8.6500   -0.9961   -2.6520 H       1  UNL1        0.0278
     37 H          -7.3138   -2.0949   -2.0093 H       1  UNL1        0.0278
     38 H         -10.1556   -1.1230   -0.8546 H       1  UNL1        0.0620
     39 H         -10.8021   -0.4853    1.4240 H       1  UNL1        0.0618
     40 H          -9.0157    0.3596    2.9875 H       1  UNL1        0.0620
     41 H          -6.1606    1.7100    2.1949 H       1  UNL1        0.0278
     42 H          -6.8196    0.7003    3.5064 H       1  UNL1        0.0278
     43 H          -5.4927    0.0101    2.4301 H       1  UNL1        0.0278
     44 H          -5.9821    1.9188   -0.8160 H       1  UNL1        0.0627
     45 H          -4.2336    3.3369   -1.6060 H       1  UNL1        0.0278
     46 H          -3.3152    2.2942   -2.8231 H       1  UNL1        0.0278
     47 H          -2.5184    2.7827   -1.2766 H       1  UNL1        0.0278
     48 H           0.5155   -0.4975   -2.8562 H       1  UNL1        0.1551
     49 H           0.5990   -0.9591    0.8709 H       1  UNL1        0.0637
     50 H           2.6421   -0.7888    2.1940 H       1  UNL1        0.0655
     51 H           6.9041    0.1068    1.9622 H       1  UNL1        0.0709
     52 H           6.3248    1.1150    0.5387 H       1  UNL1        0.0709
     53 H           6.3245   -1.2785   -0.7210 H       1  UNL1        0.0460
     54 H           7.0057   -1.8825    0.7783 H       1  UNL1        0.0460
     55 H           9.8695   -1.6790    0.6049 H       1  UNL1        0.0427
     56 H           8.7862   -0.7950    1.8094 H       1  UNL1        0.0427
     57 H          10.9966    0.1716   -0.0727 H       1  UNL1        0.0278
     58 H          10.6037    0.7534    1.6021 H       1  UNL1        0.0278
     59 H           8.6384    1.9286    0.7211 H       1  UNL1        0.0278
     60 H           9.8782    2.1750   -0.6165 H       1  UNL1        0.0278
     61 H           9.0221    0.4066   -1.8651 H       1  UNL1        0.0427
     62 H           7.5084    1.1150   -1.0947 H       1  UNL1        0.0427
     63 H           4.8018    0.2460   -1.3695 H       1  UNL1        0.0655
     64 H           2.7766    0.0453   -2.6279 H       1  UNL1        0.0637
     65 H          -5.1238   -2.0153    0.4075 H       1  UNL1        0.0646
@<TRIPOS>BOND
     1     1     2    1
     2     2     3   ar
     3     3     4   ar
     4     4     5   ar
     5     5     6   ar
     6     6     7    1
     7     6     8   ar
     8     8     9    1
     9     9    10   ar
    10    10    11   ar
    11    11    12    1
    12    11    13   ar
    13    13    14   ar
    14    14    15   ar
    15    15    16    1
    16    16    17    1
    17    17    18   ar
    18    18    19   ar
    19    19    20   ar
    20    20    21    1
    21    21    22    1
    22    22    23    1
    23    23    24    1
    24    24    25    1
    25    25    26    1
    26    26    27    1
    27    27    28    1
    28    20    29   ar
    29    29    30   ar
    30    15    31   ar
    31    31    32   ar
    32    32    33   ar
    33    33    34   ar
    34     8     2   ar
    35    34     9   ar
    36    33    13   ar
    37    30    17   ar
    38    28    24    1
    39     1    35    1
    40     1    36    1
    41     1    37    1
    42     3    38    1
    43     4    39    1
    44     5    40    1
    45     7    41    1
    46     7    42    1
    47     7    43    1
    48    10    44    1
    49    12    45    1
    50    12    46    1
    51    12    47    1
    52    16    48    1
    53    18    49    1
    54    19    50    1
    55    22    51    1
    56    22    52    1
    57    23    53    1
    58    23    54    1
    59    25    55    1
    60    25    56    1
    61    26    57    1
    62    26    58    1
    63    27    59    1
    64    27    60    1
    65    28    61    1
    66    28    62    1
    67    29    63    1
    68    30    64    1
    69    34    65    1
