@<TRIPOS>MOLECULE
*****
 33 35 0 0 0
SMALL
GASTEIGER

@<TRIPOS>ATOM
      1 C           6.1963   -0.1525   -0.3602 C.3     1  UNL1        0.0788
      2 O           5.2441   -1.1804   -0.1663 O.3     1  UNL1       -0.4951
      3 C           3.9220   -0.8047    0.0257 C.ar    1  UNL1        0.1201
      4 C           2.9154   -1.7432    0.2244 C.ar    1  UNL1       -0.0194
      5 C           1.6084   -1.3423    0.4129 C.ar    1  UNL1       -0.0504
      6 C           1.2403   -0.0134    0.4138 C.ar    1  UNL1       -0.0110
      7 C          -0.1380    0.3662    0.6145 C.ar    1  UNL1        0.0644
      8 C          -0.5285    1.3904    1.4620 C.ar    1  UNL1        0.1038
      9 O          -1.7888    1.7171    1.6278 O.2     1  UNL1       -0.4618
     10 C          -2.7389    1.0693    0.9817 C.ar    1  UNL1        0.1454
     11 C          -4.0728    1.3854    1.1316 C.ar    1  UNL1        0.0231
     12 C          -5.0727    0.7138    0.4604 C.ar    1  UNL1        0.1239
     13 O          -6.4152    1.0709    0.6449 O.3     1  UNL1       -0.5065
     14 C          -4.7374   -0.3151   -0.3962 C.ar    1  UNL1        0.0223
     15 C          -3.4158   -0.6529   -0.5661 C.ar    1  UNL1        0.1347
     16 O          -3.0384   -1.6793   -1.4166 O.3     1  UNL1       -0.5058
     17 C          -2.4309    0.0403    0.1225 C.ar    1  UNL1        0.1060
     18 C          -1.1140   -0.3325   -0.0779 C.ar    1  UNL1        0.2037
     19 O          -0.7995   -1.2674   -0.8554 O.2     1  UNL1       -0.2863
     20 C           2.2285    0.9204    0.2182 C.ar    1  UNL1       -0.0504
     21 C           3.5283    0.5159    0.0310 C.ar    1  UNL1       -0.0194
     22 H           5.8971    0.5218   -1.2094 H       1  UNL1        0.0660
     23 H           7.1786   -0.5744   -0.6513 H       1  UNL1        0.0660
     24 H           6.2302    0.4620    0.5422 H       1  UNL1        0.0660
     25 H           3.1839   -2.7816    0.2267 H       1  UNL1        0.0654
     26 H           0.8511   -2.1178    0.5654 H       1  UNL1        0.0625
     27 H           0.2781    1.9139    1.9878 H       1  UNL1        0.1037
     28 H          -4.3360    2.2015    1.8113 H       1  UNL1        0.0691
     29 H          -7.1145    0.8082   -0.0381 H       1  UNL1        0.2921
     30 H          -5.4713   -0.8767   -0.9481 H       1  UNL1        0.0691
     31 H          -3.6309   -2.4906   -1.4593 H       1  UNL1        0.2922
     32 H           2.0129    1.9759    0.2069 H       1  UNL1        0.0625
     33 H           4.3287    1.2520   -0.1266 H       1  UNL1        0.0654
@<TRIPOS>BOND
     1     1     2    1
     2     2     3    1
     3     3     4   ar
     4     4     5   ar
     5     5     6   ar
     6     6     7    1
     7     7     8   ar
     8     8     9   ar
     9     9    10   ar
    10    10    11   ar
    11    11    12   ar
    12    12    13    1
    13    12    14   ar
    14    14    15   ar
    15    15    16    1
    16    15    17   ar
    17    17    18   ar
    18    18    19    2
    19     6    20   ar
    20    20    21   ar
    21    21     3   ar
    22    18     7   ar
    23    17    10   ar
    24     1    22    1
    25     1    23    1
    26     1    24    1
    27     4    25    1
    28     5    26    1
    29     8    27    1
    30    11    28    1
    31    13    29    1
    32    14    30    1
    33    16    31    1
    34    20    32    1
    35    21    33    1
