@<TRIPOS>MOLECULE
*****
 36 38 0 0 0
SMALL
GASTEIGER

@<TRIPOS>ATOM
      1 C           5.7056   -0.4613   -0.7201 C.3     1  UNL1        0.0596
      2 S           4.3468    0.3612   -1.5247 S.O2    1  UNL1       -0.0059
      3 O           4.2290   -0.2389   -2.8983 O.2     1  UNL1       -0.1696
      4 O           4.6960    1.8032   -1.6855 O.2     1  UNL1       -0.1696
      5 C           2.8857    0.2504   -0.6092 C.ar    1  UNL1        0.0879
      6 C           2.0465   -0.8153   -0.8444 C.ar    1  UNL1       -0.0363
      7 C           0.8794   -0.9322   -0.1314 C.ar    1  UNL1       -0.0524
      8 C           0.4291   -0.0664    0.8357 C.ar    1  UNL1       -0.0177
      9 C           1.3428    0.9933    1.0151 C.ar    1  UNL1       -0.0524
     10 C           2.5445    1.1891    0.3394 C.ar    1  UNL1       -0.0363
     11 C          -0.7616    0.0092    1.6569 C.2     1  UNL1        0.0114
     12 C          -2.0260   -0.0446    1.3014 C.2     1  UNL1        0.0731
     13 C          -2.7385    0.0866    2.5872 C.2     1  UNL1        0.3405
     14 O          -3.9846    0.0953    2.8011 O.2     1  UNL1       -0.2449
     15 O          -1.8509    0.2112    3.6377 O.3     1  UNL1       -0.4563
     16 C          -0.5656    0.1605    3.1194 C.3     1  UNL1        0.1192
     17 C          -2.7722   -0.1943    0.0797 C.ar    1  UNL1       -0.0107
     18 C          -3.8198    0.7294   -0.0901 C.ar    1  UNL1       -0.0538
     19 C          -4.6885    0.8006   -1.1536 C.ar    1  UNL1       -0.0612
     20 C          -4.5161   -0.1273   -2.1563 C.ar    1  UNL1       -0.0617
     21 C          -3.5177   -1.0692   -2.0753 C.ar    1  UNL1       -0.0612
     22 C          -2.7043   -1.0606   -0.9788 C.ar    1  UNL1       -0.0538
     23 H           5.5720   -1.5622   -0.6905 H       1  UNL1        0.0468
     24 H           5.8529   -0.0080    0.2710 H       1  UNL1        0.0468
     25 H           6.6075   -0.2172   -1.3282 H       1  UNL1        0.0468
     26 H           2.2342   -1.5930   -1.5651 H       1  UNL1        0.0637
     27 H           0.2226   -1.7678   -0.2856 H       1  UNL1        0.0624
     28 H           1.1373    1.7696    1.7462 H       1  UNL1        0.0624
     29 H           3.1780    2.0363    0.5480 H       1  UNL1        0.0637
     30 H           0.0489    1.0555    3.3467 H       1  UNL1        0.0749
     31 H          -0.0470   -0.7304    3.5268 H       1  UNL1        0.0749
     32 H          -4.0111    1.4967    0.6765 H       1  UNL1        0.0624
     33 H          -5.4694    1.5382   -1.2157 H       1  UNL1        0.0618
     34 H          -5.1892   -0.0894   -3.0014 H       1  UNL1        0.0618
     35 H          -3.3518   -1.8112   -2.8378 H       1  UNL1        0.0618
     36 H          -1.9446   -1.7971   -0.9098 H       1  UNL1        0.0624
@<TRIPOS>BOND
     1     1     2    1
     2     2     3    2
     3     2     4    2
     4     2     5    1
     5     5     6   ar
     6     6     7   ar
     7     7     8   ar
     8     8     9   ar
     9     9    10   ar
    10     8    11    1
    11    11    12    2
    12    12    13    1
    13    13    14    2
    14    13    15    1
    15    15    16    1
    16    12    17    1
    17    17    18   ar
    18    18    19   ar
    19    19    20   ar
    20    20    21   ar
    21    21    22   ar
    22    10     5   ar
    23    16    11    1
    24    22    17   ar
    25     1    23    1
    26     1    24    1
    27     1    25    1
    28     6    26    1
    29     7    27    1
    30     9    28    1
    31    10    29    1
    32    16    30    1
    33    16    31    1
    34    18    32    1
    35    19    33    1
    36    20    34    1
    37    21    35    1
    38    22    36    1
