@<TRIPOS>MOLECULE
*****
 65 68 0 0 0
SMALL
GASTEIGER

@<TRIPOS>ATOM
      1 C          -8.6411   -2.9247    1.9238 C.3     1  UNL1        0.0788
      2 O          -7.2951   -2.7941    2.3292 O.3     1  UNL1       -0.4951
      3 C          -6.4156   -1.9200    1.6995 C.ar    1  UNL1        0.1201
      4 C          -6.8312   -1.1536    0.6583 C.ar    1  UNL1       -0.0192
      5 C          -5.9607   -0.2748    0.0159 C.ar    1  UNL1       -0.0460
      6 C          -4.6283   -0.1616    0.4346 C.ar    1  UNL1        0.0401
      7 C          -3.8202    0.8172   -0.2030 C.2     1  UNL1        0.2631
      8 O          -4.4120    1.9671   -0.3924 O.2     1  UNL1       -0.2667
      9 N          -2.4781    0.7278   -0.6617 N.ar    1  UNL1       -0.2801
     10 C          -1.6562   -0.3279   -0.7713 C.ar    1  UNL1        0.0282
     11 C          -2.0442   -1.7462   -0.5042 C.3     1  UNL1       -0.0235
     12 C          -0.3996    0.0749   -1.2349 C.ar    1  UNL1       -0.0143
     13 C           0.7538   -0.8129   -1.4709 C.3     1  UNL1       -0.0000
     14 C           1.5936   -1.1162   -0.3094 C.ar    1  UNL1       -0.0395
     15 C           1.3569   -2.0800    0.6307 C.ar    1  UNL1       -0.0580
     16 C           2.1966   -2.3287    1.6914 C.ar    1  UNL1       -0.0580
     17 C           3.3540   -1.5560    1.8134 C.ar    1  UNL1       -0.0199
     18 C           3.6541   -0.5724    0.9021 C.ar    1  UNL1        0.1224
     19 O           4.8159    0.1895    1.0221 O.3     1  UNL1       -0.4750
     20 C           5.9484   -0.1792    0.3008 C.3     1  UNL1        0.2003
     21 C           5.6384   -0.1541   -1.2216 C.3     1  UNL1       -0.0145
     22 C           7.0649    0.8542    0.4498 C.3     1  UNL1       -0.0145
     23 C           6.5257   -1.5064    0.5507 C.2     1  UNL1        0.3485
     24 O           6.0890   -2.3744    1.3206 O.2     1  UNL1       -0.2465
     25 O           7.7207   -1.8478   -0.1621 O.3     1  UNL1       -0.4779
     26 C           2.7749   -0.3821   -0.1202 C.ar    1  UNL1       -0.0164
     27 C          -0.4845    1.4289   -1.4055 C.ar    1  UNL1        0.0075
     28 C           0.4657    2.3469   -1.8293 C.ar    1  UNL1       -0.0102
     29 C           0.1855    3.6864   -1.9195 C.ar    1  UNL1        0.1307
     30 O           1.1240    4.6486   -2.3416 O.3     1  UNL1       -0.4057
     31 C           1.8909    5.2013   -1.2518 C.3     1  UNL1        0.5752
     32 F           2.7976    6.1340   -1.6812 F       1  UNL1       -0.1328
     33 F           0.9938    5.8668   -0.4048 F       1  UNL1       -0.1328
     34 F           2.5178    4.1712   -0.5761 F       1  UNL1       -0.1328
     35 C          -1.0850    4.0863   -1.5714 C.ar    1  UNL1       -0.0176
     36 C          -2.0444    3.1552   -1.1427 C.ar    1  UNL1       -0.0337
     37 C          -1.7487    1.8253   -1.0574 C.ar    1  UNL1        0.0574
     38 C          -4.2364   -0.9357    1.4771 C.ar    1  UNL1       -0.0460
     39 C          -5.1137   -1.8218    2.1233 C.ar    1  UNL1       -0.0192
     40 H          -9.0078   -3.8742    2.3984 H       1  UNL1        0.0660
     41 H          -9.2821   -2.0641    2.2668 H       1  UNL1        0.0660
     42 H          -8.6546   -3.0640    0.8299 H       1  UNL1        0.0660
     43 H          -7.8470   -1.2119    0.3088 H       1  UNL1        0.0654
     44 H          -6.2876    0.3319   -0.8078 H       1  UNL1        0.0626
     45 H          -1.7729   -2.0149    0.5158 H       1  UNL1        0.0292
     46 H          -1.3710   -2.4112   -1.1452 H       1  UNL1        0.0292
     47 H          -3.0504   -2.0049   -0.8487 H       1  UNL1        0.0292
     48 H           0.4019   -1.7898   -1.8872 H       1  UNL1        0.0362
     49 H           1.3956   -0.3869   -2.2843 H       1  UNL1        0.0362
     50 H           0.4763   -2.6863    0.5409 H       1  UNL1        0.0620
     51 H           1.9881   -3.1075    2.4394 H       1  UNL1        0.0619
     52 H           3.9805   -1.7649    2.6920 H       1  UNL1        0.0654
     53 H           5.4134    0.8667   -1.5561 H       1  UNL1        0.0273
     54 H           6.6097   -0.4618   -1.6935 H       1  UNL1        0.0273
     55 H           4.9034   -0.9232   -1.4960 H       1  UNL1        0.0273
     56 H           7.2370    1.0778    1.5127 H       1  UNL1        0.0273
     57 H           6.6530    1.7767   -0.0510 H       1  UNL1        0.0273
     58 H           7.9903    0.5224   -0.0315 H       1  UNL1        0.0273
     59 H           7.9466   -2.7810   -0.4026 H       1  UNL1        0.2952
     60 H           2.9893    0.3859   -0.8499 H       1  UNL1        0.0657
     61 H           1.4409    1.9829   -2.0895 H       1  UNL1        0.0661
     62 H          -1.3404    5.1295   -1.6287 H       1  UNL1        0.0655
     63 H          -2.9997    3.5611   -0.8926 H       1  UNL1        0.0640
     64 H          -3.2409   -0.8889    1.8887 H       1  UNL1        0.0626
     65 H          -4.7385   -2.4104    2.9499 H       1  UNL1        0.0654
@<TRIPOS>BOND
     1     1     2    1
     2     2     3    1
     3     3     4   ar
     4     4     5   ar
     5     5     6   ar
     6     6     7    1
     7     7     8    2
     8     7     9   am
     9     9    10   ar
    10    10    11    1
    11    10    12   ar
    12    12    13    1
    13    13    14    1
    14    14    15   ar
    15    15    16   ar
    16    16    17   ar
    17    17    18   ar
    18    18    19    1
    19    19    20    1
    20    20    21    1
    21    20    22    1
    22    20    23    1
    23    23    24    2
    24    23    25    1
    25    18    26   ar
    26    12    27   ar
    27    27    28   ar
    28    28    29   ar
    29    29    30    1
    30    30    31    1
    31    31    32    1
    32    31    33    1
    33    31    34    1
    34    29    35   ar
    35    35    36   ar
    36    36    37   ar
    37     6    38   ar
    38    38    39   ar
    39    39     3   ar
    40    37     9   ar
    41    26    14   ar
    42    37    27   ar
    43     1    40    1
    44     1    41    1
    45     1    42    1
    46     4    43    1
    47     5    44    1
    48    11    45    1
    49    11    46    1
    50    11    47    1
    51    13    48    1
    52    13    49    1
    53    15    50    1
    54    16    51    1
    55    17    52    1
    56    21    53    1
    57    21    54    1
    58    21    55    1
    59    22    56    1
    60    22    57    1
    61    22    58    1
    62    25    59    1
    63    26    60    1
    64    28    61    1
    65    35    62    1
    66    36    63    1
    67    38    64    1
    68    39    65    1
