
     RDKit          3D

 65 68  0  0  0  0  0  0  0  0999 V2000
   -8.6411   -2.9247    1.9238 C   0  0  0  0  0  0  0  0  0  0  0  0
   -7.2951   -2.7941    2.3292 O   0  0  0  0  0  0  0  0  0  0  0  0
   -6.4156   -1.9200    1.6995 C   0  0  0  0  0  0  0  0  0  0  0  0
   -6.8312   -1.1536    0.6583 C   0  0  0  0  0  0  0  0  0  0  0  0
   -5.9607   -0.2748    0.0159 C   0  0  0  0  0  0  0  0  0  0  0  0
   -4.6283   -0.1616    0.4346 C   0  0  0  0  0  0  0  0  0  0  0  0
   -3.8202    0.8172   -0.2030 C   0  0  0  0  0  0  0  0  0  0  0  0
   -4.4120    1.9671   -0.3924 O   0  0  0  0  0  0  0  0  0  0  0  0
   -2.4781    0.7278   -0.6617 N   0  0  0  0  0  0  0  0  0  0  0  0
   -1.6562   -0.3279   -0.7713 C   0  0  0  0  0  0  0  0  0  0  0  0
   -2.0442   -1.7462   -0.5042 C   0  0  0  0  0  0  0  0  0  0  0  0
   -0.3996    0.0749   -1.2349 C   0  0  0  0  0  0  0  0  0  0  0  0
    0.7538   -0.8129   -1.4709 C   0  0  0  0  0  0  0  0  0  0  0  0
    1.5936   -1.1162   -0.3094 C   0  0  0  0  0  0  0  0  0  0  0  0
    1.3569   -2.0800    0.6307 C   0  0  0  0  0  0  0  0  0  0  0  0
    2.1966   -2.3287    1.6914 C   0  0  0  0  0  0  0  0  0  0  0  0
    3.3540   -1.5560    1.8134 C   0  0  0  0  0  0  0  0  0  0  0  0
    3.6541   -0.5724    0.9021 C   0  0  0  0  0  0  0  0  0  0  0  0
    4.8159    0.1895    1.0221 O   0  0  0  0  0  0  0  0  0  0  0  0
    5.9484   -0.1792    0.3008 C   0  0  0  0  0  0  0  0  0  0  0  0
    5.6384   -0.1541   -1.2216 C   0  0  0  0  0  0  0  0  0  0  0  0
    7.0649    0.8542    0.4498 C   0  0  0  0  0  0  0  0  0  0  0  0
    6.5257   -1.5064    0.5507 C   0  0  0  0  0  0  0  0  0  0  0  0
    6.0890   -2.3744    1.3206 O   0  0  0  0  0  0  0  0  0  0  0  0
    7.7207   -1.8478   -0.1621 O   0  0  0  0  0  0  0  0  0  0  0  0
    2.7749   -0.3821   -0.1202 C   0  0  0  0  0  0  0  0  0  0  0  0
   -0.4845    1.4289   -1.4055 C   0  0  0  0  0  0  0  0  0  0  0  0
    0.4657    2.3469   -1.8293 C   0  0  0  0  0  0  0  0  0  0  0  0
    0.1855    3.6864   -1.9195 C   0  0  0  0  0  0  0  0  0  0  0  0
    1.1240    4.6486   -2.3416 O   0  0  0  0  0  0  0  0  0  0  0  0
    1.8909    5.2013   -1.2518 C   0  0  0  0  0  0  0  0  0  0  0  0
    2.7976    6.1340   -1.6812 F   0  0  0  0  0  0  0  0  0  0  0  0
    0.9938    5.8668   -0.4048 F   0  0  0  0  0  0  0  0  0  0  0  0
    2.5178    4.1712   -0.5761 F   0  0  0  0  0  0  0  0  0  0  0  0
   -1.0850    4.0863   -1.5714 C   0  0  0  0  0  0  0  0  0  0  0  0
   -2.0444    3.1552   -1.1427 C   0  0  0  0  0  0  0  0  0  0  0  0
   -1.7487    1.8253   -1.0574 C   0  0  0  0  0  0  0  0  0  0  0  0
   -4.2364   -0.9357    1.4771 C   0  0  0  0  0  0  0  0  0  0  0  0
   -5.1137   -1.8218    2.1233 C   0  0  0  0  0  0  0  0  0  0  0  0
   -9.0078   -3.8742    2.3984 H   0  0  0  0  0  0  0  0  0  0  0  0
   -9.2821   -2.0641    2.2668 H   0  0  0  0  0  0  0  0  0  0  0  0
   -8.6546   -3.0640    0.8299 H   0  0  0  0  0  0  0  0  0  0  0  0
   -7.8470   -1.2119    0.3088 H   0  0  0  0  0  0  0  0  0  0  0  0
   -6.2876    0.3319   -0.8078 H   0  0  0  0  0  0  0  0  0  0  0  0
   -1.7729   -2.0149    0.5158 H   0  0  0  0  0  0  0  0  0  0  0  0
   -1.3710   -2.4112   -1.1452 H   0  0  0  0  0  0  0  0  0  0  0  0
   -3.0504   -2.0049   -0.8487 H   0  0  0  0  0  0  0  0  0  0  0  0
    0.4019   -1.7898   -1.8872 H   0  0  0  0  0  0  0  0  0  0  0  0
    1.3956   -0.3869   -2.2843 H   0  0  0  0  0  0  0  0  0  0  0  0
    0.4763   -2.6863    0.5409 H   0  0  0  0  0  0  0  0  0  0  0  0
    1.9881   -3.1075    2.4394 H   0  0  0  0  0  0  0  0  0  0  0  0
    3.9805   -1.7649    2.6920 H   0  0  0  0  0  0  0  0  0  0  0  0
    5.4134    0.8667   -1.5561 H   0  0  0  0  0  0  0  0  0  0  0  0
    6.6097   -0.4618   -1.6935 H   0  0  0  0  0  0  0  0  0  0  0  0
    4.9034   -0.9232   -1.4960 H   0  0  0  0  0  0  0  0  0  0  0  0
    7.2370    1.0778    1.5127 H   0  0  0  0  0  0  0  0  0  0  0  0
    6.6530    1.7767   -0.0510 H   0  0  0  0  0  0  0  0  0  0  0  0
    7.9903    0.5224   -0.0315 H   0  0  0  0  0  0  0  0  0  0  0  0
    7.9466   -2.7810   -0.4026 H   0  0  0  0  0  0  0  0  0  0  0  0
    2.9893    0.3859   -0.8499 H   0  0  0  0  0  0  0  0  0  0  0  0
    1.4409    1.9829   -2.0895 H   0  0  0  0  0  0  0  0  0  0  0  0
   -1.3404    5.1295   -1.6287 H   0  0  0  0  0  0  0  0  0  0  0  0
   -2.9997    3.5611   -0.8926 H   0  0  0  0  0  0  0  0  0  0  0  0
   -3.2409   -0.8889    1.8887 H   0  0  0  0  0  0  0  0  0  0  0  0
   -4.7385   -2.4104    2.9499 H   0  0  0  0  0  0  0  0  0  0  0  0
  1  2  1  0
  2  3  1  0
  3  4  2  0
  4  5  1  0
  5  6  2  0
  6  7  1  0
  7  8  2  0
  7  9  1  0
  9 10  1  0
 10 11  1  0
 10 12  2  0
 12 13  1  0
 13 14  1  0
 14 15  2  0
 15 16  1  0
 16 17  2  0
 17 18  1  0
 18 19  1  0
 19 20  1  0
 20 21  1  0
 20 22  1  0
 20 23  1  0
 23 24  2  0
 23 25  1  0
 18 26  2  0
 12 27  1  0
 27 28  2  0
 28 29  1  0
 29 30  1  0
 30 31  1  0
 31 32  1  0
 31 33  1  0
 31 34  1  0
 29 35  2  0
 35 36  1  0
 36 37  2  0
  6 38  1  0
 38 39  2  0
 39  3  1  0
 37  9  1  0
 26 14  1  0
 37 27  1  0
  1 40  1  0
  1 41  1  0
  1 42  1  0
  4 43  1  0
  5 44  1  0
 11 45  1  0
 11 46  1  0
 11 47  1  0
 13 48  1  0
 13 49  1  0
 15 50  1  0
 16 51  1  0
 17 52  1  0
 21 53  1  0
 21 54  1  0
 21 55  1  0
 22 56  1  0
 22 57  1  0
 22 58  1  0
 25 59  1  0
 26 60  1  0
 28 61  1  0
 35 62  1  0
 36 63  1  0
 38 64  1  0
 39 65  1  0
M  END
$$$$
