
     RDKit          3D

 56 59  0  0  0  0  0  0  0  0999 V2000
   -5.4391    1.8489   -0.4973 C   0  0  0  0  0  0  0  0  0  0  0  0
   -6.7948    1.2429   -0.5811 C   0  0  0  0  0  0  0  0  0  0  0  0
   -7.9305    2.0116   -0.9020 C   0  0  0  0  0  0  0  0  0  0  0  0
   -8.9554    1.1524   -0.9286 N   0  0  0  0  0  0  0  0  0  0  0  0
   -8.5318   -0.0917   -0.6465 C   0  0  0  0  0  0  0  0  0  0  0  0
   -9.1574   -1.2717   -0.5724 N   0  0  0  0  0  0  0  0  0  0  0  0
   -8.5321   -2.4298   -0.2905 C   0  0  0  0  0  0  0  0  0  0  0  0
   -7.2153   -2.3784   -0.0744 N   0  0  0  0  0  0  0  0  0  0  0  0
   -6.5186   -1.2032   -0.1343 C   0  0  0  0  0  0  0  0  0  0  0  0
   -5.0896   -1.2380    0.1107 C   0  0  0  0  0  0  0  0  0  0  0  0
   -4.2953   -2.0655   -0.6805 C   0  0  0  0  0  0  0  0  0  0  0  0
   -2.9381   -2.1487   -0.3901 C   0  0  0  0  0  0  0  0  0  0  0  0
   -2.3753   -1.4454    0.6411 C   0  0  0  0  0  0  0  0  0  0  0  0
   -0.9997   -1.5533    0.9061 N   0  0  0  0  0  0  0  0  0  0  0  0
   -0.0235   -0.6940    0.3083 C   0  0  0  0  0  0  0  0  0  0  0  0
   -0.4178    0.1725   -0.4694 O   0  0  0  0  0  0  0  0  0  0  0  0
    1.3312   -0.8410    0.6034 N   0  0  0  0  0  0  0  0  0  0  0  0
    2.4082   -0.0738    0.0958 C   0  0  0  0  0  0  0  0  0  0  0  0
    2.2463    0.9533   -0.7873 C   0  0  0  0  0  0  0  0  0  0  0  0
    3.3611    1.6739   -1.2510 C   0  0  0  0  0  0  0  0  0  0  0  0
    4.6287    1.3592   -0.8260 C   0  0  0  0  0  0  0  0  0  0  0  0
    4.8204    0.3264    0.0656 C   0  0  0  0  0  0  0  0  0  0  0  0
    6.1608   -0.0246    0.5304 C   0  0  0  0  0  0  0  0  0  0  0  0
    6.2539   -0.9970    1.3589 O   0  0  0  0  0  0  0  0  0  0  0  0
    7.3294    0.6307    0.1282 N   0  0  0  0  0  0  0  0  0  0  0  0
    8.6138    0.2091    0.6451 C   0  0  0  0  0  0  0  0  0  0  0  0
    9.5705   -0.1913   -0.4545 C   0  0  0  0  0  0  0  0  0  0  0  0
    9.1620    1.3519    1.4742 C   0  0  0  0  0  0  0  0  0  0  0  0
    3.7178   -0.3448    0.4894 C   0  0  0  0  0  0  0  0  0  0  0  0
   -3.1662   -0.6342    1.4135 C   0  0  0  0  0  0  0  0  0  0  0  0
   -4.5357   -0.5386    1.1352 C   0  0  0  0  0  0  0  0  0  0  0  0
   -7.1666   -0.0489   -0.4226 C   0  0  0  0  0  0  0  0  0  0  0  0
   -4.6466    1.2571   -0.9674 H   0  0  0  0  0  0  0  0  0  0  0  0
   -5.4530    2.7993   -1.1335 H   0  0  0  0  0  0  0  0  0  0  0  0
   -5.1837    2.1310    0.5192 H   0  0  0  0  0  0  0  0  0  0  0  0
   -7.9415    3.0749   -1.0839 H   0  0  0  0  0  0  0  0  0  0  0  0
   -9.9648    1.4020   -1.1405 H   0  0  0  0  0  0  0  0  0  0  0  0
   -9.0958   -3.3720   -0.2434 H   0  0  0  0  0  0  0  0  0  0  0  0
   -4.7386   -2.6207   -1.4943 H   0  0  0  0  0  0  0  0  0  0  0  0
   -2.3655   -2.8144   -1.0459 H   0  0  0  0  0  0  0  0  0  0  0  0
   -0.6496   -2.2807    1.5612 H   0  0  0  0  0  0  0  0  0  0  0  0
    1.5960   -1.6237    1.2943 H   0  0  0  0  0  0  0  0  0  0  0  0
    1.2913    1.2551   -1.1618 H   0  0  0  0  0  0  0  0  0  0  0  0
    3.1854    2.4696   -1.9415 H   0  0  0  0  0  0  0  0  0  0  0  0
    5.4398    1.9449   -1.2150 H   0  0  0  0  0  0  0  0  0  0  0  0
    7.2694    1.4228   -0.5446 H   0  0  0  0  0  0  0  0  0  0  0  0
    8.4526   -0.6389    1.3370 H   0  0  0  0  0  0  0  0  0  0  0  0
    9.3328   -1.2418   -0.7547 H   0  0  0  0  0  0  0  0  0  0  0  0
   10.5897   -0.2423    0.0143 H   0  0  0  0  0  0  0  0  0  0  0  0
    9.5281    0.4676   -1.3228 H   0  0  0  0  0  0  0  0  0  0  0  0
    8.4928    2.2410    1.4570 H   0  0  0  0  0  0  0  0  0  0  0  0
   10.1580    1.6924    1.1283 H   0  0  0  0  0  0  0  0  0  0  0  0
    9.2785    1.0721    2.5508 H   0  0  0  0  0  0  0  0  0  0  0  0
    3.8511   -1.1593    1.1903 H   0  0  0  0  0  0  0  0  0  0  0  0
   -2.8109   -0.0442    2.2448 H   0  0  0  0  0  0  0  0  0  0  0  0
   -5.1368    0.0894    1.7502 H   0  0  0  0  0  0  0  0  0  0  0  0
  1  2  1  0
  2  3  2  0
  3  4  1  0
  4  5  1  0
  5  6  2  0
  6  7  1  0
  7  8  2  0
  8  9  1  0
  9 10  1  0
 10 11  2  0
 11 12  1  0
 12 13  2  0
 13 14  1  0
 14 15  1  0
 15 16  2  0
 15 17  1  0
 17 18  1  0
 18 19  2  0
 19 20  1  0
 20 21  2  0
 21 22  1  0
 22 23  1  0
 23 24  2  0
 23 25  1  0
 25 26  1  0
 26 27  1  0
 26 28  1  0
 22 29  2  0
 13 30  1  0
 30 31  2  0
  9 32  2  0
 32  2  1  0
 32  5  1  0
 31 10  1  0
 29 18  1  0
  1 33  1  0
  1 34  1  0
  1 35  1  0
  3 36  1  0
  4 37  1  0
  7 38  1  0
 11 39  1  0
 12 40  1  0
 14 41  1  0
 17 42  1  0
 19 43  1  0
 20 44  1  0
 21 45  1  0
 25 46  1  0
 26 47  1  0
 27 48  1  0
 27 49  1  0
 27 50  1  0
 28 51  1  0
 28 52  1  0
 28 53  1  0
 29 54  1  0
 30 55  1  0
 31 56  1  0
M  END
$$$$
