@<TRIPOS>MOLECULE
*****
 56 59 0 0 0
SMALL
GASTEIGER

@<TRIPOS>ATOM
      1 C          -5.4391    1.8489   -0.4973 C.3     1  UNL1       -0.0376
      2 C          -6.7948    1.2429   -0.5811 C.ar    1  UNL1       -0.0218
      3 C          -7.9305    2.0116   -0.9020 C.ar    1  UNL1        0.0071
      4 N          -8.9554    1.1524   -0.9286 N.ar    1  UNL1       -0.3455
      5 C          -8.5318   -0.0917   -0.6465 C.ar    1  UNL1        0.1422
      6 N          -9.1574   -1.2717   -0.5724 N.ar    1  UNL1       -0.2179
      7 C          -8.5321   -2.4298   -0.2905 C.ar    1  UNL1        0.1189
      8 N          -7.2153   -2.3784   -0.0744 N.ar    1  UNL1       -0.2347
      9 C          -6.5186   -1.2032   -0.1343 C.ar    1  UNL1        0.0836
     10 C          -5.0896   -1.2380    0.1107 C.ar    1  UNL1        0.0012
     11 C          -4.2953   -2.0655   -0.6805 C.ar    1  UNL1       -0.0508
     12 C          -2.9381   -2.1487   -0.3901 C.ar    1  UNL1       -0.0398
     13 C          -2.3753   -1.4454    0.6411 C.ar    1  UNL1        0.0348
     14 N          -0.9997   -1.5533    0.9061 N.am    1  UNL1       -0.2692
     15 C          -0.0235   -0.6940    0.3083 C.2     1  UNL1        0.3081
     16 O          -0.4178    0.1725   -0.4694 O.2     1  UNL1       -0.2522
     17 N           1.3312   -0.8410    0.6034 N.am    1  UNL1       -0.2692
     18 C           2.4082   -0.0738    0.0958 C.ar    1  UNL1        0.0355
     19 C           2.2463    0.9533   -0.7873 C.ar    1  UNL1       -0.0404
     20 C           3.3611    1.6739   -1.2510 C.ar    1  UNL1       -0.0593
     21 C           4.6287    1.3592   -0.8260 C.ar    1  UNL1       -0.0495
     22 C           4.8204    0.3264    0.0656 C.ar    1  UNL1        0.0385
     23 C           6.1608   -0.0246    0.5304 C.2     1  UNL1        0.2443
     24 O           6.2539   -0.9970    1.3589 O.2     1  UNL1       -0.2702
     25 N           7.3294    0.6307    0.1282 N.am    1  UNL1       -0.3090
     26 C           8.6138    0.2091    0.6451 C.3     1  UNL1        0.0178
     27 C           9.5705   -0.1913   -0.4545 C.3     1  UNL1       -0.0469
     28 C           9.1620    1.3519    1.4742 C.3     1  UNL1       -0.0469
     29 C           3.7178   -0.3448    0.4894 C.ar    1  UNL1       -0.0283
     30 C          -3.1662   -0.6342    1.4135 C.ar    1  UNL1       -0.0398
     31 C          -4.5357   -0.5386    1.1352 C.ar    1  UNL1       -0.0508
     32 C          -7.1666   -0.0489   -0.4226 C.ar    1  UNL1        0.0475
     33 H          -4.6466    1.2571   -0.9674 H       1  UNL1        0.0278
     34 H          -5.4530    2.7993   -1.1335 H       1  UNL1        0.0278
     35 H          -5.1837    2.1310    0.5192 H       1  UNL1        0.0278
     36 H          -7.9415    3.0749   -1.0839 H       1  UNL1        0.0810
     37 H          -9.9648    1.4020   -1.1405 H       1  UNL1        0.1668
     38 H          -9.0958   -3.3720   -0.2434 H       1  UNL1        0.1048
     39 H          -4.7386   -2.6207   -1.4943 H       1  UNL1        0.0625
     40 H          -2.3655   -2.8144   -1.0459 H       1  UNL1        0.0636
     41 H          -0.6496   -2.2807    1.5612 H       1  UNL1        0.1564
     42 H           1.5960   -1.6237    1.2943 H       1  UNL1        0.1564
     43 H           1.2913    1.2551   -1.1618 H       1  UNL1        0.0636
     44 H           3.1854    2.4696   -1.9415 H       1  UNL1        0.0618
     45 H           5.4398    1.9449   -1.2150 H       1  UNL1        0.0625
     46 H           7.2694    1.4228   -0.5446 H       1  UNL1        0.1493
     47 H           8.4526   -0.6389    1.3370 H       1  UNL1        0.0493
     48 H           9.3328   -1.2418   -0.7547 H       1  UNL1        0.0247
     49 H          10.5897   -0.2423    0.0143 H       1  UNL1        0.0247
     50 H           9.5281    0.4676   -1.3228 H       1  UNL1        0.0247
     51 H           8.4928    2.2410    1.4570 H       1  UNL1        0.0247
     52 H          10.1580    1.6924    1.1283 H       1  UNL1        0.0247
     53 H           9.2785    1.0721    2.5508 H       1  UNL1        0.0247
     54 H           3.8511   -1.1593    1.1903 H       1  UNL1        0.0644
     55 H          -2.8109   -0.0442    2.2448 H       1  UNL1        0.0636
     56 H          -5.1368    0.0894    1.7502 H       1  UNL1        0.0625
@<TRIPOS>BOND
     1     1     2    1
     2     2     3   ar
     3     3     4   ar
     4     4     5   ar
     5     5     6   ar
     6     6     7   ar
     7     7     8   ar
     8     8     9   ar
     9     9    10    1
    10    10    11   ar
    11    11    12   ar
    12    12    13   ar
    13    13    14    1
    14    14    15   am
    15    15    16    2
    16    15    17   am
    17    17    18    1
    18    18    19   ar
    19    19    20   ar
    20    20    21   ar
    21    21    22   ar
    22    22    23    1
    23    23    24    2
    24    23    25   am
    25    25    26    1
    26    26    27    1
    27    26    28    1
    28    22    29   ar
    29    13    30   ar
    30    30    31   ar
    31     9    32   ar
    32    32     2   ar
    33    32     5   ar
    34    31    10   ar
    35    29    18   ar
    36     1    33    1
    37     1    34    1
    38     1    35    1
    39     3    36    1
    40     4    37    1
    41     7    38    1
    42    11    39    1
    43    12    40    1
    44    14    41    1
    45    17    42    1
    46    19    43    1
    47    20    44    1
    48    21    45    1
    49    25    46    1
    50    26    47    1
    51    27    48    1
    52    27    49    1
    53    27    50    1
    54    28    51    1
    55    28    52    1
    56    28    53    1
    57    29    54    1
    58    30    55    1
    59    31    56    1
