
     RDKit          3D

 32 34  0  0  0  0  0  0  0  0999 V2000
    3.6807   -0.6991    1.4364 C   0  0  0  0  0  0  0  0  0  0  0  0
    4.0255   -0.0589    0.2687 C   0  0  0  0  0  0  0  0  0  0  0  0
    3.0753    0.1015   -0.7462 C   0  0  0  0  0  0  0  0  0  0  0  0
    1.7921   -0.3740   -0.5944 C   0  0  0  0  0  0  0  0  0  0  0  0
    0.7674   -0.2045   -1.6812 C   0  0  0  0  0  0  0  0  0  0  0  0
    0.0439    1.0286   -1.5194 N   0  0  0  0  0  0  0  0  0  0  0  0
    0.4748    2.1859   -2.0603 C   0  0  0  0  0  0  0  0  0  0  0  0
   -0.4105    3.1225   -1.6979 N   0  0  0  0  0  0  0  0  0  0  0  0
   -1.3745    2.5828   -0.9514 C   0  0  0  0  0  0  0  0  0  0  0  0
   -1.0837    1.2108   -0.8306 C   0  0  0  0  0  0  0  0  0  0  0  0
   -1.9029    0.2747   -0.0658 C   0  0  0  0  0  0  0  0  0  0  0  0
   -2.3613   -0.9305   -0.5288 C   0  0  0  0  0  0  0  0  0  0  0  0
   -3.1300   -1.7815    0.2791 C   0  0  0  0  0  0  0  0  0  0  0  0
   -3.4435   -1.4169    1.5704 C   0  0  0  0  0  0  0  0  0  0  0  0
   -2.9846   -0.2081    2.0350 C   0  0  0  0  0  0  0  0  0  0  0  0
   -2.2286    0.6260    1.2373 C   0  0  0  0  0  0  0  0  0  0  0  0
    1.4679   -1.0090    0.5761 C   0  0  0  0  0  0  0  0  0  0  0  0
    2.3863   -1.1859    1.6051 C   0  0  0  0  0  0  0  0  0  0  0  0
    4.4055   -0.8284    2.2257 H   0  0  0  0  0  0  0  0  0  0  0  0
    5.0385    0.3069    0.1701 H   0  0  0  0  0  0  0  0  0  0  0  0
    3.3654    0.6033   -1.6475 H   0  0  0  0  0  0  0  0  0  0  0  0
    1.3248   -0.1639   -2.6488 H   0  0  0  0  0  0  0  0  0  0  0  0
    0.1523   -1.0934   -1.6964 H   0  0  0  0  0  0  0  0  0  0  0  0
    1.3618    2.3568   -2.6739 H   0  0  0  0  0  0  0  0  0  0  0  0
   -2.2279    3.0474   -0.5030 H   0  0  0  0  0  0  0  0  0  0  0  0
   -2.1492   -1.2356   -1.5232 H   0  0  0  0  0  0  0  0  0  0  0  0
   -3.4832   -2.7318   -0.1056 H   0  0  0  0  0  0  0  0  0  0  0  0
   -4.0382   -2.0980    2.1648 H   0  0  0  0  0  0  0  0  0  0  0  0
   -3.2458    0.0555    3.0557 H   0  0  0  0  0  0  0  0  0  0  0  0
   -1.8699    1.5913    1.6281 H   0  0  0  0  0  0  0  0  0  0  0  0
    0.4596   -1.3845    0.6995 H   0  0  0  0  0  0  0  0  0  0  0  0
    2.1121   -1.6899    2.5226 H   0  0  0  0  0  0  0  0  0  0  0  0
  1  2  2  0
  2  3  1  0
  3  4  2  0
  4  5  1  0
  5  6  1  0
  6  7  1  0
  7  8  2  0
  8  9  1  0
  9 10  2  0
 10 11  1  0
 11 12  2  0
 12 13  1  0
 13 14  2  0
 14 15  1  0
 15 16  2  0
  4 17  1  0
 17 18  2  0
 18  1  1  0
 10  6  1  0
 16 11  1  0
  1 19  1  0
  2 20  1  0
  3 21  1  0
  5 22  1  0
  5 23  1  0
  7 24  1  0
  9 25  1  0
 12 26  1  0
 13 27  1  0
 14 28  1  0
 15 29  1  0
 16 30  1  0
 17 31  1  0
 18 32  1  0
M  END
$$$$
