@<TRIPOS>MOLECULE
*****
 32 34 0 0 0
SMALL
GASTEIGER

@<TRIPOS>ATOM
      1 C           3.6807   -0.6991    1.4364 C.ar    1  UNL1       -0.0617
      2 C           4.0255   -0.0589    0.2687 C.ar    1  UNL1       -0.0614
      3 C           3.0753    0.1015   -0.7462 C.ar    1  UNL1       -0.0569
      4 C           1.7921   -0.3740   -0.5944 C.ar    1  UNL1       -0.0277
      5 C           0.7674   -0.2045   -1.6812 C.3     1  UNL1        0.0497
      6 N           0.0439    1.0286   -1.5194 N.ar    1  UNL1       -0.3257
      7 C           0.4748    2.1859   -2.0603 C.ar    1  UNL1        0.0967
      8 N          -0.4105    3.1225   -1.6979 N.ar    1  UNL1       -0.2434
      9 C          -1.3745    2.5828   -0.9514 C.ar    1  UNL1        0.0533
     10 C          -1.0837    1.2108   -0.8306 C.ar    1  UNL1        0.0687
     11 C          -1.9029    0.2747   -0.0658 C.ar    1  UNL1        0.0000
     12 C          -2.3613   -0.9305   -0.5288 C.ar    1  UNL1       -0.0526
     13 C          -3.1300   -1.7815    0.2791 C.ar    1  UNL1       -0.0611
     14 C          -3.4435   -1.4169    1.5704 C.ar    1  UNL1       -0.0617
     15 C          -2.9846   -0.2081    2.0350 C.ar    1  UNL1       -0.0611
     16 C          -2.2286    0.6260    1.2373 C.ar    1  UNL1       -0.0526
     17 C           1.4679   -1.0090    0.5761 C.ar    1  UNL1       -0.0569
     18 C           2.3863   -1.1859    1.6051 C.ar    1  UNL1       -0.0614
     19 H           4.4055   -0.8284    2.2257 H       1  UNL1        0.0618
     20 H           5.0385    0.3069    0.1701 H       1  UNL1        0.0618
     21 H           3.3654    0.6033   -1.6475 H       1  UNL1        0.0621
     22 H           1.3248   -0.1639   -2.6488 H       1  UNL1        0.0542
     23 H           0.1523   -1.0934   -1.6964 H       1  UNL1        0.0542
     24 H           1.3618    2.3568   -2.6739 H       1  UNL1        0.1029
     25 H          -2.2279    3.0474   -0.5030 H       1  UNL1        0.0851
     26 H          -2.1492   -1.2356   -1.5232 H       1  UNL1        0.0624
     27 H          -3.4832   -2.7318   -0.1056 H       1  UNL1        0.0618
     28 H          -4.0382   -2.0980    2.1648 H       1  UNL1        0.0618
     29 H          -3.2458    0.0555    3.0557 H       1  UNL1        0.0618
     30 H          -1.8699    1.5913    1.6281 H       1  UNL1        0.0624
     31 H           0.4596   -1.3845    0.6995 H       1  UNL1        0.0621
     32 H           2.1121   -1.6899    2.5226 H       1  UNL1        0.0618
@<TRIPOS>BOND
     1     1     2   ar
     2     2     3   ar
     3     3     4   ar
     4     4     5    1
     5     5     6    1
     6     6     7   ar
     7     7     8   ar
     8     8     9   ar
     9     9    10   ar
    10    10    11    1
    11    11    12   ar
    12    12    13   ar
    13    13    14   ar
    14    14    15   ar
    15    15    16   ar
    16     4    17   ar
    17    17    18   ar
    18    18     1   ar
    19    10     6   ar
    20    16    11   ar
    21     1    19    1
    22     2    20    1
    23     3    21    1
    24     5    22    1
    25     5    23    1
    26     7    24    1
    27     9    25    1
    28    12    26    1
    29    13    27    1
    30    14    28    1
    31    15    29    1
    32    16    30    1
    33    17    31    1
    34    18    32    1
