@<TRIPOS>MOLECULE
*****
 52 55 0 0 0
SMALL
GASTEIGER

@<TRIPOS>ATOM
      1 C           3.5916    4.2066    1.9732 C.3     1  UNL1        0.0790
      2 O           3.5661    3.3654    0.8380 O.3     1  UNL1       -0.4915
      3 C           2.7582    2.2299    0.8341 C.ar    1  UNL1        0.1615
      4 C           1.9780    1.9084    1.9216 C.ar    1  UNL1       -0.0159
      5 C           1.1748    0.7653    1.8994 C.ar    1  UNL1       -0.0503
      6 C           1.1617   -0.0453    0.7854 C.ar    1  UNL1        0.0143
      7 C           0.3061   -1.2401    0.7934 C.3     1  UNL1        0.2647
      8 C          -1.1445   -0.8780    0.8359 C.ar    1  UNL1        0.0112
      9 C          -1.9169   -1.2280    1.9200 C.ar    1  UNL1       -0.0540
     10 C          -3.2621   -0.8838    1.9461 C.ar    1  UNL1       -0.0608
     11 C          -3.7800   -0.1946    0.8691 C.ar    1  UNL1       -0.0540
     12 C          -3.0422    0.1763   -0.2382 C.ar    1  UNL1       -0.0160
     13 C          -3.6073    0.8992   -1.3580 C.ar    1  UNL1        0.0002
     14 C          -2.8286    1.7727   -2.0790 C.ar    1  UNL1       -0.0512
     15 C          -3.3588    2.4794   -3.1666 C.ar    1  UNL1       -0.0430
     16 C          -4.6625    2.2976   -3.5130 C.ar    1  UNL1        0.0276
     17 N          -5.4320    1.4340   -2.8004 N.ar    1  UNL1       -0.2627
     18 C          -4.9181    0.7427   -1.7384 C.ar    1  UNL1        0.0352
     19 C          -1.6901   -0.1896   -0.2253 C.ar    1  UNL1       -0.0463
     20 N           0.6187   -1.9988    1.9700 N.2     1  UNL1       -0.0891
     21 C           1.0267   -3.1665    1.6531 C.2     1  UNL1        0.3731
     22 N           1.4250   -4.1810    2.5999 N.pl3   1  UNL1       -0.2512
     23 N           1.0341   -3.3735    0.2477 N.am    1  UNL1       -0.1614
     24 C           1.4398   -4.5808   -0.4673 C.3     1  UNL1        0.0573
     25 C           0.5671   -2.1664   -0.3215 C.2     1  UNL1        0.3303
     26 O           0.4332   -2.0140   -1.5755 O.2     1  UNL1       -0.2520
     27 C           1.9420    0.2917   -0.2802 C.ar    1  UNL1       -0.0086
     28 C           2.7524    1.4199   -0.2934 C.ar    1  UNL1        0.1619
     29 O           3.5237    1.7140   -1.4026 O.3     1  UNL1       -0.4914
     30 C           3.4675    0.8480   -2.5126 C.3     1  UNL1        0.0790
     31 H           4.3680    4.9806    1.8777 H       1  UNL1        0.0660
     32 H           3.7281    3.6584    2.9153 H       1  UNL1        0.0660
     33 H           2.6133    4.7546    2.0670 H       1  UNL1        0.0660
     34 H           2.0006    2.5594    2.7912 H       1  UNL1        0.0655
     35 H           0.5935    0.5785    2.7832 H       1  UNL1        0.0623
     36 H          -1.4866   -1.7713    2.7571 H       1  UNL1        0.0622
     37 H          -3.8848   -1.1593    2.8069 H       1  UNL1        0.0618
     38 H          -4.8292    0.0881    0.8616 H       1  UNL1        0.0624
     39 H          -1.7898    1.9635   -1.8586 H       1  UNL1        0.0625
     40 H          -2.7406    3.1503   -3.7115 H       1  UNL1        0.0633
     41 H          -5.0869    2.8363   -4.3510 H       1  UNL1        0.0829
     42 H          -5.5816    0.0778   -1.2213 H       1  UNL1        0.0836
     43 H          -1.1148    0.1104   -1.1089 H       1  UNL1        0.0628
     44 H           0.7730   -4.9434    2.8356 H       1  UNL1        0.2412
     45 H           2.3610   -4.1275    3.0285 H       1  UNL1        0.2412
     46 H           0.5950   -4.9868   -1.0733 H       1  UNL1        0.0602
     47 H           2.2704   -4.3695   -1.1621 H       1  UNL1        0.0602
     48 H           1.8131   -5.3035    0.2774 H       1  UNL1        0.0602
     49 H           1.9434   -0.3312   -1.1548 H       1  UNL1        0.0659
     50 H           4.1302    1.2719   -3.2999 H       1  UNL1        0.0660
     51 H           2.4071    0.7387   -2.8824 H       1  UNL1        0.0660
     52 H           3.7940   -0.1866   -2.2925 H       1  UNL1        0.0660
@<TRIPOS>BOND
     1     1     2    1
     2     2     3    1
     3     3     4   ar
     4     4     5   ar
     5     5     6   ar
     6     6     7    1
     7     7     8    1
     8     8     9   ar
     9     9    10   ar
    10    10    11   ar
    11    11    12   ar
    12    12    13    1
    13    13    14   ar
    14    14    15   ar
    15    15    16   ar
    16    16    17   ar
    17    17    18   ar
    18    12    19   ar
    19     7    20    1
    20    20    21    2
    21    21    22    1
    22    21    23    1
    23    23    24    1
    24    23    25   am
    25    25    26    2
    26     6    27   ar
    27    27    28   ar
    28    28    29    1
    29    29    30    1
    30    28     3   ar
    31    25     7    1
    32    19     8   ar
    33    18    13   ar
    34     1    31    1
    35     1    32    1
    36     1    33    1
    37     4    34    1
    38     5    35    1
    39     9    36    1
    40    10    37    1
    41    11    38    1
    42    14    39    1
    43    15    40    1
    44    16    41    1
    45    18    42    1
    46    19    43    1
    47    22    44    1
    48    22    45    1
    49    24    46    1
    50    24    47    1
    51    24    48    1
    52    27    49    1
    53    30    50    1
    54    30    51    1
    55    30    52    1
