@<TRIPOS>MOLECULE
*****
 95 95 0 0 0
SMALL
GASTEIGER

@<TRIPOS>ATOM
      1 C         -14.4750   -2.1125   -0.6868 C.3     1  UNL1       -0.0652
      2 C         -13.2586   -1.3362   -1.2257 C.3     1  UNL1       -0.0545
      3 C         -13.6652   -0.0771   -1.8914 C.3     1  UNL1       -0.0377
      4 C         -12.5955    0.7861   -2.4614 C.3     1  UNL1        0.0091
      5 N         -11.6088    1.2648   -1.5559 N.pl3   1  UNL1       -0.3438
      6 C         -10.4652    0.6485   -0.9964 C.ar    1  UNL1        0.0272
      7 C          -9.9755   -0.6067   -1.2720 C.ar    1  UNL1       -0.0401
      8 C          -8.8814   -1.2303   -0.7290 C.ar    1  UNL1       -0.0460
      9 C          -8.1882   -0.4972    0.2119 C.ar    1  UNL1        0.0591
     10 C          -8.5944    0.7726    0.5594 C.ar    1  UNL1       -0.0460
     11 C          -9.7121    1.3089   -0.0466 C.ar    1  UNL1       -0.0401
     12 C          -7.0012   -1.0388    0.8830 C.2     1  UNL1        0.3393
     13 O          -6.5870   -2.2085    0.5674 O.2     1  UNL1       -0.2450
     14 O          -6.3416   -0.3043    1.8403 O.3     1  UNL1       -0.4588
     15 C          -5.1790   -0.7555    2.5534 C.3     1  UNL1        0.1160
     16 C          -4.8594    0.3791    3.5014 C.3     1  UNL1        0.0819
     17 O          -4.6027    1.5349    3.0018 O.3     1  UNL1       -0.3742
     18 C          -3.7787    2.2379    2.3278 C.3     1  UNL1        0.0711
     19 C          -3.3772    1.7680    0.9557 C.3     1  UNL1        0.0711
     20 O          -2.7573    0.5592    1.0374 O.3     1  UNL1       -0.3752
     21 C          -2.2743    0.0278   -0.1426 C.3     1  UNL1        0.0711
     22 C          -1.6458   -1.3157    0.2414 C.3     1  UNL1        0.0711
     23 O          -1.1224   -1.9225   -0.8798 O.3     1  UNL1       -0.3752
     24 C          -0.1562   -1.1835   -1.5162 C.3     1  UNL1        0.0711
     25 C           0.9816   -0.8808   -0.6053 C.3     1  UNL1        0.0711
     26 O           2.0089   -0.1153   -1.2120 O.3     1  UNL1       -0.3752
     27 C           2.9528    0.0842   -0.1766 C.3     1  UNL1        0.0711
     28 C           4.0671    0.9216   -0.7096 C.3     1  UNL1        0.0711
     29 O           5.0478    1.1937    0.2148 O.3     1  UNL1       -0.3752
     30 C           5.7035    0.0805    0.7157 C.3     1  UNL1        0.0711
     31 C           6.7081    0.5235    1.7470 C.3     1  UNL1        0.0711
     32 O           7.6744    1.3748    1.3386 O.3     1  UNL1       -0.3752
     33 C           8.5496    0.9627    0.3706 C.3     1  UNL1        0.0711
     34 C           9.4931    2.1531    0.1402 C.3     1  UNL1        0.0711
     35 O          10.4423    1.9083   -0.8005 O.3     1  UNL1       -0.3752
     36 C          11.2860    0.8523   -0.5760 C.3     1  UNL1        0.0711
     37 C          12.0434    1.0096    0.6991 C.3     1  UNL1        0.0711
     38 O          12.9059    0.1420    1.1417 O.3     1  UNL1       -0.3752
     39 C          14.0543   -0.2396    0.6663 C.3     1  UNL1        0.0711
     40 C          14.1446   -0.9088   -0.6712 C.3     1  UNL1        0.0706
     41 O          15.5159   -1.2381   -0.9288 O.3     1  UNL1       -0.3807
     42 C          15.5372   -1.8614   -2.1712 C.3     1  UNL1        0.0365
     43 H         -14.1564   -2.8862    0.0403 H       1  UNL1        0.0230
     44 H         -15.0435   -2.5960   -1.4775 H       1  UNL1        0.0230
     45 H         -15.0803   -1.3825   -0.0758 H       1  UNL1        0.0230
     46 H         -12.6220   -1.1008   -0.3312 H       1  UNL1        0.0263
     47 H         -12.7219   -2.0460   -1.8474 H       1  UNL1        0.0263
     48 H         -14.3868    0.5155   -1.2518 H       1  UNL1        0.0280
     49 H         -14.3206   -0.3773   -2.7665 H       1  UNL1        0.0280
     50 H         -12.1120    0.2749   -3.3398 H       1  UNL1        0.0461
     51 H         -13.1193    1.6607   -2.9395 H       1  UNL1        0.0461
     52 H         -11.7618    2.2736   -1.2408 H       1  UNL1        0.1461
     53 H         -10.5082   -1.1922   -2.0181 H       1  UNL1        0.0636
     54 H          -8.5774   -2.2226   -1.0143 H       1  UNL1        0.0626
     55 H          -8.0453    1.3345    1.2951 H       1  UNL1        0.0626
     56 H          -9.9788    2.3249    0.2799 H       1  UNL1        0.0636
     57 H          -5.5300   -1.5948    3.2656 H       1  UNL1        0.0721
     58 H          -4.3902   -1.1503    1.9581 H       1  UNL1        0.0721
     59 H          -4.0937   -0.0028    4.2738 H       1  UNL1        0.0594
     60 H          -5.8313    0.4640    4.1345 H       1  UNL1        0.0594
     61 H          -2.7860    2.3764    2.9008 H       1  UNL1        0.0583
     62 H          -4.0729    3.3492    2.2120 H       1  UNL1        0.0583
     63 H          -2.6269    2.4805    0.5054 H       1  UNL1        0.0583
     64 H          -4.2639    1.7507    0.2765 H       1  UNL1        0.0583
     65 H          -3.0984   -0.1764   -0.8647 H       1  UNL1        0.0583
     66 H          -1.5369    0.7049   -0.6160 H       1  UNL1        0.0583
     67 H          -2.4811   -1.9284    0.6683 H       1  UNL1        0.0583
     68 H          -0.8917   -1.1940    1.0308 H       1  UNL1        0.0583
     69 H          -0.5383   -0.2935   -2.0562 H       1  UNL1        0.0583
     70 H           0.2576   -1.8571   -2.3261 H       1  UNL1        0.0583
     71 H           0.6842   -0.2423    0.2783 H       1  UNL1        0.0583
     72 H           1.4931   -1.8063   -0.2749 H       1  UNL1        0.0583
     73 H           2.4697    0.5900    0.6893 H       1  UNL1        0.0583
     74 H           3.2869   -0.9130    0.2094 H       1  UNL1        0.0583
     75 H           3.6713    1.8677   -1.0854 H       1  UNL1        0.0583
     76 H           4.5709    0.3258   -1.5259 H       1  UNL1        0.0583
     77 H           4.9375   -0.5103    1.3029 H       1  UNL1        0.0583
     78 H           6.0709   -0.6109   -0.0372 H       1  UNL1        0.0583
     79 H           7.1867   -0.3830    2.2314 H       1  UNL1        0.0583
     80 H           6.1533    0.9956    2.5803 H       1  UNL1        0.0583
     81 H           8.0711    0.7755   -0.6102 H       1  UNL1        0.0583
     82 H           9.2005    0.1236    0.7026 H       1  UNL1        0.0583
     83 H           8.8513    3.0274   -0.2093 H       1  UNL1        0.0583
     84 H           9.9550    2.4884    1.0874 H       1  UNL1        0.0583
     85 H          11.9522    0.7664   -1.4836 H       1  UNL1        0.0583
     86 H          10.7266   -0.1137   -0.5587 H       1  UNL1        0.0583
     87 H          11.2211    1.1070    1.5014 H       1  UNL1        0.0583
     88 H          12.4391    2.0901    0.7159 H       1  UNL1        0.0583
     89 H          14.7290    0.7053    0.5893 H       1  UNL1        0.0583
     90 H          14.6532   -0.8746    1.4291 H       1  UNL1        0.0583
     91 H          13.6027   -1.8673   -0.7015 H       1  UNL1        0.0582
     92 H          13.8262   -0.2924   -1.5258 H       1  UNL1        0.0582
     93 H          16.5731   -2.1520   -2.4510 H       1  UNL1        0.0524
     94 H          14.8957   -2.7477   -2.1053 H       1  UNL1        0.0524
     95 H          15.0830   -1.1517   -2.8838 H       1  UNL1        0.0524
@<TRIPOS>BOND
     1     1     2    1
     2     2     3    1
     3     3     4    1
     4     4     5    1
     5     5     6    1
     6     6     7   ar
     7     7     8   ar
     8     8     9   ar
     9     9    10   ar
    10    10    11   ar
    11     9    12    1
    12    12    13    2
    13    12    14    1
    14    14    15    1
    15    15    16    1
    16    16    17    1
    17    17    18    1
    18    18    19    1
    19    19    20    1
    20    20    21    1
    21    21    22    1
    22    22    23    1
    23    23    24    1
    24    24    25    1
    25    25    26    1
    26    26    27    1
    27    27    28    1
    28    28    29    1
    29    29    30    1
    30    30    31    1
    31    31    32    1
    32    32    33    1
    33    33    34    1
    34    34    35    1
    35    35    36    1
    36    36    37    1
    37    37    38    1
    38    38    39    1
    39    39    40    1
    40    40    41    1
    41    41    42    1
    42    11     6   ar
    43     1    43    1
    44     1    44    1
    45     1    45    1
    46     2    46    1
    47     2    47    1
    48     3    48    1
    49     3    49    1
    50     4    50    1
    51     4    51    1
    52     5    52    1
    53     7    53    1
    54     8    54    1
    55    10    55    1
    56    11    56    1
    57    15    57    1
    58    15    58    1
    59    16    59    1
    60    16    60    1
    61    18    61    1
    62    18    62    1
    63    19    63    1
    64    19    64    1
    65    21    65    1
    66    21    66    1
    67    22    67    1
    68    22    68    1
    69    24    69    1
    70    24    70    1
    71    25    71    1
    72    25    72    1
    73    27    73    1
    74    27    74    1
    75    28    75    1
    76    28    76    1
    77    30    77    1
    78    30    78    1
    79    31    79    1
    80    31    80    1
    81    33    81    1
    82    33    82    1
    83    34    83    1
    84    34    84    1
    85    36    85    1
    86    36    86    1
    87    37    87    1
    88    37    88    1
    89    39    89    1
    90    39    90    1
    91    40    91    1
    92    40    92    1
    93    42    93    1
    94    42    94    1
    95    42    95    1
