@<TRIPOS>MOLECULE
*****
 49 52 0 0 0
SMALL
GASTEIGER

@<TRIPOS>ATOM
      1 C           2.0419    0.9363    0.3645 C.3     1  UNL1       -0.0252
      2 C           3.0535    1.8143   -0.2857 C.3     1  UNL1       -0.0424
      3 C           4.3634    1.3891    0.3472 C.3     1  UNL1        0.0067
      4 C           4.0312    0.1793    1.1784 C.2     1  UNL1        0.1395
      5 O           4.6285   -0.2334    2.1590 O.2     1  UNL1       -0.2968
      6 C           2.8209   -0.3559    0.5030 C.3     1  UNL1        0.0293
      7 C           3.2381   -0.9374   -0.8196 C.3     1  UNL1       -0.0526
      8 C           2.0206   -1.2791    1.3557 C.3     1  UNL1       -0.0404
      9 C           0.7063   -1.5352    0.6276 C.3     1  UNL1       -0.0483
     10 C          -0.0554   -0.2608    0.4525 C.3     1  UNL1       -0.0285
     11 C           0.7381    0.7839   -0.3219 C.3     1  UNL1       -0.0303
     12 C          -0.0294    2.0931   -0.0913 C.3     1  UNL1       -0.0311
     13 C          -1.4318    1.9291   -0.5318 C.2     1  UNL1       -0.0839
     14 C          -2.0423    0.7504   -0.5601 C.2     1  UNL1       -0.0648
     15 C          -3.4412    0.7265   -1.0201 C.3     1  UNL1       -0.0051
     16 C          -4.2692    0.0902    0.1030 C.3     1  UNL1        0.0590
     17 O          -5.5825    0.0707   -0.3459 O.3     1  UNL1       -0.3915
     18 C          -3.7081   -1.2936    0.3048 C.3     1  UNL1       -0.0258
     19 C          -2.3108   -1.1669    0.8591 C.3     1  UNL1       -0.0413
     20 C          -1.3928   -0.5232   -0.1568 C.3     1  UNL1       -0.0078
     21 C          -1.3113   -1.4258   -1.3600 C.3     1  UNL1       -0.0556
     22 H           1.8749    1.3155    1.3915 H       1  UNL1        0.0313
     23 H           2.8357    2.8917   -0.1279 H       1  UNL1        0.0272
     24 H           3.0864    1.6958   -1.3974 H       1  UNL1        0.0272
     25 H           4.7102    2.2340    0.9746 H       1  UNL1        0.0342
     26 H           5.1277    1.1243   -0.4059 H       1  UNL1        0.0342
     27 H           3.8428   -1.8228   -0.6171 H       1  UNL1        0.0239
     28 H           3.8678   -0.1874   -1.3298 H       1  UNL1        0.0239
     29 H           2.3929   -1.2405   -1.4510 H       1  UNL1        0.0239
     30 H           1.7867   -0.7447    2.2912 H       1  UNL1        0.0275
     31 H           2.5523   -2.2355    1.5114 H       1  UNL1        0.0275
     32 H           0.0575   -2.2095    1.2283 H       1  UNL1        0.0269
     33 H           0.8779   -2.0668   -0.3246 H       1  UNL1        0.0269
     34 H          -0.2005    0.1828    1.4633 H       1  UNL1        0.0312
     35 H           0.8067    0.5408   -1.3846 H       1  UNL1        0.0310
     36 H           0.4775    2.9498   -0.5347 H       1  UNL1        0.0310
     37 H          -0.0341    2.2174    1.0119 H       1  UNL1        0.0310
     38 H          -1.9424    2.8376   -0.8352 H       1  UNL1        0.0572
     39 H          -3.8689    1.7263   -1.1777 H       1  UNL1        0.0335
     40 H          -3.6139    0.1642   -1.9504 H       1  UNL1        0.0335
     41 H          -4.1771    0.7416    0.9922 H       1  UNL1        0.0596
     42 H          -6.1348   -0.5475    0.1616 H       1  UNL1        0.2098
     43 H          -3.7544   -1.8215   -0.6520 H       1  UNL1        0.0290
     44 H          -4.3388   -1.8082    1.0657 H       1  UNL1        0.0290
     45 H          -1.9833   -2.1861    1.1496 H       1  UNL1        0.0274
     46 H          -2.3567   -0.5387    1.7511 H       1  UNL1        0.0274
     47 H          -0.3146   -1.3740   -1.8581 H       1  UNL1        0.0238
     48 H          -2.0457   -1.1267   -2.1594 H       1  UNL1        0.0238
     49 H          -1.5997   -2.4634   -1.0684 H       1  UNL1        0.0238
@<TRIPOS>BOND
     1     1     2    1
     2     2     3    1
     3     3     4    1
     4     4     5    2
     5     4     6    1
     6     6     7    1
     7     6     8    1
     8     8     9    1
     9     9    10    1
    10    10    11    1
    11    11    12    1
    12    12    13    1
    13    13    14    2
    14    14    15    1
    15    15    16    1
    16    16    17    1
    17    16    18    1
    18    18    19    1
    19    19    20    1
    20    20    21    1
    21     6     1    1
    22    20    10    1
    23    11     1    1
    24    20    14    1
    25     1    22    1
    26     2    23    1
    27     2    24    1
    28     3    25    1
    29     3    26    1
    30     7    27    1
    31     7    28    1
    32     7    29    1
    33     8    30    1
    34     8    31    1
    35     9    32    1
    36     9    33    1
    37    10    34    1
    38    11    35    1
    39    12    36    1
    40    12    37    1
    41    13    38    1
    42    15    39    1
    43    15    40    1
    44    16    41    1
    45    17    42    1
    46    18    43    1
    47    18    44    1
    48    19    45    1
    49    19    46    1
    50    21    47    1
    51    21    48    1
    52    21    49    1
