
     RDKit          3D

 17 11  0  0  0  0  0  0  0  0999 V2000
   -0.0057    0.3852   -0.0000 O   0  0  0  0  0  0  0  0  0  0  0  0
    0.5705    0.0000    0.0000 O   0  0  0  0  0  0  0  0  0  0  0  0
   -0.5705    0.0000    0.0000 O   0  0  0  0  0  0  0  0  0  0  0  0
   -1.3915   -0.3226   -0.0000 O   0  0  0  0  0  1  0  0  0  0  0  0
   -0.0025    0.6435   -0.0000 Cl  0  0  0  0  0  2  0  0  0  0  0  0
    1.3940   -0.3209    0.0000 O   0  0  0  0  0  0  0  0  0  0  0  0
   -1.3915   -0.3226   -0.0000 O   0  0  0  0  0  1  0  0  0  0  0  0
   -0.0025    0.6435   -0.0000 Cl  0  0  0  0  0  2  0  0  0  0  0  0
    1.3940   -0.3209    0.0000 O   0  0  0  0  0  0  0  0  0  0  0  0
   -1.3915   -0.3226   -0.0000 O   0  0  0  0  0  1  0  0  0  0  0  0
   -0.0025    0.6435   -0.0000 Cl  0  0  0  0  0  2  0  0  0  0  0  0
    1.3940   -0.3209    0.0000 O   0  0  0  0  0  0  0  0  0  0  0  0
   -1.3915   -0.3226   -0.0000 O   0  0  0  0  0  1  0  0  0  0  0  0
   -0.0025    0.6435   -0.0000 Cl  0  0  0  0  0  2  0  0  0  0  0  0
    1.3940   -0.3209    0.0000 O   0  0  0  0  0  0  0  0  0  0  0  0
   -0.7961   -0.1947   -0.0000 H   0  0  0  0  0  0  0  0  0  0  0  0
    0.8018   -0.1905    0.0000 H   0  0  0  0  0  0  0  0  0  0  0  0
  2  3  2  0
  4  5  1  0
  5  6  1  0
  7  8  1  0
  8  9  1  0
 10 11  1  0
 11 12  1  0
 13 14  1  0
 14 15  1  0
  1 16  1  0
  1 17  1  0
M  CHG  8   4  -1   5   1   6  -1   7  -1   8   1   9  -1  10  -1  11   1
M  CHG  4  12  -1  13  -1  14   1  15  -1
M  END
$$$$
