@<TRIPOS>MOLECULE
*****
 45 48 0 0 0
SMALL
GASTEIGER

@<TRIPOS>ATOM
      1 C           6.1099   -0.3225   -0.5364 C.3     1  UNL1       -0.0193
      2 C           4.8950   -0.0536    0.2725 C.ar    1  UNL1        0.0765
      3 C           4.7717   -0.1035    1.6395 C.ar    1  UNL1        0.1151
      4 O           3.5331    0.2033    1.9208 O.2     1  UNL1       -0.4450
      5 C           2.8434    0.4475    0.8537 C.ar    1  UNL1        0.2245
      6 C           1.4107    0.8309    0.7027 C.3     1  UNL1        0.1347
      7 C           0.9429    0.7149   -0.7028 C.3     1  UNL1       -0.0114
      8 C          -0.4456    0.1737   -0.9014 C.3     1  UNL1        0.0055
      9 C          -0.3131   -1.0103   -1.8351 C.3     1  UNL1        0.0151
     10 C           0.7736   -1.9600   -1.4314 C.3     1  UNL1       -0.0526
     11 S          -1.8993   -1.9523   -1.8513 S.3     1  UNL1       -0.0876
     12 C          -2.0494   -2.2971   -0.0728 C.2     1  UNL1        0.1478
     13 N          -2.4711   -3.5621    0.3486 N.pl3   1  UNL1       -0.3380
     14 N          -1.7388   -1.2990    0.6394 N.2     1  UNL1       -0.2495
     15 C          -1.3033    0.0177    0.2769 C.3     1  UNL1        0.1188
     16 C          -2.5374    0.8581    0.2557 C.ar    1  UNL1        0.0178
     17 C          -3.7774    0.3309    0.5304 C.ar    1  UNL1       -0.0507
     18 C          -4.9297    1.0888    0.5083 C.ar    1  UNL1       -0.0259
     19 C          -4.8488    2.4115    0.2038 C.ar    1  UNL1        0.1261
     20 F          -5.9547    3.2239    0.1635 F       1  UNL1       -0.2054
     21 C          -3.6408    2.9811   -0.0761 C.ar    1  UNL1        0.0091
     22 C          -2.4855    2.1871   -0.0462 C.ar    1  UNL1        0.1317
     23 F          -1.3337    2.7790   -0.3155 F       1  UNL1       -0.2050
     24 C          -0.5920    0.5153    1.5717 C.3     1  UNL1        0.0783
     25 O           0.6910   -0.0094    1.5466 O.3     1  UNL1       -0.3645
     26 N           3.6741    0.2933   -0.1921 N.ar    1  UNL1       -0.2164
     27 H           6.9950   -0.0637    0.0976 H       1  UNL1        0.0293
     28 H           6.1235    0.2737   -1.4548 H       1  UNL1        0.0293
     29 H           6.1237   -1.3866   -0.8317 H       1  UNL1        0.0293
     30 H           5.5276   -0.3440    2.3569 H       1  UNL1        0.1049
     31 H           1.3223    1.8993    1.0594 H       1  UNL1        0.0694
     32 H           1.0908    1.7361   -1.1705 H       1  UNL1        0.0299
     33 H           1.7307    0.1054   -1.2454 H       1  UNL1        0.0299
     34 H          -0.9561    0.9518   -1.5678 H       1  UNL1        0.0340
     35 H          -0.0994   -0.6740   -2.8592 H       1  UNL1        0.0417
     36 H           1.7318   -1.7992   -1.9644 H       1  UNL1        0.0240
     37 H           1.0012   -1.9663   -0.3591 H       1  UNL1        0.0240
     38 H           0.4472   -2.9807   -1.7009 H       1  UNL1        0.0240
     39 H          -2.9182   -3.6771    1.2966 H       1  UNL1        0.1442
     40 H          -2.3543   -4.3972   -0.2527 H       1  UNL1        0.1442
     41 H          -3.8913   -0.7152    0.7775 H       1  UNL1        0.0623
     42 H          -5.8957    0.6540    0.7277 H       1  UNL1        0.0646
     43 H          -3.5838    4.0352   -0.3178 H       1  UNL1        0.0675
     44 H          -1.1793    0.2461    2.4524 H       1  UNL1        0.0588
     45 H          -0.5405    1.6151    1.4831 H       1  UNL1        0.0588
@<TRIPOS>BOND
     1     1     2    1
     2     2     3   ar
     3     3     4   ar
     4     4     5   ar
     5     5     6    1
     6     6     7    1
     7     7     8    1
     8     8     9    1
     9     9    10    1
    10     9    11    1
    11    11    12    1
    12    12    13    1
    13    12    14    2
    14    14    15    1
    15    15    16    1
    16    16    17   ar
    17    17    18   ar
    18    18    19   ar
    19    19    20    1
    20    19    21   ar
    21    21    22   ar
    22    22    23    1
    23    15    24    1
    24    24    25    1
    25     5    26   ar
    26    26     2   ar
    27    25     6    1
    28    15     8    1
    29    22    16   ar
    30     1    27    1
    31     1    28    1
    32     1    29    1
    33     3    30    1
    34     6    31    1
    35     7    32    1
    36     7    33    1
    37     8    34    1
    38     9    35    1
    39    10    36    1
    40    10    37    1
    41    10    38    1
    42    13    39    1
    43    13    40    1
    44    17    41    1
    45    18    42    1
    46    21    43    1
    47    24    44    1
    48    24    45    1
