@<TRIPOS>MOLECULE
*****
 49 53 0 0 0
SMALL
GASTEIGER

@<TRIPOS>ATOM
      1 N           4.3648   -1.4266    3.3642 N.am    1  UNL1       -0.3240
      2 C           3.2341   -1.0279    2.6181 C.2     1  UNL1        0.2615
      3 O           2.0763   -1.0687    3.1405 O.2     1  UNL1       -0.2687
      4 C           3.3773   -0.5651    1.2420 C.ar    1  UNL1        0.1470
      5 C           4.5443   -0.4571    0.5194 C.ar    1  UNL1        0.0605
      6 N           4.2525    0.0006   -0.6875 N.ar    1  UNL1       -0.2339
      7 C           2.9054    0.1793   -0.7218 C.ar    1  UNL1        0.1549
      8 C           2.0889    0.6343   -1.7349 C.ar    1  UNL1       -0.0153
      9 C           0.7547    0.7120   -1.4850 C.ar    1  UNL1       -0.0290
     10 C           0.2080    0.3530   -0.2635 C.ar    1  UNL1        0.1103
     11 C          -1.2197    0.4914   -0.0939 C.ar    1  UNL1        0.0969
     12 C          -1.8616    1.7406   -0.0742 C.ar    1  UNL1        0.0983
     13 C          -1.1743    3.0163   -0.2189 C.ar    1  UNL1        0.0040
     14 C          -1.4757    3.8508   -1.2828 C.ar    1  UNL1       -0.0497
     15 C          -0.8488    5.0672   -1.4579 C.ar    1  UNL1       -0.0244
     16 C           0.1117    5.5075   -0.5747 C.ar    1  UNL1        0.1417
     17 F           0.7434    6.6985   -0.7237 F       1  UNL1       -0.2040
     18 C           0.4243    4.6890    0.4905 C.ar    1  UNL1        0.0767
     19 CL          1.6490    5.2323    1.6306 Cl      1  UNL1       -0.0806
     20 C          -0.2104    3.4790    0.6504 C.ar    1  UNL1       -0.0313
     21 N          -3.1624    1.4614    0.0985 N.ar    1  UNL1       -0.2351
     22 C          -3.3248    0.1321    0.1811 C.ar    1  UNL1        0.0974
     23 N          -2.1083   -0.4752    0.0603 N.ar    1  UNL1       -0.3251
     24 C          -1.9747   -1.8834    0.1053 C.3     1  UNL1        0.0402
     25 C          -0.6507   -2.4642   -0.2112 C.3     1  UNL1       -0.0084
     26 C          -0.9086   -3.9362   -0.6076 C.3     1  UNL1        0.0495
     27 O          -1.9252   -4.3791    0.2438 O.3     1  UNL1       -0.3796
     28 C          -3.1189   -3.9769   -0.4007 C.3     1  UNL1        0.0495
     29 C          -2.9841   -2.5408   -0.8579 C.3     1  UNL1       -0.0084
     30 N           1.0427   -0.0808    0.6825 N.ar    1  UNL1       -0.1628
     31 N           2.3393   -0.1585    0.4459 N.ar    1  UNL1       -0.2076
     32 H           5.1715   -0.7951    3.4504 H       1  UNL1        0.1453
     33 H           4.3711   -2.3505    3.8172 H       1  UNL1        0.1453
     34 H           5.5506   -0.6955    0.8453 H       1  UNL1        0.0854
     35 H           2.5516    0.9072   -2.6801 H       1  UNL1        0.0655
     36 H           0.1273    1.0759   -2.3040 H       1  UNL1        0.0641
     37 H          -2.2379    3.5036   -1.9854 H       1  UNL1        0.0625
     38 H          -1.0946    5.6958   -2.2835 H       1  UNL1        0.0647
     39 H           0.0656    2.8728    1.4972 H       1  UNL1        0.0640
     40 H          -4.2885   -0.3350    0.3232 H       1  UNL1        0.1029
     41 H          -2.2746   -2.3137    1.1133 H       1  UNL1        0.0530
     42 H          -0.0747   -1.9884   -1.0035 H       1  UNL1        0.0307
     43 H          -0.0756   -2.5892    0.7568 H       1  UNL1        0.0307
     44 H          -1.2283   -3.9611   -1.6475 H       1  UNL1        0.0560
     45 H           0.0024   -4.5419   -0.4020 H       1  UNL1        0.0560
     46 H          -3.2183   -4.6662   -1.2709 H       1  UNL1        0.0560
     47 H          -3.9647   -4.0917    0.3059 H       1  UNL1        0.0560
     48 H          -3.9366   -2.0360   -0.7064 H       1  UNL1        0.0307
     49 H          -2.6149   -2.4959   -1.9028 H       1  UNL1        0.0307
@<TRIPOS>BOND
     1     1     2   am
     2     2     3    2
     3     2     4    1
     4     4     5   ar
     5     5     6   ar
     6     6     7   ar
     7     7     8   ar
     8     8     9   ar
     9     9    10   ar
    10    10    11    1
    11    11    12   ar
    12    12    13    1
    13    13    14   ar
    14    14    15   ar
    15    15    16   ar
    16    16    17    1
    17    16    18   ar
    18    18    19    1
    19    18    20   ar
    20    12    21   ar
    21    21    22   ar
    22    22    23   ar
    23    23    24    1
    24    24    25    1
    25    25    26    1
    26    26    27    1
    27    27    28    1
    28    28    29    1
    29    10    30   ar
    30    30    31   ar
    31    31     4   ar
    32    31     7   ar
    33    23    11   ar
    34    29    24    1
    35    20    13   ar
    36     1    32    1
    37     1    33    1
    38     5    34    1
    39     8    35    1
    40     9    36    1
    41    14    37    1
    42    15    38    1
    43    20    39    1
    44    22    40    1
    45    24    41    1
    46    25    42    1
    47    25    43    1
    48    26    44    1
    49    26    45    1
    50    28    46    1
    51    28    47    1
    52    29    48    1
    53    29    49    1
