
     RDKit          3D

 49 53  0  0  0  0  0  0  0  0999 V2000
    4.3648   -1.4266    3.3642 N   0  0  0  0  0  0  0  0  0  0  0  0
    3.2341   -1.0279    2.6181 C   0  0  0  0  0  0  0  0  0  0  0  0
    2.0763   -1.0687    3.1405 O   0  0  0  0  0  0  0  0  0  0  0  0
    3.3773   -0.5651    1.2420 C   0  0  0  0  0  0  0  0  0  0  0  0
    4.5443   -0.4571    0.5194 C   0  0  0  0  0  0  0  0  0  0  0  0
    4.2525    0.0006   -0.6875 N   0  0  0  0  0  0  0  0  0  0  0  0
    2.9054    0.1793   -0.7218 C   0  0  0  0  0  0  0  0  0  0  0  0
    2.0889    0.6343   -1.7349 C   0  0  0  0  0  0  0  0  0  0  0  0
    0.7547    0.7120   -1.4850 C   0  0  0  0  0  0  0  0  0  0  0  0
    0.2080    0.3530   -0.2635 C   0  0  0  0  0  0  0  0  0  0  0  0
   -1.2197    0.4914   -0.0939 C   0  0  0  0  0  0  0  0  0  0  0  0
   -1.8616    1.7406   -0.0742 C   0  0  0  0  0  0  0  0  0  0  0  0
   -1.1743    3.0163   -0.2189 C   0  0  0  0  0  0  0  0  0  0  0  0
   -1.4757    3.8508   -1.2828 C   0  0  0  0  0  0  0  0  0  0  0  0
   -0.8488    5.0672   -1.4579 C   0  0  0  0  0  0  0  0  0  0  0  0
    0.1117    5.5075   -0.5747 C   0  0  0  0  0  0  0  0  0  0  0  0
    0.7434    6.6985   -0.7237 F   0  0  0  0  0  0  0  0  0  0  0  0
    0.4243    4.6890    0.4905 C   0  0  0  0  0  0  0  0  0  0  0  0
    1.6490    5.2323    1.6306 Cl  0  0  0  0  0  0  0  0  0  0  0  0
   -0.2104    3.4790    0.6504 C   0  0  0  0  0  0  0  0  0  0  0  0
   -3.1624    1.4614    0.0985 N   0  0  0  0  0  0  0  0  0  0  0  0
   -3.3248    0.1321    0.1811 C   0  0  0  0  0  0  0  0  0  0  0  0
   -2.1083   -0.4752    0.0603 N   0  0  0  0  0  0  0  0  0  0  0  0
   -1.9747   -1.8834    0.1053 C   0  0  0  0  0  0  0  0  0  0  0  0
   -0.6507   -2.4642   -0.2112 C   0  0  0  0  0  0  0  0  0  0  0  0
   -0.9086   -3.9362   -0.6076 C   0  0  0  0  0  0  0  0  0  0  0  0
   -1.9252   -4.3791    0.2438 O   0  0  0  0  0  0  0  0  0  0  0  0
   -3.1189   -3.9769   -0.4007 C   0  0  0  0  0  0  0  0  0  0  0  0
   -2.9841   -2.5408   -0.8579 C   0  0  0  0  0  0  0  0  0  0  0  0
    1.0427   -0.0808    0.6825 N   0  0  0  0  0  0  0  0  0  0  0  0
    2.3393   -0.1585    0.4459 N   0  0  0  0  0  0  0  0  0  0  0  0
    5.1715   -0.7951    3.4504 H   0  0  0  0  0  0  0  0  0  0  0  0
    4.3711   -2.3505    3.8172 H   0  0  0  0  0  0  0  0  0  0  0  0
    5.5506   -0.6955    0.8453 H   0  0  0  0  0  0  0  0  0  0  0  0
    2.5516    0.9072   -2.6801 H   0  0  0  0  0  0  0  0  0  0  0  0
    0.1273    1.0759   -2.3040 H   0  0  0  0  0  0  0  0  0  0  0  0
   -2.2379    3.5036   -1.9854 H   0  0  0  0  0  0  0  0  0  0  0  0
   -1.0946    5.6958   -2.2835 H   0  0  0  0  0  0  0  0  0  0  0  0
    0.0656    2.8728    1.4972 H   0  0  0  0  0  0  0  0  0  0  0  0
   -4.2885   -0.3350    0.3232 H   0  0  0  0  0  0  0  0  0  0  0  0
   -2.2746   -2.3137    1.1133 H   0  0  0  0  0  0  0  0  0  0  0  0
   -0.0747   -1.9884   -1.0035 H   0  0  0  0  0  0  0  0  0  0  0  0
   -0.0756   -2.5892    0.7568 H   0  0  0  0  0  0  0  0  0  0  0  0
   -1.2283   -3.9611   -1.6475 H   0  0  0  0  0  0  0  0  0  0  0  0
    0.0024   -4.5419   -0.4020 H   0  0  0  0  0  0  0  0  0  0  0  0
   -3.2183   -4.6662   -1.2709 H   0  0  0  0  0  0  0  0  0  0  0  0
   -3.9647   -4.0917    0.3059 H   0  0  0  0  0  0  0  0  0  0  0  0
   -3.9366   -2.0360   -0.7064 H   0  0  0  0  0  0  0  0  0  0  0  0
   -2.6149   -2.4959   -1.9028 H   0  0  0  0  0  0  0  0  0  0  0  0
  1  2  1  0
  2  3  2  0
  2  4  1  0
  4  5  2  0
  5  6  1  0
  6  7  2  0
  7  8  1  0
  8  9  2  0
  9 10  1  0
 10 11  1  0
 11 12  2  0
 12 13  1  0
 13 14  2  0
 14 15  1  0
 15 16  2  0
 16 17  1  0
 16 18  1  0
 18 19  1  0
 18 20  2  0
 12 21  1  0
 21 22  2  0
 22 23  1  0
 23 24  1  0
 24 25  1  0
 25 26  1  0
 26 27  1  0
 27 28  1  0
 28 29  1  0
 10 30  2  0
 30 31  1  0
 31  4  1  0
 31  7  1  0
 23 11  1  0
 29 24  1  0
 20 13  1  0
  1 32  1  0
  1 33  1  0
  5 34  1  0
  8 35  1  0
  9 36  1  0
 14 37  1  0
 15 38  1  0
 20 39  1  0
 22 40  1  0
 24 41  1  0
 25 42  1  0
 25 43  1  0
 26 44  1  0
 26 45  1  0
 28 46  1  0
 28 47  1  0
 29 48  1  0
 29 49  1  0
M  END
$$$$
