@<TRIPOS>MOLECULE
*****
 57 60 0 0 0
SMALL
GASTEIGER

@<TRIPOS>ATOM
      1 O           6.1792    1.1500   -0.2840 O.2     1  UNL1       -0.2758
      2 C           5.8352   -0.0307   -0.5045 C.2     1  UNL1        0.2134
      3 C           6.8845   -1.0795   -0.5948 C.3     1  UNL1        0.0268
      4 C           8.2469   -0.4982   -0.3961 C.3     1  UNL1       -0.0328
      5 C           8.4967    0.1828    0.9114 C.3     1  UNL1       -0.0495
      6 C           9.1815   -1.1033    0.6104 C.3     1  UNL1       -0.0495
      7 N           4.4652   -0.3697   -0.6670 N.am    1  UNL1       -0.3126
      8 C           3.4885    0.6750   -0.5717 C.3     1  UNL1        0.0405
      9 C           2.0805    0.1932   -0.7613 C.3     1  UNL1        0.0843
     10 O           1.9025   -0.3904   -2.0032 O.3     1  UNL1       -0.3869
     11 C           1.1675    1.4208   -0.6650 C.3     1  UNL1       -0.0066
     12 C          -0.2038    0.9488   -1.0982 C.3     1  UNL1        0.0175
     13 N          -0.6599   -0.1813   -0.3372 N.pl3   1  UNL1       -0.2994
     14 C          -2.0430   -0.2961   -0.0367 C.ar    1  UNL1        0.2214
     15 N          -2.8876    0.6459   -0.4632 N.ar    1  UNL1       -0.1790
     16 C          -4.2098    0.6183   -0.2261 C.ar    1  UNL1        0.2254
     17 O          -4.9988    1.6464   -0.7137 O.3     1  UNL1       -0.4378
     18 C          -6.3672    1.5943   -0.4546 C.ar    1  UNL1        0.1331
     19 C          -6.8720    2.1803    0.6881 C.ar    1  UNL1       -0.0191
     20 C          -8.2460    2.1258    0.9444 C.ar    1  UNL1       -0.0556
     21 C          -9.1252    1.5015    0.0885 C.ar    1  UNL1       -0.0262
     22 C          -8.6173    0.9108   -1.0632 C.ar    1  UNL1        0.1269
     23 F          -9.4707    0.2921   -1.9157 F       1  UNL1       -0.2054
     24 C          -7.2553    0.9714   -1.3058 C.ar    1  UNL1        0.0160
     25 C          -4.6837   -0.4575    0.5010 C.ar    1  UNL1        0.0305
     26 C          -3.8416   -1.4549    0.9613 C.ar    1  UNL1        0.1522
     27 C          -4.3487   -2.6102    1.7414 C.3     1  UNL1        0.4345
     28 F          -5.6275   -2.9624    1.2924 F       1  UNL1       -0.1644
     29 F          -3.5675   -3.7279    1.5846 F       1  UNL1       -0.1644
     30 F          -4.4957   -2.2396    3.0679 F       1  UNL1       -0.1644
     31 N          -2.5330   -1.3448    0.6766 N.ar    1  UNL1       -0.2101
     32 C           0.2475   -1.2142    0.1367 C.3     1  UNL1        0.0175
     33 C           1.6465   -0.7433    0.3295 C.3     1  UNL1       -0.0066
     34 H           6.7217   -1.8892    0.1551 H       1  UNL1        0.0361
     35 H           6.8566   -1.5579   -1.6040 H       1  UNL1        0.0361
     36 H           8.7179   -0.0587   -1.3119 H       1  UNL1        0.0305
     37 H           7.7119    0.2252    1.6755 H       1  UNL1        0.0268
     38 H           9.0702    1.1457    0.8413 H       1  UNL1        0.0268
     39 H           8.8495   -1.9980    1.2022 H       1  UNL1        0.0268
     40 H          10.2541   -1.1313    0.3834 H       1  UNL1        0.0268
     41 H           4.2398   -1.3689   -0.8485 H       1  UNL1        0.1488
     42 H           3.6126    1.2761    0.3443 H       1  UNL1        0.0490
     43 H           3.6989    1.3857   -1.4216 H       1  UNL1        0.0490
     44 H           2.5797   -0.0794   -2.6749 H       1  UNL1        0.2102
     45 H           1.4983    2.2049   -1.3599 H       1  UNL1        0.0309
     46 H           1.1035    1.7778    0.3791 H       1  UNL1        0.0309
     47 H          -0.1748    0.6280   -2.1680 H       1  UNL1        0.0465
     48 H          -0.9037    1.8006   -0.9467 H       1  UNL1        0.0465
     49 H          -6.1859    2.6721    1.3640 H       1  UNL1        0.0654
     50 H          -8.6601    2.5821    1.8396 H       1  UNL1        0.0620
     51 H         -10.1923    1.4401    0.2542 H       1  UNL1        0.0646
     52 H          -6.8326    0.5196   -2.1951 H       1  UNL1        0.0683
     53 H          -5.7426   -0.4877    0.6958 H       1  UNL1        0.0692
     54 H           0.1731   -2.0703   -0.5670 H       1  UNL1        0.0465
     55 H          -0.1839   -1.5917    1.1068 H       1  UNL1        0.0465
     56 H           1.7036   -0.1590    1.2915 H       1  UNL1        0.0309
     57 H           2.3166   -1.6190    0.3483 H       1  UNL1        0.0309
@<TRIPOS>BOND
     1     1     2    2
     2     2     3    1
     3     3     4    1
     4     4     5    1
     5     5     6    1
     6     2     7   am
     7     7     8    1
     8     8     9    1
     9     9    10    1
    10     9    11    1
    11    11    12    1
    12    12    13    1
    13    13    14    1
    14    14    15   ar
    15    15    16   ar
    16    16    17    1
    17    17    18    1
    18    18    19   ar
    19    19    20   ar
    20    20    21   ar
    21    21    22   ar
    22    22    23    1
    23    22    24   ar
    24    16    25   ar
    25    25    26   ar
    26    26    27    1
    27    27    28    1
    28    27    29    1
    29    27    30    1
    30    26    31   ar
    31    13    32    1
    32    32    33    1
    33     6     4    1
    34    33     9    1
    35    31    14   ar
    36    24    18   ar
    37     3    34    1
    38     3    35    1
    39     4    36    1
    40     5    37    1
    41     5    38    1
    42     6    39    1
    43     6    40    1
    44     7    41    1
    45     8    42    1
    46     8    43    1
    47    10    44    1
    48    11    45    1
    49    11    46    1
    50    12    47    1
    51    12    48    1
    52    19    49    1
    53    20    50    1
    54    21    51    1
    55    24    52    1
    56    25    53    1
    57    32    54    1
    58    32    55    1
    59    33    56    1
    60    33    57    1
