@<TRIPOS>MOLECULE
*****
 48 50 0 0 0
SMALL
GASTEIGER

@<TRIPOS>ATOM
      1 C           0.8150   -5.3256   -1.8571 C.3     1  UNL1        0.0820
      2 O           1.1762   -4.0619   -1.3408 O.3     1  UNL1       -0.4644
      3 C           0.2673   -3.2715   -0.6101 C.2     1  UNL1        0.3422
      4 O          -0.8475   -3.7666   -0.4626 O.2     1  UNL1       -0.2448
      5 C           0.6796   -1.9958   -0.1057 C.ar    1  UNL1        0.0979
      6 C           1.9936   -1.5783   -0.3964 C.ar    1  UNL1        0.0455
      7 N           2.4613   -0.3961    0.0220 N.ar    1  UNL1       -0.2392
      8 C           1.7093    0.4511    0.7374 C.ar    1  UNL1        0.1257
      9 N           2.2513    1.7095    1.1656 N.pl3   1  UNL1       -0.2831
     10 C           3.5798    2.0607    0.8349 C.ar    1  UNL1        0.1423
     11 C           4.0842    3.2663    1.2510 C.ar    1  UNL1        0.0691
     12 N           5.3613    3.6443    0.9535 N.ar    1  UNL1       -0.2397
     13 C           6.1023    2.7739    0.2304 C.ar    1  UNL1        0.1582
     14 C           7.4569    3.1833   -0.0809 C.1     1  UNL1        0.1206
     15 N           8.5408    3.5076   -0.3503 N.1     1  UNL1       -0.1892
     16 C           5.6134    1.5634   -0.1942 C.ar    1  UNL1        0.0655
     17 N           4.3348    1.2155    0.1192 N.ar    1  UNL1       -0.2358
     18 C           0.4353    0.0726    1.0334 C.ar    1  UNL1        0.0001
     19 C          -0.1196   -1.1472    0.6283 C.ar    1  UNL1        0.0460
     20 N          -1.4362   -1.4934    1.0178 N.pl3   1  UNL1       -0.3428
     21 C          -2.3473   -0.6614    1.7357 C.3     1  UNL1        0.0120
     22 C          -3.1783    0.2635    0.9001 C.3     1  UNL1       -0.0232
     23 C          -4.0325   -0.5123   -0.0962 C.3     1  UNL1       -0.0361
     24 C          -5.0551    0.4172   -0.6611 C.3     1  UNL1       -0.0038
     25 N          -4.3537    1.4855   -1.3502 N.3     1  UNL1       -0.3160
     26 C          -3.5177    2.2453   -0.4813 C.3     1  UNL1       -0.0038
     27 C          -2.4881    1.3570    0.1918 C.3     1  UNL1       -0.0361
     28 H           1.2782   -5.4526   -2.8501 H       1  UNL1        0.0661
     29 H          -0.2798   -5.4384   -1.9647 H       1  UNL1        0.0661
     30 H           1.1606   -6.1641   -1.2164 H       1  UNL1        0.0661
     31 H           2.6357   -2.2391   -0.9751 H       1  UNL1        0.0839
     32 H           1.6626    2.3653    1.7219 H       1  UNL1        0.1550
     33 H           3.5234    3.9934    1.8328 H       1  UNL1        0.0865
     34 H           6.2568    0.9163   -0.7671 H       1  UNL1        0.0859
     35 H          -0.1364    0.7690    1.6332 H       1  UNL1        0.0671
     36 H          -1.7955   -2.4414    0.7733 H       1  UNL1        0.1461
     37 H          -3.0309   -1.3160    2.3502 H       1  UNL1        0.0464
     38 H          -1.7711   -0.0362    2.4555 H       1  UNL1        0.0464
     39 H          -3.9460    0.7415    1.5846 H       1  UNL1        0.0317
     40 H          -4.5575   -1.3565    0.3951 H       1  UNL1        0.0281
     41 H          -3.3857   -0.8574   -0.9317 H       1  UNL1        0.0281
     42 H          -5.7685    0.7824    0.0924 H       1  UNL1        0.0424
     43 H          -5.6201   -0.1392   -1.4450 H       1  UNL1        0.0424
     44 H          -4.9387    2.0343   -1.9859 H       1  UNL1        0.1219
     45 H          -4.0712    2.8366    0.2751 H       1  UNL1        0.0424
     46 H          -2.9570    2.9778   -1.0960 H       1  UNL1        0.0424
     47 H          -1.8236    0.9712   -0.6115 H       1  UNL1        0.0281
     48 H          -1.9218    2.0466    0.8886 H       1  UNL1        0.0281
@<TRIPOS>BOND
     1     1     2    1
     2     2     3    1
     3     3     4    2
     4     3     5    1
     5     5     6   ar
     6     6     7   ar
     7     7     8   ar
     8     8     9    1
     9     9    10    1
    10    10    11   ar
    11    11    12   ar
    12    12    13   ar
    13    13    14    1
    14    14    15    3
    15    13    16   ar
    16    16    17   ar
    17     8    18   ar
    18    18    19   ar
    19    19    20    1
    20    20    21    1
    21    21    22    1
    22    22    23    1
    23    23    24    1
    24    24    25    1
    25    25    26    1
    26    26    27    1
    27    19     5   ar
    28    27    22    1
    29    17    10   ar
    30     1    28    1
    31     1    29    1
    32     1    30    1
    33     6    31    1
    34     9    32    1
    35    11    33    1
    36    16    34    1
    37    18    35    1
    38    20    36    1
    39    21    37    1
    40    21    38    1
    41    22    39    1
    42    23    40    1
    43    23    41    1
    44    24    42    1
    45    24    43    1
    46    25    44    1
    47    26    45    1
    48    26    46    1
    49    27    47    1
    50    27    48    1
