
     RDKit          3D

 48 50  0  0  0  0  0  0  0  0999 V2000
    0.8150   -5.3256   -1.8571 C   0  0  0  0  0  0  0  0  0  0  0  0
    1.1762   -4.0619   -1.3408 O   0  0  0  0  0  0  0  0  0  0  0  0
    0.2673   -3.2715   -0.6101 C   0  0  0  0  0  0  0  0  0  0  0  0
   -0.8475   -3.7666   -0.4626 O   0  0  0  0  0  0  0  0  0  0  0  0
    0.6796   -1.9958   -0.1057 C   0  0  0  0  0  0  0  0  0  0  0  0
    1.9936   -1.5783   -0.3964 C   0  0  0  0  0  0  0  0  0  0  0  0
    2.4613   -0.3961    0.0220 N   0  0  0  0  0  0  0  0  0  0  0  0
    1.7093    0.4511    0.7374 C   0  0  0  0  0  0  0  0  0  0  0  0
    2.2513    1.7095    1.1656 N   0  0  0  0  0  0  0  0  0  0  0  0
    3.5798    2.0607    0.8349 C   0  0  0  0  0  0  0  0  0  0  0  0
    4.0842    3.2663    1.2510 C   0  0  0  0  0  0  0  0  0  0  0  0
    5.3613    3.6443    0.9535 N   0  0  0  0  0  0  0  0  0  0  0  0
    6.1023    2.7739    0.2304 C   0  0  0  0  0  0  0  0  0  0  0  0
    7.4569    3.1833   -0.0809 C   0  0  0  0  0  0  0  0  0  0  0  0
    8.5408    3.5076   -0.3503 N   0  0  0  0  0  0  0  0  0  0  0  0
    5.6134    1.5634   -0.1942 C   0  0  0  0  0  0  0  0  0  0  0  0
    4.3348    1.2155    0.1192 N   0  0  0  0  0  0  0  0  0  0  0  0
    0.4353    0.0726    1.0334 C   0  0  0  0  0  0  0  0  0  0  0  0
   -0.1196   -1.1472    0.6283 C   0  0  0  0  0  0  0  0  0  0  0  0
   -1.4362   -1.4934    1.0178 N   0  0  0  0  0  0  0  0  0  0  0  0
   -2.3473   -0.6614    1.7357 C   0  0  0  0  0  0  0  0  0  0  0  0
   -3.1783    0.2635    0.9001 C   0  0  0  0  0  0  0  0  0  0  0  0
   -4.0325   -0.5123   -0.0962 C   0  0  0  0  0  0  0  0  0  0  0  0
   -5.0551    0.4172   -0.6611 C   0  0  0  0  0  0  0  0  0  0  0  0
   -4.3537    1.4855   -1.3502 N   0  0  0  0  0  0  0  0  0  0  0  0
   -3.5177    2.2453   -0.4813 C   0  0  0  0  0  0  0  0  0  0  0  0
   -2.4881    1.3570    0.1918 C   0  0  0  0  0  0  0  0  0  0  0  0
    1.2782   -5.4526   -2.8501 H   0  0  0  0  0  0  0  0  0  0  0  0
   -0.2798   -5.4384   -1.9647 H   0  0  0  0  0  0  0  0  0  0  0  0
    1.1606   -6.1641   -1.2164 H   0  0  0  0  0  0  0  0  0  0  0  0
    2.6357   -2.2391   -0.9751 H   0  0  0  0  0  0  0  0  0  0  0  0
    1.6626    2.3653    1.7219 H   0  0  0  0  0  0  0  0  0  0  0  0
    3.5234    3.9934    1.8328 H   0  0  0  0  0  0  0  0  0  0  0  0
    6.2568    0.9163   -0.7671 H   0  0  0  0  0  0  0  0  0  0  0  0
   -0.1364    0.7690    1.6332 H   0  0  0  0  0  0  0  0  0  0  0  0
   -1.7955   -2.4414    0.7733 H   0  0  0  0  0  0  0  0  0  0  0  0
   -3.0309   -1.3160    2.3502 H   0  0  0  0  0  0  0  0  0  0  0  0
   -1.7711   -0.0362    2.4555 H   0  0  0  0  0  0  0  0  0  0  0  0
   -3.9460    0.7415    1.5846 H   0  0  0  0  0  0  0  0  0  0  0  0
   -4.5575   -1.3565    0.3951 H   0  0  0  0  0  0  0  0  0  0  0  0
   -3.3857   -0.8574   -0.9317 H   0  0  0  0  0  0  0  0  0  0  0  0
   -5.7685    0.7824    0.0924 H   0  0  0  0  0  0  0  0  0  0  0  0
   -5.6201   -0.1392   -1.4450 H   0  0  0  0  0  0  0  0  0  0  0  0
   -4.9387    2.0343   -1.9859 H   0  0  0  0  0  0  0  0  0  0  0  0
   -4.0712    2.8366    0.2751 H   0  0  0  0  0  0  0  0  0  0  0  0
   -2.9570    2.9778   -1.0960 H   0  0  0  0  0  0  0  0  0  0  0  0
   -1.8236    0.9712   -0.6115 H   0  0  0  0  0  0  0  0  0  0  0  0
   -1.9218    2.0466    0.8886 H   0  0  0  0  0  0  0  0  0  0  0  0
  1  2  1  0
  2  3  1  0
  3  4  2  0
  3  5  1  0
  5  6  2  0
  6  7  1  0
  7  8  2  0
  8  9  1  0
  9 10  1  0
 10 11  2  0
 11 12  1  0
 12 13  2  0
 13 14  1  0
 14 15  3  0
 13 16  1  0
 16 17  2  0
  8 18  1  0
 18 19  2  0
 19 20  1  0
 20 21  1  0
 21 22  1  0
 22 23  1  0
 23 24  1  0
 24 25  1  0
 25 26  1  0
 26 27  1  0
 19  5  1  0
 27 22  1  0
 17 10  1  0
  1 28  1  0
  1 29  1  0
  1 30  1  0
  6 31  1  0
  9 32  1  0
 11 33  1  0
 16 34  1  0
 18 35  1  0
 20 36  1  0
 21 37  1  0
 21 38  1  0
 22 39  1  0
 23 40  1  0
 23 41  1  0
 24 42  1  0
 24 43  1  0
 25 44  1  0
 26 45  1  0
 26 46  1  0
 27 47  1  0
 27 48  1  0
M  END
$$$$
