@<TRIPOS>MOLECULE
*****
 52 55 0 0 0
SMALL
GASTEIGER

@<TRIPOS>ATOM
      1 C           9.3413   -1.5652   -0.6621 C.3     1  UNL1        0.0788
      2 O           8.5819   -1.8671    0.4915 O.3     1  UNL1       -0.4951
      3 C           7.2519   -1.4735    0.5329 C.ar    1  UNL1        0.1201
      4 C           6.6548   -0.8015   -0.5084 C.ar    1  UNL1       -0.0192
      5 C           5.3110   -0.4031   -0.4670 C.ar    1  UNL1       -0.0462
      6 C           4.5402   -0.6737    0.6237 C.ar    1  UNL1        0.0372
      7 C           3.1074   -0.2905    0.7373 C.2     1  UNL1        0.2483
      8 O           2.5064   -0.5459    1.8096 O.2     1  UNL1       -0.2699
      9 N           2.4520    0.3375   -0.3271 N.am    1  UNL1       -0.2815
     10 C           1.0932    0.7402   -0.3089 C.ar    1  UNL1        0.0337
     11 C           0.2412    0.6434    0.7559 C.ar    1  UNL1       -0.0398
     12 C          -1.0761    1.0604    0.6422 C.ar    1  UNL1       -0.0479
     13 C          -1.6026    1.5849   -0.5158 C.ar    1  UNL1        0.0377
     14 C          -2.9974    2.0005   -0.5644 C.2     1  UNL1        0.2563
     15 O          -3.1934    3.2453   -0.7646 O.2     1  UNL1       -0.2692
     16 N          -4.0944    1.1394   -0.4091 N.am    1  UNL1       -0.2189
     17 C          -5.4164    1.7151   -0.4862 C.ar    1  UNL1        0.1354
     18 C          -6.0176    2.2055    0.6464 C.ar    1  UNL1       -0.0028
     19 C          -7.2974    2.7498    0.5362 C.ar    1  UNL1        0.0326
     20 N          -7.8516    2.7550   -0.6755 N.ar    1  UNL1       -0.2436
     21 C          -7.2553    2.2754   -1.7647 C.ar    1  UNL1        0.1180
     22 N          -6.0273    1.7501   -1.6744 N.ar    1  UNL1       -0.2200
     23 C          -3.9968   -0.2650   -0.1824 C.ar    1  UNL1        0.0613
     24 C          -3.9323   -0.7631    1.0954 C.ar    1  UNL1       -0.0385
     25 C          -3.8450   -2.1208    1.3407 C.ar    1  UNL1       -0.0599
     26 C          -3.8175   -3.0564    0.3019 C.ar    1  UNL1       -0.0603
     27 C          -3.8836   -2.5419   -0.9809 C.ar    1  UNL1       -0.0416
     28 C          -3.9694   -1.1971   -1.2045 C.ar    1  UNL1        0.0627
     29 CL         -4.0548   -0.5651   -2.8466 Cl      1  UNL1       -0.0816
     30 C          -0.7288    1.6744   -1.5757 C.ar    1  UNL1       -0.0479
     31 C           0.5787    1.2753   -1.5076 C.ar    1  UNL1       -0.0398
     32 C           5.1295   -1.3509    1.6813 C.ar    1  UNL1       -0.0462
     33 C           6.4469   -1.7380    1.6347 C.ar    1  UNL1       -0.0192
     34 H           9.3049   -0.5057   -0.9128 H       1  UNL1        0.0660
     35 H          10.3958   -1.8792   -0.4706 H       1  UNL1        0.0660
     36 H           8.9449   -2.1122   -1.5604 H       1  UNL1        0.0660
     37 H           7.2476   -0.5749   -1.3855 H       1  UNL1        0.0654
     38 H           4.9011    0.1162   -1.3028 H       1  UNL1        0.0626
     39 H           3.0013    0.5383   -1.2288 H       1  UNL1        0.1551
     40 H           0.5752    0.2497    1.6903 H       1  UNL1        0.0636
     41 H          -1.6858    0.9601    1.5218 H       1  UNL1        0.0626
     42 H          -5.5306    2.1829    1.6204 H       1  UNL1        0.0667
     43 H          -7.7472    3.1279    1.4392 H       1  UNL1        0.0831
     44 H          -7.7030    2.2755   -2.7588 H       1  UNL1        0.1047
     45 H          -3.9499   -0.0571    1.9370 H       1  UNL1        0.0637
     46 H          -3.7934   -2.5218    2.3493 H       1  UNL1        0.0618
     47 H          -3.7492   -4.1135    0.5056 H       1  UNL1        0.0618
     48 H          -3.8641   -3.2481   -1.7950 H       1  UNL1        0.0633
     49 H          -1.1581    2.0957   -2.4977 H       1  UNL1        0.0626
     50 H           1.2173    1.3716   -2.3748 H       1  UNL1        0.0636
     51 H           4.4988   -1.5675    2.5600 H       1  UNL1        0.0626
     52 H           6.9159   -2.2715    2.4620 H       1  UNL1        0.0654
@<TRIPOS>BOND
     1     1     2    1
     2     2     3    1
     3     3     4   ar
     4     4     5   ar
     5     5     6   ar
     6     6     7    1
     7     7     8    2
     8     7     9   am
     9     9    10    1
    10    10    11   ar
    11    11    12   ar
    12    12    13   ar
    13    13    14    1
    14    14    15    2
    15    14    16   am
    16    16    17    1
    17    17    18   ar
    18    18    19   ar
    19    19    20   ar
    20    20    21   ar
    21    21    22   ar
    22    16    23    1
    23    23    24   ar
    24    24    25   ar
    25    25    26   ar
    26    26    27   ar
    27    27    28   ar
    28    28    29    1
    29    13    30   ar
    30    30    31   ar
    31     6    32   ar
    32    32    33   ar
    33    33     3   ar
    34    31    10   ar
    35    22    17   ar
    36    28    23   ar
    37     1    34    1
    38     1    35    1
    39     1    36    1
    40     4    37    1
    41     5    38    1
    42     9    39    1
    43    11    40    1
    44    12    41    1
    45    18    42    1
    46    19    43    1
    47    21    44    1
    48    24    45    1
    49    25    46    1
    50    26    47    1
    51    27    48    1
    52    30    49    1
    53    31    50    1
    54    32    51    1
    55    33    52    1
