
     RDKit          3D

 52 55  0  0  0  0  0  0  0  0999 V2000
    9.3413   -1.5652   -0.6621 C   0  0  0  0  0  0  0  0  0  0  0  0
    8.5819   -1.8671    0.4915 O   0  0  0  0  0  0  0  0  0  0  0  0
    7.2519   -1.4735    0.5329 C   0  0  0  0  0  0  0  0  0  0  0  0
    6.6548   -0.8015   -0.5084 C   0  0  0  0  0  0  0  0  0  0  0  0
    5.3110   -0.4031   -0.4670 C   0  0  0  0  0  0  0  0  0  0  0  0
    4.5402   -0.6737    0.6237 C   0  0  0  0  0  0  0  0  0  0  0  0
    3.1074   -0.2905    0.7373 C   0  0  0  0  0  0  0  0  0  0  0  0
    2.5064   -0.5459    1.8096 O   0  0  0  0  0  0  0  0  0  0  0  0
    2.4520    0.3375   -0.3271 N   0  0  0  0  0  0  0  0  0  0  0  0
    1.0932    0.7402   -0.3089 C   0  0  0  0  0  0  0  0  0  0  0  0
    0.2412    0.6434    0.7559 C   0  0  0  0  0  0  0  0  0  0  0  0
   -1.0761    1.0604    0.6422 C   0  0  0  0  0  0  0  0  0  0  0  0
   -1.6026    1.5849   -0.5158 C   0  0  0  0  0  0  0  0  0  0  0  0
   -2.9974    2.0005   -0.5644 C   0  0  0  0  0  0  0  0  0  0  0  0
   -3.1934    3.2453   -0.7646 O   0  0  0  0  0  0  0  0  0  0  0  0
   -4.0944    1.1394   -0.4091 N   0  0  0  0  0  0  0  0  0  0  0  0
   -5.4164    1.7151   -0.4862 C   0  0  0  0  0  0  0  0  0  0  0  0
   -6.0176    2.2055    0.6464 C   0  0  0  0  0  0  0  0  0  0  0  0
   -7.2974    2.7498    0.5362 C   0  0  0  0  0  0  0  0  0  0  0  0
   -7.8516    2.7550   -0.6755 N   0  0  0  0  0  0  0  0  0  0  0  0
   -7.2553    2.2754   -1.7647 C   0  0  0  0  0  0  0  0  0  0  0  0
   -6.0273    1.7501   -1.6744 N   0  0  0  0  0  0  0  0  0  0  0  0
   -3.9968   -0.2650   -0.1824 C   0  0  0  0  0  0  0  0  0  0  0  0
   -3.9323   -0.7631    1.0954 C   0  0  0  0  0  0  0  0  0  0  0  0
   -3.8450   -2.1208    1.3407 C   0  0  0  0  0  0  0  0  0  0  0  0
   -3.8175   -3.0564    0.3019 C   0  0  0  0  0  0  0  0  0  0  0  0
   -3.8836   -2.5419   -0.9809 C   0  0  0  0  0  0  0  0  0  0  0  0
   -3.9694   -1.1971   -1.2045 C   0  0  0  0  0  0  0  0  0  0  0  0
   -4.0548   -0.5651   -2.8466 Cl  0  0  0  0  0  0  0  0  0  0  0  0
   -0.7288    1.6744   -1.5757 C   0  0  0  0  0  0  0  0  0  0  0  0
    0.5787    1.2753   -1.5076 C   0  0  0  0  0  0  0  0  0  0  0  0
    5.1295   -1.3509    1.6813 C   0  0  0  0  0  0  0  0  0  0  0  0
    6.4469   -1.7380    1.6347 C   0  0  0  0  0  0  0  0  0  0  0  0
    9.3049   -0.5057   -0.9128 H   0  0  0  0  0  0  0  0  0  0  0  0
   10.3958   -1.8792   -0.4706 H   0  0  0  0  0  0  0  0  0  0  0  0
    8.9449   -2.1122   -1.5604 H   0  0  0  0  0  0  0  0  0  0  0  0
    7.2476   -0.5749   -1.3855 H   0  0  0  0  0  0  0  0  0  0  0  0
    4.9011    0.1162   -1.3028 H   0  0  0  0  0  0  0  0  0  0  0  0
    3.0013    0.5383   -1.2288 H   0  0  0  0  0  0  0  0  0  0  0  0
    0.5752    0.2497    1.6903 H   0  0  0  0  0  0  0  0  0  0  0  0
   -1.6858    0.9601    1.5218 H   0  0  0  0  0  0  0  0  0  0  0  0
   -5.5306    2.1829    1.6204 H   0  0  0  0  0  0  0  0  0  0  0  0
   -7.7472    3.1279    1.4392 H   0  0  0  0  0  0  0  0  0  0  0  0
   -7.7030    2.2755   -2.7588 H   0  0  0  0  0  0  0  0  0  0  0  0
   -3.9499   -0.0571    1.9370 H   0  0  0  0  0  0  0  0  0  0  0  0
   -3.7934   -2.5218    2.3493 H   0  0  0  0  0  0  0  0  0  0  0  0
   -3.7492   -4.1135    0.5056 H   0  0  0  0  0  0  0  0  0  0  0  0
   -3.8641   -3.2481   -1.7950 H   0  0  0  0  0  0  0  0  0  0  0  0
   -1.1581    2.0957   -2.4977 H   0  0  0  0  0  0  0  0  0  0  0  0
    1.2173    1.3716   -2.3748 H   0  0  0  0  0  0  0  0  0  0  0  0
    4.4988   -1.5675    2.5600 H   0  0  0  0  0  0  0  0  0  0  0  0
    6.9159   -2.2715    2.4620 H   0  0  0  0  0  0  0  0  0  0  0  0
  1  2  1  0
  2  3  1  0
  3  4  2  0
  4  5  1  0
  5  6  2  0
  6  7  1  0
  7  8  2  0
  7  9  1  0
  9 10  1  0
 10 11  2  0
 11 12  1  0
 12 13  2  0
 13 14  1  0
 14 15  2  0
 14 16  1  0
 16 17  1  0
 17 18  2  0
 18 19  1  0
 19 20  2  0
 20 21  1  0
 21 22  2  0
 16 23  1  0
 23 24  2  0
 24 25  1  0
 25 26  2  0
 26 27  1  0
 27 28  2  0
 28 29  1  0
 13 30  1  0
 30 31  2  0
  6 32  1  0
 32 33  2  0
 33  3  1  0
 31 10  1  0
 22 17  1  0
 28 23  1  0
  1 34  1  0
  1 35  1  0
  1 36  1  0
  4 37  1  0
  5 38  1  0
  9 39  1  0
 11 40  1  0
 12 41  1  0
 18 42  1  0
 19 43  1  0
 21 44  1  0
 24 45  1  0
 25 46  1  0
 26 47  1  0
 27 48  1  0
 30 49  1  0
 31 50  1  0
 32 51  1  0
 33 52  1  0
M  END
$$$$
