@<TRIPOS>MOLECULE
*****
 57 59 0 0 0
SMALL
GASTEIGER

@<TRIPOS>ATOM
      1 C          -2.8094   -1.0836    1.5775 C.3     1  UNL1       -0.0557
      2 C          -2.8641    0.2284    0.8441 C.3     1  UNL1       -0.0062
      3 C          -2.8518    1.4913    1.5855 C.3     1  UNL1       -0.0557
      4 C          -1.6608    0.2060   -0.0703 C.3     1  UNL1       -0.0059
      5 C          -0.2996    0.0496    0.4327 C.3     1  UNL1        0.1664
      6 O          -0.0589   -1.1455    1.1557 O.3     1  UNL1       -0.3793
      7 C           0.5159   -0.2148   -0.8812 C.3     1  UNL1        0.0250
      8 C           1.9240   -0.4173   -0.6820 C.ar    1  UNL1        0.0200
      9 C           2.9261    0.5095   -0.7499 C.ar    1  UNL1       -0.0332
     10 C           4.1198   -0.1230   -0.5348 C.ar    1  UNL1        0.0047
     11 C           5.4497    0.3284   -0.4921 C.ar    1  UNL1       -0.0090
     12 C           6.4860   -0.5445   -0.2503 C.ar    1  UNL1        0.1766
     13 S           8.1564   -0.0749   -0.1801 S.O2    1  UNL1        0.0111
     14 C           8.3970    1.6413   -0.4508 C.3     1  UNL1        0.0612
     15 O           8.9051   -0.8435   -1.2378 O.2     1  UNL1       -0.1682
     16 O           8.7579   -0.4839    1.1564 O.2     1  UNL1       -0.1682
     17 N           6.1715   -1.8349   -0.0589 N.ar    1  UNL1       -0.2348
     18 C           4.9186   -2.3006   -0.0922 C.ar    1  UNL1        0.0536
     19 C           3.8566   -1.4494   -0.3326 C.ar    1  UNL1        0.0651
     20 N           2.5294   -1.6061   -0.4252 N.ar    1  UNL1       -0.3566
     21 C           0.3968    1.1127    1.1773 C.3     1  UNL1        0.4186
     22 F          -0.1468    1.5117    2.3750 F       1  UNL1       -0.1676
     23 F           0.6402    2.2493    0.3718 F       1  UNL1       -0.1676
     24 F           1.7011    0.7098    1.5567 F       1  UNL1       -0.1676
     25 C          -4.0630    0.1684   -0.0988 C.ar    1  UNL1       -0.0295
     26 C          -3.9198    0.2906   -1.4679 C.ar    1  UNL1       -0.0560
     27 C          -5.0277    0.2098   -2.3352 C.ar    1  UNL1       -0.0431
     28 C          -6.2671    0.0072   -1.8111 C.ar    1  UNL1        0.0417
     29 CL         -7.6444   -0.0953   -2.8759 Cl      1  UNL1       -0.0835
     30 C          -6.4100   -0.1119   -0.4647 C.ar    1  UNL1       -0.0310
     31 C          -5.2949   -0.0305    0.4136 C.ar    1  UNL1        0.0415
     32 C          -5.6380   -0.1273    1.7871 C.2     1  UNL1        0.2419
     33 N          -6.9525   -0.6297    2.2131 N.am    1  UNL1       -0.3253
     34 O          -4.9385    0.1701    2.7511 O.2     1  UNL1       -0.2704
     35 H          -2.1128   -1.8292    1.0402 H       1  UNL1        0.0238
     36 H          -2.5887   -1.0472    2.6317 H       1  UNL1        0.0238
     37 H          -3.7851   -1.6367    1.4261 H       1  UNL1        0.0238
     38 H          -2.6477    1.3883    2.6416 H       1  UNL1        0.0238
     39 H          -2.1506    2.2138    1.0392 H       1  UNL1        0.0238
     40 H          -3.8059    2.0915    1.5079 H       1  UNL1        0.0238
     41 H          -1.6677    1.1787   -0.6619 H       1  UNL1        0.0304
     42 H          -1.9120   -0.6489   -0.7916 H       1  UNL1        0.0304
     43 H           0.7102   -1.0783    1.7395 H       1  UNL1        0.2106
     44 H           0.0532   -1.0970   -1.3927 H       1  UNL1        0.0358
     45 H           0.2504    0.6604   -1.5298 H       1  UNL1        0.0358
     46 H           2.8489    1.5665   -0.9409 H       1  UNL1        0.0641
     47 H           5.6645    1.3621   -0.6488 H       1  UNL1        0.0659
     48 H           8.3613    1.8991   -1.5295 H       1  UNL1        0.0468
     49 H           7.6090    2.2212    0.1006 H       1  UNL1        0.0468
     50 H           9.3773    1.9614   -0.0407 H       1  UNL1        0.0468
     51 H           4.6898   -3.3424    0.0646 H       1  UNL1        0.0851
     52 H           2.0743   -2.5517   -0.3052 H       1  UNL1        0.1656
     53 H          -2.9469    0.4633   -1.8969 H       1  UNL1        0.0621
     54 H          -4.8768    0.3085   -3.3853 H       1  UNL1        0.0632
     55 H          -7.4165   -0.2737   -0.0556 H       1  UNL1        0.0640
     56 H          -7.7617   -0.0602    1.9430 H       1  UNL1        0.1453
     57 H          -6.9715   -1.5164    2.7519 H       1  UNL1        0.1453
@<TRIPOS>BOND
     1     1     2    1
     2     2     3    1
     3     2     4    1
     4     4     5    1
     5     5     6    1
     6     5     7    1
     7     7     8    1
     8     8     9   ar
     9     9    10   ar
    10    10    11   ar
    11    11    12   ar
    12    12    13    1
    13    13    14    1
    14    13    15    2
    15    13    16    2
    16    12    17   ar
    17    17    18   ar
    18    18    19   ar
    19    19    20   ar
    20     5    21    1
    21    21    22    1
    22    21    23    1
    23    21    24    1
    24     2    25    1
    25    25    26   ar
    26    26    27   ar
    27    27    28   ar
    28    28    29    1
    29    28    30   ar
    30    30    31   ar
    31    31    32    1
    32    32    33   am
    33    32    34    2
    34    20     8   ar
    35    31    25   ar
    36    19    10   ar
    37     1    35    1
    38     1    36    1
    39     1    37    1
    40     3    38    1
    41     3    39    1
    42     3    40    1
    43     4    41    1
    44     4    42    1
    45     6    43    1
    46     7    44    1
    47     7    45    1
    48     9    46    1
    49    11    47    1
    50    14    48    1
    51    14    49    1
    52    14    50    1
    53    18    51    1
    54    20    52    1
    55    26    53    1
    56    27    54    1
    57    30    55    1
    58    33    56    1
    59    33    57    1
