@<TRIPOS>MOLECULE
*****
 26 26 0 0 0
SMALL
GASTEIGER

@<TRIPOS>ATOM
      1 C           1.0074   -1.0817   -0.6010 C.3     1  UNL1        0.1074
      2 N           1.9657   -2.1483   -0.3670 N.3     1  UNL1       -0.3181
      3 C          -0.2448   -1.4938    0.1211 C.3     1  UNL1       -0.0020
      4 C          -1.3543   -0.5396    0.0100 C.ar    1  UNL1       -0.0454
      5 C          -2.2773   -0.6268   -1.0189 C.ar    1  UNL1       -0.0585
      6 C          -3.2968    0.3016   -1.0661 C.ar    1  UNL1       -0.0615
      7 C          -3.4025    1.2902   -0.1224 C.ar    1  UNL1       -0.0617
      8 C          -2.4968    1.4124    0.9263 C.ar    1  UNL1       -0.0615
      9 C          -1.5036    0.4749    0.9370 C.ar    1  UNL1       -0.0585
     10 C           1.5548    0.2202   -0.1660 C.2     1  UNL1        0.3242
     11 O           1.1409    1.4084   -0.1523 O.2     1  UNL1       -0.2491
     12 O           2.8273    0.2682    0.3756 O.3     1  UNL1       -0.4668
     13 C           3.4659    1.4474    0.8296 C.3     1  UNL1        0.0817
     14 H           0.8686   -1.0462   -1.7021 H       1  UNL1        0.0577
     15 H           2.3404   -2.5754   -1.2330 H       1  UNL1        0.1190
     16 H           2.6548   -1.9108    0.3615 H       1  UNL1        0.1190
     17 H          -0.5609   -2.4553   -0.3058 H       1  UNL1        0.0334
     18 H          -0.0002   -1.5974    1.1922 H       1  UNL1        0.0334
     19 H          -2.1426   -1.4270   -1.7331 H       1  UNL1        0.0620
     20 H          -4.0150    0.2268   -1.8742 H       1  UNL1        0.0618
     21 H          -4.2295    1.9746   -0.2338 H       1  UNL1        0.0618
     22 H          -2.5917    2.1973    1.6645 H       1  UNL1        0.0618
     23 H          -0.7575    0.5231    1.7452 H       1  UNL1        0.0620
     24 H           4.4076    1.5196    0.2151 H       1  UNL1        0.0661
     25 H           2.8634    2.3540    0.7229 H       1  UNL1        0.0661
     26 H           3.7767    1.2834    1.8818 H       1  UNL1        0.0661
@<TRIPOS>BOND
     1     1     2    1
     2     1     3    1
     3     3     4    1
     4     4     5   ar
     5     5     6   ar
     6     6     7   ar
     7     7     8   ar
     8     8     9   ar
     9     1    10    1
    10    10    11    2
    11    10    12    1
    12    12    13    1
    13     9     4   ar
    14     1    14    1
    15     2    15    1
    16     2    16    1
    17     3    17    1
    18     3    18    1
    19     5    19    1
    20     6    20    1
    21     7    21    1
    22     8    22    1
    23     9    23    1
    24    13    24    1
    25    13    25    1
    26    13    26    1
