
     RDKit          3D

 26 26  0  0  0  0  0  0  0  0999 V2000
    1.0074   -1.0817   -0.6010 C   0  0  1  0  0  0  0  0  0  0  0  0
    1.9657   -2.1483   -0.3670 N   0  0  0  0  0  0  0  0  0  0  0  0
   -0.2448   -1.4938    0.1211 C   0  0  0  0  0  0  0  0  0  0  0  0
   -1.3543   -0.5396    0.0100 C   0  0  0  0  0  0  0  0  0  0  0  0
   -2.2773   -0.6268   -1.0189 C   0  0  0  0  0  0  0  0  0  0  0  0
   -3.2968    0.3016   -1.0661 C   0  0  0  0  0  0  0  0  0  0  0  0
   -3.4025    1.2902   -0.1224 C   0  0  0  0  0  0  0  0  0  0  0  0
   -2.4968    1.4124    0.9263 C   0  0  0  0  0  0  0  0  0  0  0  0
   -1.5036    0.4749    0.9370 C   0  0  0  0  0  0  0  0  0  0  0  0
    1.5548    0.2202   -0.1660 C   0  0  0  0  0  0  0  0  0  0  0  0
    1.1409    1.4084   -0.1523 O   0  0  0  0  0  0  0  0  0  0  0  0
    2.8273    0.2682    0.3756 O   0  0  0  0  0  0  0  0  0  0  0  0
    3.4659    1.4474    0.8296 C   0  0  0  0  0  0  0  0  0  0  0  0
    0.8686   -1.0462   -1.7021 H   0  0  0  0  0  0  0  0  0  0  0  0
    2.3404   -2.5754   -1.2330 H   0  0  0  0  0  0  0  0  0  0  0  0
    2.6548   -1.9108    0.3615 H   0  0  0  0  0  0  0  0  0  0  0  0
   -0.5609   -2.4553   -0.3058 H   0  0  0  0  0  0  0  0  0  0  0  0
   -0.0002   -1.5974    1.1922 H   0  0  0  0  0  0  0  0  0  0  0  0
   -2.1426   -1.4270   -1.7331 H   0  0  0  0  0  0  0  0  0  0  0  0
   -4.0150    0.2268   -1.8742 H   0  0  0  0  0  0  0  0  0  0  0  0
   -4.2295    1.9746   -0.2338 H   0  0  0  0  0  0  0  0  0  0  0  0
   -2.5917    2.1973    1.6645 H   0  0  0  0  0  0  0  0  0  0  0  0
   -0.7575    0.5231    1.7452 H   0  0  0  0  0  0  0  0  0  0  0  0
    4.4076    1.5196    0.2151 H   0  0  0  0  0  0  0  0  0  0  0  0
    2.8634    2.3540    0.7229 H   0  0  0  0  0  0  0  0  0  0  0  0
    3.7767    1.2834    1.8818 H   0  0  0  0  0  0  0  0  0  0  0  0
  1  2  1  0
  1  3  1  0
  3  4  1  0
  4  5  2  0
  5  6  1  0
  6  7  2  0
  7  8  1  0
  8  9  2  0
  1 10  1  0
 10 11  2  0
 10 12  1  0
 12 13  1  0
  9  4  1  0
  1 14  1  6
  2 15  1  0
  2 16  1  0
  3 17  1  0
  3 18  1  0
  5 19  1  0
  6 20  1  0
  7 21  1  0
  8 22  1  0
  9 23  1  0
 13 24  1  0
 13 25  1  0
 13 26  1  0
M  END
$$$$
