@<TRIPOS>MOLECULE
*****
 26 26 0 0 0
SMALL
GASTEIGER

@<TRIPOS>ATOM
      1 O          -2.5559   -1.7444   -1.1824 O.3     1  UNL1       -0.3229
      2 P          -1.7679   -1.1333    0.1840 P.3     1  UNL1        0.3526
      3 O          -0.3819   -2.0357    0.5499 O.3     1  UNL1       -0.3229
      4 O          -2.7553   -1.2461    1.3522 O.2     1  UNL1       -0.2570
      5 C          -1.4017    0.6294   -0.0124 C.3     1  UNL1        0.2111
      6 S           0.1042    0.9839    0.8981 S.3     1  UNL1       -0.0975
      7 C           1.5489    0.2294    0.1779 C.ar    1  UNL1        0.0094
      8 C           2.6888    0.4755    0.9381 C.ar    1  UNL1       -0.0469
      9 C           3.9366   -0.0130    0.5621 C.ar    1  UNL1       -0.0423
     10 C           4.0825   -0.7738   -0.6034 C.ar    1  UNL1        0.0410
     11 CL          5.6128   -1.4208   -1.1407 Cl      1  UNL1       -0.0835
     12 C           2.9309   -0.9925   -1.3246 C.ar    1  UNL1       -0.0423
     13 C           1.6818   -0.5284   -0.9877 C.ar    1  UNL1       -0.0469
     14 P          -2.7563    1.5606    0.7533 P.3     1  UNL1        0.3526
     15 O          -2.2714    3.1701    0.8023 O.3     1  UNL1       -0.3229
     16 O          -4.1303    1.3854   -0.2035 O.3     1  UNL1       -0.3229
     17 O          -2.9404    0.9815    2.1372 O.2     1  UNL1       -0.2570
     18 H          -3.5462   -1.5603   -1.1217 H       1  UNL1        0.2198
     19 H          -0.5239   -2.9333    0.1093 H       1  UNL1        0.2198
     20 H          -1.3242    0.9088   -1.0905 H       1  UNL1        0.0668
     21 H           2.7551    1.0442    1.8661 H       1  UNL1        0.0629
     22 H           4.8504    0.1463    1.1136 H       1  UNL1        0.0632
     23 H           2.9559   -1.5786   -2.2514 H       1  UNL1        0.0632
     24 H           0.7513   -0.6486   -1.4928 H       1  UNL1        0.0629
     25 H          -2.6077    3.6422   -0.0135 H       1  UNL1        0.2198
     26 H          -4.9365    1.4515    0.3875 H       1  UNL1        0.2198
@<TRIPOS>BOND
     1     1     2    1
     2     2     3    1
     3     2     4    2
     4     2     5    1
     5     5     6    1
     6     6     7    1
     7     7     8   ar
     8     8     9   ar
     9     9    10   ar
    10    10    11    1
    11    10    12   ar
    12    12    13   ar
    13     5    14    1
    14    14    15    1
    15    14    16    1
    16    14    17    2
    17    13     7   ar
    18     1    18    1
    19     3    19    1
    20     5    20    1
    21     8    21    1
    22     9    22    1
    23    12    23    1
    24    13    24    1
    25    15    25    1
    26    16    26    1
