@<TRIPOS>MOLECULE
*****
 50 54 0 0 0
SMALL
GASTEIGER

@<TRIPOS>ATOM
      1 C          -7.6551    3.2930   -0.3042 C.3     1  UNL1        0.0004
      2 N          -6.4641    2.4257   -0.4071 N.am    1  UNL1       -0.3143
      3 C          -5.8594    1.8786    0.7390 C.2     1  UNL1        0.2466
      4 O          -6.4292    2.2004    1.8383 O.2     1  UNL1       -0.2701
      5 C          -4.6935    1.0202    0.7433 C.ar    1  UNL1        0.0718
      6 C          -4.1992    0.5775    1.9754 C.ar    1  UNL1       -0.0463
      7 C          -3.0939   -0.2393    2.0696 C.ar    1  UNL1       -0.0531
      8 C          -2.4138   -0.6654    0.9513 C.ar    1  UNL1       -0.0137
      9 C          -1.2466   -1.5303    1.0857 C.ar    1  UNL1        0.0016
     10 C          -1.1348   -2.4444    2.1064 C.ar    1  UNL1       -0.0137
     11 C          -0.0122   -3.2243    2.1726 C.ar    1  UNL1        0.1665
     12 F           0.1665   -4.1507    3.1557 F       1  UNL1       -0.2016
     13 C           0.9547   -3.0391    1.1904 C.ar    1  UNL1        0.1736
     14 N           2.1462   -3.6758    1.0267 N.ar    1  UNL1       -0.2332
     15 C           2.7587   -3.1755   -0.0606 C.ar    1  UNL1        0.0500
     16 C           1.9246   -2.1890   -0.6015 C.ar    1  UNL1        0.0475
     17 C           2.1943   -1.3758   -1.8026 C.3     1  UNL1        0.0148
     18 C           2.9603   -0.1879   -1.4117 C.ar    1  UNL1       -0.0409
     19 C           2.3179    0.9802   -1.0797 C.ar    1  UNL1       -0.0562
     20 C           3.0352    2.1158   -0.7048 C.ar    1  UNL1       -0.0355
     21 C           4.4008    2.0281   -0.6787 C.ar    1  UNL1        0.0710
     22 N           5.1168    3.1092   -0.3205 N.ar    1  UNL1       -0.2550
     23 C           6.4545    3.0694   -0.2808 C.ar    1  UNL1        0.0283
     24 C           7.1484    1.9151   -0.6066 C.ar    1  UNL1       -0.0430
     25 C           6.4344    0.8133   -0.9710 C.ar    1  UNL1       -0.0511
     26 C           5.0770    0.8656   -1.0077 C.ar    1  UNL1        0.0007
     27 C           4.3309   -0.2428   -1.3753 C.ar    1  UNL1       -0.0490
     28 N           0.8590   -2.1611    0.2011 N.ar    1  UNL1       -0.3004
     29 C          -0.2477   -1.3968    0.1413 C.ar    1  UNL1        0.0193
     30 C          -2.8844   -0.2412   -0.2663 C.ar    1  UNL1       -0.0179
     31 C          -4.0154    0.5941   -0.3558 C.ar    1  UNL1        0.1360
     32 F          -4.4243    0.9729   -1.6000 F       1  UNL1       -0.2047
     33 H          -7.8911    3.7357   -1.2893 H       1  UNL1        0.0426
     34 H          -8.5071    2.6964    0.0205 H       1  UNL1        0.0426
     35 H          -7.4475    4.0662    0.4614 H       1  UNL1        0.0426
     36 H          -6.0913    2.2359   -1.3464 H       1  UNL1        0.1487
     37 H          -4.7394    0.9160    2.8634 H       1  UNL1        0.0626
     38 H          -2.7405   -0.5619    3.0434 H       1  UNL1        0.0624
     39 H          -1.9134   -2.5539    2.8493 H       1  UNL1        0.0654
     40 H           3.7133   -3.4312   -0.5004 H       1  UNL1        0.0848
     41 H           1.2380   -1.0801   -2.2818 H       1  UNL1        0.0377
     42 H           2.7795   -1.9285   -2.5699 H       1  UNL1        0.0377
     43 H           1.2469    1.0323   -1.1065 H       1  UNL1        0.0621
     44 H           2.5301    3.0147   -0.4497 H       1  UNL1        0.0639
     45 H           7.0659    3.9318    0.0065 H       1  UNL1        0.0830
     46 H           8.2242    1.9089   -0.5668 H       1  UNL1        0.0633
     47 H           6.9185   -0.1171   -1.2366 H       1  UNL1        0.0625
     48 H           4.8491   -1.1446   -1.6309 H       1  UNL1        0.0627
     49 H          -0.3507   -0.6823   -0.6474 H       1  UNL1        0.0819
     50 H          -2.3913   -0.5435   -1.1806 H       1  UNL1        0.0652
@<TRIPOS>BOND
     1     1     2    1
     2     2     3   am
     3     3     4    2
     4     3     5    1
     5     5     6   ar
     6     6     7   ar
     7     7     8   ar
     8     8     9    1
     9     9    10   ar
    10    10    11   ar
    11    11    12    1
    12    11    13   ar
    13    13    14   ar
    14    14    15   ar
    15    15    16   ar
    16    16    17    1
    17    17    18    1
    18    18    19   ar
    19    19    20   ar
    20    20    21   ar
    21    21    22   ar
    22    22    23   ar
    23    23    24   ar
    24    24    25   ar
    25    25    26   ar
    26    26    27   ar
    27    16    28   ar
    28    28    29   ar
    29     8    30   ar
    30    30    31   ar
    31    31    32    1
    32    31     5   ar
    33    29     9   ar
    34    28    13   ar
    35    27    18   ar
    36    26    21   ar
    37     1    33    1
    38     1    34    1
    39     1    35    1
    40     2    36    1
    41     6    37    1
    42     7    38    1
    43    10    39    1
    44    15    40    1
    45    17    41    1
    46    17    42    1
    47    19    43    1
    48    20    44    1
    49    23    45    1
    50    24    46    1
    51    25    47    1
    52    27    48    1
    53    29    49    1
    54    30    50    1
