
     RDKit          3D

 50 54  0  0  0  0  0  0  0  0999 V2000
   -7.6551    3.2930   -0.3042 C   0  0  0  0  0  0  0  0  0  0  0  0
   -6.4641    2.4257   -0.4071 N   0  0  0  0  0  0  0  0  0  0  0  0
   -5.8594    1.8786    0.7390 C   0  0  0  0  0  0  0  0  0  0  0  0
   -6.4292    2.2004    1.8383 O   0  0  0  0  0  0  0  0  0  0  0  0
   -4.6935    1.0202    0.7433 C   0  0  0  0  0  0  0  0  0  0  0  0
   -4.1992    0.5775    1.9754 C   0  0  0  0  0  0  0  0  0  0  0  0
   -3.0939   -0.2393    2.0696 C   0  0  0  0  0  0  0  0  0  0  0  0
   -2.4138   -0.6654    0.9513 C   0  0  0  0  0  0  0  0  0  0  0  0
   -1.2466   -1.5303    1.0857 C   0  0  0  0  0  0  0  0  0  0  0  0
   -1.1348   -2.4444    2.1064 C   0  0  0  0  0  0  0  0  0  0  0  0
   -0.0122   -3.2243    2.1726 C   0  0  0  0  0  0  0  0  0  0  0  0
    0.1665   -4.1507    3.1557 F   0  0  0  0  0  0  0  0  0  0  0  0
    0.9547   -3.0391    1.1904 C   0  0  0  0  0  0  0  0  0  0  0  0
    2.1462   -3.6758    1.0267 N   0  0  0  0  0  0  0  0  0  0  0  0
    2.7587   -3.1755   -0.0606 C   0  0  0  0  0  0  0  0  0  0  0  0
    1.9246   -2.1890   -0.6015 C   0  0  0  0  0  0  0  0  0  0  0  0
    2.1943   -1.3758   -1.8026 C   0  0  0  0  0  0  0  0  0  0  0  0
    2.9603   -0.1879   -1.4117 C   0  0  0  0  0  0  0  0  0  0  0  0
    2.3179    0.9802   -1.0797 C   0  0  0  0  0  0  0  0  0  0  0  0
    3.0352    2.1158   -0.7048 C   0  0  0  0  0  0  0  0  0  0  0  0
    4.4008    2.0281   -0.6787 C   0  0  0  0  0  0  0  0  0  0  0  0
    5.1168    3.1092   -0.3205 N   0  0  0  0  0  0  0  0  0  0  0  0
    6.4545    3.0694   -0.2808 C   0  0  0  0  0  0  0  0  0  0  0  0
    7.1484    1.9151   -0.6066 C   0  0  0  0  0  0  0  0  0  0  0  0
    6.4344    0.8133   -0.9710 C   0  0  0  0  0  0  0  0  0  0  0  0
    5.0770    0.8656   -1.0077 C   0  0  0  0  0  0  0  0  0  0  0  0
    4.3309   -0.2428   -1.3753 C   0  0  0  0  0  0  0  0  0  0  0  0
    0.8590   -2.1611    0.2011 N   0  0  0  0  0  0  0  0  0  0  0  0
   -0.2477   -1.3968    0.1413 C   0  0  0  0  0  0  0  0  0  0  0  0
   -2.8844   -0.2412   -0.2663 C   0  0  0  0  0  0  0  0  0  0  0  0
   -4.0154    0.5941   -0.3558 C   0  0  0  0  0  0  0  0  0  0  0  0
   -4.4243    0.9729   -1.6000 F   0  0  0  0  0  0  0  0  0  0  0  0
   -7.8911    3.7357   -1.2893 H   0  0  0  0  0  0  0  0  0  0  0  0
   -8.5071    2.6964    0.0205 H   0  0  0  0  0  0  0  0  0  0  0  0
   -7.4475    4.0662    0.4614 H   0  0  0  0  0  0  0  0  0  0  0  0
   -6.0913    2.2359   -1.3464 H   0  0  0  0  0  0  0  0  0  0  0  0
   -4.7394    0.9160    2.8634 H   0  0  0  0  0  0  0  0  0  0  0  0
   -2.7405   -0.5619    3.0434 H   0  0  0  0  0  0  0  0  0  0  0  0
   -1.9134   -2.5539    2.8493 H   0  0  0  0  0  0  0  0  0  0  0  0
    3.7133   -3.4312   -0.5004 H   0  0  0  0  0  0  0  0  0  0  0  0
    1.2380   -1.0801   -2.2818 H   0  0  0  0  0  0  0  0  0  0  0  0
    2.7795   -1.9285   -2.5699 H   0  0  0  0  0  0  0  0  0  0  0  0
    1.2469    1.0323   -1.1065 H   0  0  0  0  0  0  0  0  0  0  0  0
    2.5301    3.0147   -0.4497 H   0  0  0  0  0  0  0  0  0  0  0  0
    7.0659    3.9318    0.0065 H   0  0  0  0  0  0  0  0  0  0  0  0
    8.2242    1.9089   -0.5668 H   0  0  0  0  0  0  0  0  0  0  0  0
    6.9185   -0.1171   -1.2366 H   0  0  0  0  0  0  0  0  0  0  0  0
    4.8491   -1.1446   -1.6309 H   0  0  0  0  0  0  0  0  0  0  0  0
   -0.3507   -0.6823   -0.6474 H   0  0  0  0  0  0  0  0  0  0  0  0
   -2.3913   -0.5435   -1.1806 H   0  0  0  0  0  0  0  0  0  0  0  0
  1  2  1  0
  2  3  1  0
  3  4  2  0
  3  5  1  0
  5  6  2  0
  6  7  1  0
  7  8  2  0
  8  9  1  0
  9 10  1  0
 10 11  2  0
 11 12  1  0
 11 13  1  0
 13 14  2  0
 14 15  1  0
 15 16  2  0
 16 17  1  0
 17 18  1  0
 18 19  2  0
 19 20  1  0
 20 21  2  0
 21 22  1  0
 22 23  2  0
 23 24  1  0
 24 25  2  0
 25 26  1  0
 26 27  2  0
 16 28  1  0
 28 29  1  0
  8 30  1  0
 30 31  2  0
 31 32  1  0
 31  5  1  0
 29  9  2  0
 28 13  1  0
 27 18  1  0
 26 21  1  0
  1 33  1  0
  1 34  1  0
  1 35  1  0
  2 36  1  0
  6 37  1  0
  7 38  1  0
 10 39  1  0
 15 40  1  0
 17 41  1  0
 17 42  1  0
 19 43  1  0
 20 44  1  0
 23 45  1  0
 24 46  1  0
 25 47  1  0
 27 48  1  0
 29 49  1  0
 30 50  1  0
M  END
$$$$
