@<TRIPOS>MOLECULE
*****
 51 54 0 0 0
SMALL
GASTEIGER

@<TRIPOS>ATOM
      1 O           2.0958    0.5744    2.5688 O.2     1  UNL1       -0.2723
      2 C           1.1724    0.0023    1.8779 C.2     1  UNL1        0.2490
      3 C          -0.2421    0.3528    2.1095 C.3     1  UNL1        0.1044
      4 N          -1.0145    0.6174    0.9133 N.ar    1  UNL1       -0.2963
      5 C          -1.7290   -0.3525    0.2817 C.ar    1  UNL1        0.2739
      6 O          -1.7029   -1.5335    0.7297 O.2     1  UNL1       -0.2657
      7 C          -2.4844   -0.0932   -0.8371 C.ar    1  UNL1        0.1105
      8 C          -3.3279   -1.1428   -1.5162 C.3     1  UNL1        0.0201
      9 C          -4.5744   -1.3429   -0.7124 C.ar    1  UNL1       -0.0414
     10 C          -5.6230   -0.4681   -0.8462 C.ar    1  UNL1       -0.0582
     11 C          -6.8058   -0.5967   -0.1058 C.ar    1  UNL1       -0.0615
     12 C          -6.8879   -1.6486    0.7808 C.ar    1  UNL1       -0.0617
     13 C          -5.8509   -2.5466    0.9380 C.ar    1  UNL1       -0.0615
     14 C          -4.6875   -2.3776    0.1753 C.ar    1  UNL1       -0.0582
     15 N          -2.5478    1.1492   -1.3664 N.ar    1  UNL1       -0.2444
     16 C          -1.8555    2.1175   -0.7688 C.ar    1  UNL1        0.0879
     17 C          -1.9293    3.3796   -1.3105 C.ar    1  UNL1       -0.0343
     18 C          -1.2415    4.4375   -0.7416 C.ar    1  UNL1       -0.0596
     19 C          -0.4894    4.1732    0.3735 C.ar    1  UNL1       -0.0597
     20 C          -0.4166    2.8961    0.9192 C.ar    1  UNL1       -0.0360
     21 C          -1.0981    1.8558    0.3565 C.ar    1  UNL1        0.0708
     22 N           1.6290   -0.9476    0.9262 N.am    1  UNL1       -0.2327
     23 N           3.0083   -1.2176    0.7920 N.am    1  UNL1       -0.2303
     24 C           3.8617   -0.4541   -0.0343 C.2     1  UNL1        0.2601
     25 O           3.3370    0.4843   -0.6665 O.2     1  UNL1       -0.2687
     26 C           5.2884   -0.6916   -0.1900 C.ar    1  UNL1        0.0382
     27 C           5.9940   -1.5840    0.6199 C.ar    1  UNL1       -0.0482
     28 C           7.3507   -1.7984    0.4483 C.ar    1  UNL1       -0.0427
     29 C           8.0742   -1.1490   -0.5273 C.ar    1  UNL1        0.0410
     30 CL          9.7839   -1.4215   -0.7614 Cl      1  UNL1       -0.0835
     31 C           7.4034   -0.2694   -1.3348 C.ar    1  UNL1       -0.0427
     32 C           6.0408   -0.0662   -1.1444 C.ar    1  UNL1       -0.0482
     33 H          -0.2927    1.1820    2.8439 H       1  UNL1        0.0589
     34 H          -0.7511   -0.4958    2.6928 H       1  UNL1        0.0589
     35 H          -3.6248   -0.7460   -2.4970 H       1  UNL1        0.0378
     36 H          -2.7622   -2.1014   -1.6487 H       1  UNL1        0.0378
     37 H          -5.5839    0.3659   -1.5362 H       1  UNL1        0.0620
     38 H          -7.5941    0.1248   -0.2573 H       1  UNL1        0.0618
     39 H          -7.8095   -1.7642    1.3728 H       1  UNL1        0.0618
     40 H          -5.9539   -3.3543    1.6381 H       1  UNL1        0.0618
     41 H          -3.9107   -3.1093    0.3425 H       1  UNL1        0.0620
     42 H          -2.5251    3.6085   -2.1961 H       1  UNL1        0.0639
     43 H          -1.3059    5.4290   -1.1821 H       1  UNL1        0.0618
     44 H           0.0746    4.9785    0.8525 H       1  UNL1        0.0618
     45 H           0.1933    2.7531    1.7926 H       1  UNL1        0.0639
     46 H           0.9843   -1.4651    0.3245 H       1  UNL1        0.1729
     47 H           3.4510   -2.0045    1.3033 H       1  UNL1        0.1731
     48 H           5.4589   -2.1145    1.3965 H       1  UNL1        0.0625
     49 H           7.8927   -2.4972    1.0967 H       1  UNL1        0.0632
     50 H           7.9686    0.2405   -2.0985 H       1  UNL1        0.0632
     51 H           5.5594    0.6317   -1.8104 H       1  UNL1        0.0625
@<TRIPOS>BOND
     1     1     2    2
     2     2     3    1
     3     3     4    1
     4     4     5   ar
     5     5     6    2
     6     5     7   ar
     7     7     8    1
     8     8     9    1
     9     9    10   ar
    10    10    11   ar
    11    11    12   ar
    12    12    13   ar
    13    13    14   ar
    14     7    15   ar
    15    15    16   ar
    16    16    17   ar
    17    17    18   ar
    18    18    19   ar
    19    19    20   ar
    20    20    21   ar
    21     2    22   am
    22    22    23    1
    23    23    24   am
    24    24    25    2
    25    24    26    1
    26    26    27   ar
    27    27    28   ar
    28    28    29   ar
    29    29    30    1
    30    29    31   ar
    31    31    32   ar
    32    21     4   ar
    33    32    26   ar
    34    14     9   ar
    35    21    16   ar
    36     3    33    1
    37     3    34    1
    38     8    35    1
    39     8    36    1
    40    10    37    1
    41    11    38    1
    42    12    39    1
    43    13    40    1
    44    14    41    1
    45    17    42    1
    46    18    43    1
    47    19    44    1
    48    20    45    1
    49    22    46    1
    50    23    47    1
    51    27    48    1
    52    28    49    1
    53    31    50    1
    54    32    51    1
