@<TRIPOS>MOLECULE
*****
 62 65 0 0 0
SMALL
GASTEIGER

@<TRIPOS>ATOM
      1 C          -2.5049   -0.4438   -0.9851 C.3     1  UNL1        0.0939
      2 N          -2.5805    0.9757   -1.0834 N.3     1  UNL1       -0.3193
      3 C          -3.0161   -0.9880    0.3236 C.2     1  UNL1        0.2333
      4 O          -2.7952   -2.2516    0.2380 O.2     1  UNL1       -0.2739
      5 N          -3.6198   -0.2908    1.4402 N.am    1  UNL1       -0.2943
      6 C          -3.9677    1.0987    1.7334 C.3     1  UNL1        0.0204
      7 C          -4.9273    0.9202    2.9177 C.3     1  UNL1        0.0281
      8 C          -4.1118   -0.1280    3.6870 C.3     1  UNL1        0.2657
      9 F          -4.8098   -0.6359    4.7359 F       1  UNL1       -0.2039
     10 F          -2.8727    0.3872    4.0220 F       1  UNL1       -0.2039
     11 C          -3.9700   -1.1536    2.5541 C.3     1  UNL1        0.0781
     12 C          -1.2453   -1.0760   -1.4509 C.3     1  UNL1        0.0621
     13 C          -1.0970   -0.7094   -2.8851 C.2     1  UNL1        0.2204
     14 O          -2.1421   -0.0186   -2.9930 O.2     1  UNL1       -0.2752
     15 N          -0.8514   -0.4263   -4.2491 N.am    1  UNL1       -0.3073
     16 C          -1.9080    0.4125   -4.7961 C.3     1  UNL1        0.0028
     17 C           0.3134   -0.9356   -4.9421 C.3     1  UNL1        0.0028
     18 C           0.0038   -0.8036   -0.7337 C.3     1  UNL1       -0.0280
     19 C           0.3674    0.6583   -0.7281 C.3     1  UNL1       -0.0489
     20 C           1.8873    0.6884   -0.4584 C.3     1  UNL1       -0.0459
     21 C           1.9923    0.2448    1.0071 C.3     1  UNL1       -0.0144
     22 C           1.5928   -1.1892    1.0735 C.3     1  UNL1       -0.0459
     23 C           0.1453   -1.4054    0.6418 C.3     1  UNL1       -0.0489
     24 C           3.3886    0.4254    1.4203 C.ar    1  UNL1       -0.0260
     25 C           4.2644   -0.3301    0.6609 C.ar    1  UNL1        0.0349
     26 N           5.6081   -0.2915    0.8998 N.ar    1  UNL1       -0.2202
     27 N           6.6577   -0.8952    0.3435 N.ar    1  UNL1       -0.1536
     28 C           7.7956   -0.5241    0.9425 C.ar    1  UNL1        0.1390
     29 N           7.4556    0.3447    1.9118 N.ar    1  UNL1       -0.2149
     30 C           6.1163    0.4776    1.8745 C.ar    1  UNL1        0.1557
     31 C           5.2745    1.2459    2.6538 C.ar    1  UNL1       -0.0171
     32 C           3.9160    1.2148    2.4215 C.ar    1  UNL1       -0.0534
     33 H          -3.3011   -0.8225   -1.7140 H       1  UNL1        0.0562
     34 H          -3.5197    1.3267   -1.3985 H       1  UNL1        0.1189
     35 H          -2.3890    1.4448   -0.1781 H       1  UNL1        0.1189
     36 H          -3.1103    1.6840    2.0738 H       1  UNL1        0.0466
     37 H          -4.4881    1.5996    0.8921 H       1  UNL1        0.0466
     38 H          -5.8325    0.4215    2.5567 H       1  UNL1        0.0338
     39 H          -5.0558    1.8429    3.4758 H       1  UNL1        0.0338
     40 H          -3.2271   -1.9123    2.7984 H       1  UNL1        0.0523
     41 H          -4.9987   -1.5445    2.3875 H       1  UNL1        0.0523
     42 H          -1.4539   -2.1963   -1.4496 H       1  UNL1        0.0417
     43 H          -1.9152    1.3949   -4.2566 H       1  UNL1        0.0428
     44 H          -1.6685    0.6855   -5.8489 H       1  UNL1        0.0428
     45 H          -2.9102   -0.0506   -4.7422 H       1  UNL1        0.0428
     46 H           1.1021   -0.1516   -4.9935 H       1  UNL1        0.0428
     47 H           0.6442   -1.8223   -4.3645 H       1  UNL1        0.0428
     48 H          -0.0013   -1.2180   -5.9612 H       1  UNL1        0.0428
     49 H           0.8341   -1.2947   -1.3368 H       1  UNL1        0.0309
     50 H           0.1436    1.1345   -1.6770 H       1  UNL1        0.0268
     51 H          -0.0916    1.1211    0.1714 H       1  UNL1        0.0268
     52 H           2.3255   -0.0993   -1.0887 H       1  UNL1        0.0271
     53 H           2.2846    1.6933   -0.6123 H       1  UNL1        0.0271
     54 H           1.2769    0.8403    1.6052 H       1  UNL1        0.0349
     55 H           2.2318   -1.8360    0.4306 H       1  UNL1        0.0271
     56 H           1.6725   -1.5695    2.1216 H       1  UNL1        0.0271
     57 H          -0.5183   -0.9703    1.3910 H       1  UNL1        0.0268
     58 H           0.0329   -2.5063    0.5426 H       1  UNL1        0.0268
     59 H           3.9958   -0.9905   -0.1518 H       1  UNL1        0.0833
     60 H           8.8038   -0.8469    0.7093 H       1  UNL1        0.1066
     61 H           5.6124    1.8869    3.4536 H       1  UNL1        0.0655
     62 H           3.1620    1.7720    2.9660 H       1  UNL1        0.0622
@<TRIPOS>BOND
     1     1     2    1
     2     1     3    1
     3     3     4    2
     4     3     5   am
     5     5     6    1
     6     6     7    1
     7     7     8    1
     8     8     9    1
     9     8    10    1
    10     8    11    1
    11     1    12    1
    12    12    13    1
    13    13    14    2
    14    13    15   am
    15    15    16    1
    16    15    17    1
    17    12    18    1
    18    18    19    1
    19    19    20    1
    20    20    21    1
    21    21    22    1
    22    22    23    1
    23    21    24    1
    24    24    25   ar
    25    25    26   ar
    26    26    27   ar
    27    27    28   ar
    28    28    29   ar
    29    29    30   ar
    30    30    31   ar
    31    31    32   ar
    32    11     5    1
    33    23    18    1
    34    32    24   ar
    35    30    26   ar
    36     1    33    1
    37     2    34    1
    38     2    35    1
    39     6    36    1
    40     6    37    1
    41     7    38    1
    42     7    39    1
    43    11    40    1
    44    11    41    1
    45    12    42    1
    46    16    43    1
    47    16    44    1
    48    16    45    1
    49    17    46    1
    50    17    47    1
    51    17    48    1
    52    18    49    1
    53    19    50    1
    54    19    51    1
    55    20    52    1
    56    20    53    1
    57    21    54    1
    58    22    55    1
    59    22    56    1
    60    23    57    1
    61    23    58    1
    62    25    59    1
    63    28    60    1
    64    31    61    1
    65    32    62    1
