@<TRIPOS>MOLECULE
*****
 105 113 0 0 0
SMALL
GASTEIGER

@<TRIPOS>ATOM
      1 N          10.3340    4.6697    1.6213 N.pl3   1  UNL1       -0.3413
      2 C          10.0528    4.1555    0.3243 C.ar    1  UNL1        0.1472
      3 N          10.9955    4.2123   -0.6470 N.ar    1  UNL1       -0.2188
      4 C          10.7348    3.7325   -1.8618 C.ar    1  UNL1        0.1205
      5 N           9.5202    3.1953   -2.0936 N.ar    1  UNL1       -0.2159
      6 C           8.5612    3.1157   -1.1752 C.ar    1  UNL1        0.1674
      7 C           8.8167    3.6076    0.0848 C.ar    1  UNL1        0.1473
      8 N           7.6832    3.3895    0.7719 N.ar    1  UNL1       -0.2306
      9 C           6.7808    2.7982   -0.0155 C.ar    1  UNL1        0.1004
     10 N           7.3113    2.6187   -1.2374 N.ar    1  UNL1       -0.2855
     11 C           6.6225    2.0118   -2.3432 C.3     1  UNL1        0.1667
     12 O           5.5415    1.3101   -1.8876 O.3     1  UNL1       -0.3456
     13 C           5.8326   -0.0155   -1.7645 C.3     1  UNL1        0.1134
     14 C           5.5386   -0.6364   -0.4407 C.3     1  UNL1        0.0879
     15 O           4.1999   -0.5525   -0.1022 O.3     1  UNL1       -0.2840
     16 P           3.9746   -1.2812    1.4041 P.3     1  UNL1        0.4755
     17 O           4.4352   -2.7169    1.2907 O.2     1  UNL1       -0.2273
     18 O           4.9250   -0.4885    2.5569 O.3     1  UNL1       -0.3025
     19 O           2.3718   -1.1593    1.8495 O.3     1  UNL1       -0.2761
     20 C           1.5041   -1.9367    1.0842 C.3     1  UNL1        0.1433
     21 C           0.2973   -1.1088    0.6838 C.3     1  UNL1        0.1144
     22 O           0.4727    0.2388    1.0711 O.3     1  UNL1       -0.3864
     23 C          -0.8122   -1.7439    1.4920 C.3     1  UNL1        0.1134
     24 C          -2.1727   -1.6161    0.8555 C.3     1  UNL1        0.0879
     25 O          -3.0442   -2.3957    1.6340 O.3     1  UNL1       -0.2840
     26 P          -4.6020   -2.3056    1.0513 P.3     1  UNL1        0.4755
     27 O          -4.9003   -3.5903    0.2874 O.2     1  UNL1       -0.2273
     28 O          -5.7506   -2.2269    2.2961 O.3     1  UNL1       -0.3025
     29 O          -4.8359   -1.0058    0.0294 O.3     1  UNL1       -0.2761
     30 C          -5.9126   -0.2041    0.4278 C.3     1  UNL1        0.1433
     31 C          -6.9089   -0.2136   -0.7227 C.3     1  UNL1        0.1144
     32 O          -6.9599   -1.4310   -1.3599 O.3     1  UNL1       -0.3864
     33 C          -6.3754    0.9076   -1.5729 C.3     1  UNL1        0.1134
     34 C          -7.4885    1.6157   -2.3259 C.3     1  UNL1        0.0878
     35 O          -8.1652    0.6355   -3.0641 O.3     1  UNL1       -0.2841
     36 P          -9.4233    1.2643   -3.9680 P.3     1  UNL1        0.4724
     37 O         -10.4284    0.1600   -4.2807 O.2     1  UNL1       -0.2275
     38 O          -8.8664    1.8466   -5.4767 O.3     1  UNL1       -0.3026
     39 O         -10.2024    2.5456   -3.1762 O.3     1  UNL1       -0.3026
     40 O          -5.6242    1.7469   -0.8024 O.3     1  UNL1       -0.3456
     41 C          -5.5251    1.2378    0.4728 C.3     1  UNL1        0.1675
     42 N          -6.4320    2.0037    1.3260 N.ar    1  UNL1       -0.2855
     43 C          -7.1335    1.6136    2.3848 C.ar    1  UNL1        0.1004
     44 N          -7.8542    2.6364    2.8938 N.ar    1  UNL1       -0.2306
     45 C          -7.5896    3.7009    2.1214 C.ar    1  UNL1        0.1473
     46 C          -8.0042    5.0190    2.1170 C.ar    1  UNL1        0.1472
     47 N          -8.9096    5.5008    3.0828 N.pl3   1  UNL1       -0.3413
     48 N          -7.5562    5.8826    1.1905 N.ar    1  UNL1       -0.2188
     49 C          -6.6923    5.4838    0.2439 C.ar    1  UNL1        0.1205
     50 N          -6.2770    4.2038    0.2320 N.ar    1  UNL1       -0.2159
     51 C          -6.6979    3.2977    1.1410 C.ar    1  UNL1        0.1674
     52 O          -0.3881   -3.0944    1.5085 O.3     1  UNL1       -0.3456
     53 C           0.8770   -2.9234    2.0612 C.3     1  UNL1        0.1675
     54 N           1.6256   -4.1557    2.1222 N.ar    1  UNL1       -0.2855
     55 C           2.2925   -4.5630    3.2175 C.ar    1  UNL1        0.1004
     56 N           2.8976   -5.7449    2.9865 N.ar    1  UNL1       -0.2306
     57 C           2.5965   -6.0690    1.7256 C.ar    1  UNL1        0.1473
     58 C           2.9446   -7.1682    0.9608 C.ar    1  UNL1        0.1472
     59 N           3.7562   -8.2078    1.4770 N.pl3   1  UNL1       -0.3413
     60 N           2.4711   -7.2045   -0.3076 N.ar    1  UNL1       -0.2188
     61 C           1.6964   -6.2193   -0.8081 C.ar    1  UNL1        0.1205
     62 N           1.3443   -5.1352   -0.0757 N.ar    1  UNL1       -0.2159
     63 C           1.8057   -5.0818    1.1872 C.ar    1  UNL1        0.1674
     64 C           7.2709   -0.2176   -2.1910 C.3     1  UNL1        0.1135
     65 O           7.4838   -1.3936   -2.8724 O.3     1  UNL1       -0.3864
     66 C           7.4496    1.0147   -3.0864 C.3     1  UNL1        0.1285
     67 O           6.8167    0.7243   -4.2930 O.3     1  UNL1       -0.3847
     68 H           9.6774    5.3565    2.0925 H       1  UNL1        0.1438
     69 H          11.2034    4.3519    2.0929 H       1  UNL1        0.1438
     70 H          11.4900    3.7812   -2.6307 H       1  UNL1        0.1048
     71 H           5.7764    2.5145    0.3056 H       1  UNL1        0.1030
     72 H           6.3093    2.8325   -3.0366 H       1  UNL1        0.0866
     73 H           5.2131   -0.5665   -2.5317 H       1  UNL1        0.0647
     74 H           6.1894   -0.1138    0.3169 H       1  UNL1        0.0592
     75 H           5.8604   -1.6973   -0.4804 H       1  UNL1        0.0592
     76 H           5.3159   -1.1014    3.2192 H       1  UNL1        0.2220
     77 H           1.9799   -2.4512    0.2503 H       1  UNL1        0.0674
     78 H           0.0720   -1.1717   -0.3816 H       1  UNL1        0.0648
     79 H           1.4647    0.3795    1.1134 H       1  UNL1        0.2100
     80 H          -0.8003   -1.4067    2.5389 H       1  UNL1        0.0647
     81 H          -2.5013   -0.5628    0.9864 H       1  UNL1        0.0592
     82 H          -2.1836   -1.8666   -0.2035 H       1  UNL1        0.0592
     83 H          -5.3384   -2.4271    3.1690 H       1  UNL1        0.2220
     84 H          -6.3626   -0.5995    1.3560 H       1  UNL1        0.0674
     85 H          -7.9072    0.0469   -0.3001 H       1  UNL1        0.0648
     86 H          -7.6130   -2.0044   -0.8579 H       1  UNL1        0.2100
     87 H          -5.7104    0.4513   -2.3636 H       1  UNL1        0.0647
     88 H          -8.1627    2.1195   -1.5850 H       1  UNL1        0.0592
     89 H          -7.0106    2.3314   -3.0207 H       1  UNL1        0.0592
     90 H          -9.6125    1.8111   -6.1325 H       1  UNL1        0.2220
     91 H         -10.7059    2.1271   -2.4097 H       1  UNL1        0.2220
     92 H          -4.5158    1.3833    0.9028 H       1  UNL1        0.0867
     93 H          -7.1468    0.6320    2.8010 H       1  UNL1        0.1030
     94 H          -9.7884    4.9809    3.2683 H       1  UNL1        0.1438
     95 H          -8.6496    6.3833    3.5831 H       1  UNL1        0.1438
     96 H          -6.3084    6.1349   -0.5144 H       1  UNL1        0.1048
     97 H           0.7692   -2.4505    3.0342 H       1  UNL1        0.0867
     98 H           2.3423   -4.0238    4.1581 H       1  UNL1        0.1030
     99 H           3.6849   -9.1561    1.0618 H       1  UNL1        0.1438
    100 H           4.4071   -8.0411    2.2470 H       1  UNL1        0.1438
    101 H           1.3696   -6.3515   -1.8456 H       1  UNL1        0.1048
    102 H           7.8994   -0.1018   -1.2819 H       1  UNL1        0.0647
    103 H           6.6527   -1.9317   -2.8185 H       1  UNL1        0.2100
    104 H           8.5020    1.2786   -3.2047 H       1  UNL1        0.0665
    105 H           5.8365    0.8395   -4.2146 H       1  UNL1        0.2101
@<TRIPOS>BOND
     1     1     2    1
     2     2     3   ar
     3     3     4   ar
     4     4     5   ar
     5     5     6   ar
     6     6     7   ar
     7     7     8   ar
     8     8     9   ar
     9     9    10   ar
    10    10    11    1
    11    11    12    1
    12    12    13    1
    13    13    14    1
    14    14    15    1
    15    15    16    1
    16    16    17    2
    17    16    18    1
    18    16    19    1
    19    19    20    1
    20    20    21    1
    21    21    22    1
    22    21    23    1
    23    23    24    1
    24    24    25    1
    25    25    26    1
    26    26    27    2
    27    26    28    1
    28    26    29    1
    29    29    30    1
    30    30    31    1
    31    31    32    1
    32    31    33    1
    33    33    34    1
    34    34    35    1
    35    35    36    1
    36    36    37    2
    37    36    38    1
    38    36    39    1
    39    33    40    1
    40    40    41    1
    41    41    42    1
    42    42    43   ar
    43    43    44   ar
    44    44    45   ar
    45    45    46   ar
    46    46    47    1
    47    46    48   ar
    48    48    49   ar
    49    49    50   ar
    50    50    51   ar
    51    23    52    1
    52    52    53    1
    53    53    54    1
    54    54    55   ar
    55    55    56   ar
    56    56    57   ar
    57    57    58   ar
    58    58    59    1
    59    58    60   ar
    60    60    61   ar
    61    61    62   ar
    62    62    63   ar
    63    13    64    1
    64    64    65    1
    65    64    66    1
    66    66    67    1
    67     7     2   ar
    68    66    11    1
    69    10     6   ar
    70    53    20    1
    71    63    54   ar
    72    41    30    1
    73    51    42   ar
    74    63    57   ar
    75    51    45   ar
    76     1    68    1
    77     1    69    1
    78     4    70    1
    79     9    71    1
    80    11    72    1
    81    13    73    1
    82    14    74    1
    83    14    75    1
    84    18    76    1
    85    20    77    1
    86    21    78    1
    87    22    79    1
    88    23    80    1
    89    24    81    1
    90    24    82    1
    91    28    83    1
    92    30    84    1
    93    31    85    1
    94    32    86    1
    95    33    87    1
    96    34    88    1
    97    34    89    1
    98    38    90    1
    99    39    91    1
   100    41    92    1
   101    43    93    1
   102    47    94    1
   103    47    95    1
   104    49    96    1
   105    53    97    1
   106    55    98    1
   107    59    99    1
   108    59   100    1
   109    61   101    1
   110    64   102    1
   111    65   103    1
   112    66   104    1
   113    67   105    1
