
     RDKit          3D

105113  0  0  0  0  0  0  0  0999 V2000
   10.3340    4.6697    1.6213 N   0  0  0  0  0  0  0  0  0  0  0  0
   10.0528    4.1555    0.3243 C   0  0  0  0  0  0  0  0  0  0  0  0
   10.9955    4.2123   -0.6470 N   0  0  0  0  0  0  0  0  0  0  0  0
   10.7348    3.7325   -1.8618 C   0  0  0  0  0  0  0  0  0  0  0  0
    9.5202    3.1953   -2.0936 N   0  0  0  0  0  0  0  0  0  0  0  0
    8.5612    3.1157   -1.1752 C   0  0  0  0  0  0  0  0  0  0  0  0
    8.8167    3.6076    0.0848 C   0  0  0  0  0  0  0  0  0  0  0  0
    7.6832    3.3895    0.7719 N   0  0  0  0  0  0  0  0  0  0  0  0
    6.7808    2.7982   -0.0155 C   0  0  0  0  0  0  0  0  0  0  0  0
    7.3113    2.6187   -1.2374 N   0  0  0  0  0  0  0  0  0  0  0  0
    6.6225    2.0118   -2.3432 C   0  0  2  0  0  0  0  0  0  0  0  0
    5.5415    1.3101   -1.8876 O   0  0  0  0  0  0  0  0  0  0  0  0
    5.8326   -0.0155   -1.7645 C   0  0  2  0  0  0  0  0  0  0  0  0
    5.5386   -0.6364   -0.4407 C   0  0  0  0  0  0  0  0  0  0  0  0
    4.1999   -0.5525   -0.1022 O   0  0  0  0  0  0  0  0  0  0  0  0
    3.9746   -1.2812    1.4041 P   0  0  0  0  0  5  0  0  0  0  0  0
    4.4352   -2.7169    1.2907 O   0  0  0  0  0  0  0  0  0  0  0  0
    4.9250   -0.4885    2.5569 O   0  0  0  0  0  0  0  0  0  0  0  0
    2.3718   -1.1593    1.8495 O   0  0  0  0  0  0  0  0  0  0  0  0
    1.5041   -1.9367    1.0842 C   0  0  2  0  0  0  0  0  0  0  0  0
    0.2973   -1.1088    0.6838 C   0  0  2  0  0  0  0  0  0  0  0  0
    0.4727    0.2388    1.0711 O   0  0  0  0  0  0  0  0  0  0  0  0
   -0.8122   -1.7439    1.4920 C   0  0  1  0  0  0  0  0  0  0  0  0
   -2.1727   -1.6161    0.8555 C   0  0  0  0  0  0  0  0  0  0  0  0
   -3.0442   -2.3957    1.6340 O   0  0  0  0  0  0  0  0  0  0  0  0
   -4.6020   -2.3056    1.0513 P   0  0  0  0  0  5  0  0  0  0  0  0
   -4.9003   -3.5903    0.2874 O   0  0  0  0  0  0  0  0  0  0  0  0
   -5.7506   -2.2269    2.2961 O   0  0  0  0  0  0  0  0  0  0  0  0
   -4.8359   -1.0058    0.0294 O   0  0  0  0  0  0  0  0  0  0  0  0
   -5.9126   -0.2041    0.4278 C   0  0  2  0  0  0  0  0  0  0  0  0
   -6.9089   -0.2136   -0.7227 C   0  0  2  0  0  0  0  0  0  0  0  0
   -6.9599   -1.4310   -1.3599 O   0  0  0  0  0  0  0  0  0  0  0  0
   -6.3754    0.9076   -1.5729 C   0  0  1  0  0  0  0  0  0  0  0  0
   -7.4885    1.6157   -2.3259 C   0  0  0  0  0  0  0  0  0  0  0  0
   -8.1652    0.6355   -3.0641 O   0  0  0  0  0  0  0  0  0  0  0  0
   -9.4233    1.2643   -3.9680 P   0  0  0  0  0  5  0  0  0  0  0  0
  -10.4284    0.1600   -4.2807 O   0  0  0  0  0  0  0  0  0  0  0  0
   -8.8664    1.8466   -5.4767 O   0  0  0  0  0  0  0  0  0  0  0  0
  -10.2024    2.5456   -3.1762 O   0  0  0  0  0  0  0  0  0  0  0  0
   -5.6242    1.7469   -0.8024 O   0  0  0  0  0  0  0  0  0  0  0  0
   -5.5251    1.2378    0.4728 C   0  0  1  0  0  0  0  0  0  0  0  0
   -6.4320    2.0037    1.3260 N   0  0  0  0  0  0  0  0  0  0  0  0
   -7.1335    1.6136    2.3848 C   0  0  0  0  0  0  0  0  0  0  0  0
   -7.8542    2.6364    2.8938 N   0  0  0  0  0  0  0  0  0  0  0  0
   -7.5896    3.7009    2.1214 C   0  0  0  0  0  0  0  0  0  0  0  0
   -8.0042    5.0190    2.1170 C   0  0  0  0  0  0  0  0  0  0  0  0
   -8.9096    5.5008    3.0828 N   0  0  0  0  0  0  0  0  0  0  0  0
   -7.5562    5.8826    1.1905 N   0  0  0  0  0  0  0  0  0  0  0  0
   -6.6923    5.4838    0.2439 C   0  0  0  0  0  0  0  0  0  0  0  0
   -6.2770    4.2038    0.2320 N   0  0  0  0  0  0  0  0  0  0  0  0
   -6.6979    3.2977    1.1410 C   0  0  0  0  0  0  0  0  0  0  0  0
   -0.3881   -3.0944    1.5085 O   0  0  0  0  0  0  0  0  0  0  0  0
    0.8770   -2.9234    2.0612 C   0  0  1  0  0  0  0  0  0  0  0  0
    1.6256   -4.1557    2.1222 N   0  0  0  0  0  0  0  0  0  0  0  0
    2.2925   -4.5630    3.2175 C   0  0  0  0  0  0  0  0  0  0  0  0
    2.8976   -5.7449    2.9865 N   0  0  0  0  0  0  0  0  0  0  0  0
    2.5965   -6.0690    1.7256 C   0  0  0  0  0  0  0  0  0  0  0  0
    2.9446   -7.1682    0.9608 C   0  0  0  0  0  0  0  0  0  0  0  0
    3.7562   -8.2078    1.4770 N   0  0  0  0  0  0  0  0  0  0  0  0
    2.4711   -7.2045   -0.3076 N   0  0  0  0  0  0  0  0  0  0  0  0
    1.6964   -6.2193   -0.8081 C   0  0  0  0  0  0  0  0  0  0  0  0
    1.3443   -5.1352   -0.0757 N   0  0  0  0  0  0  0  0  0  0  0  0
    1.8057   -5.0818    1.1872 C   0  0  0  0  0  0  0  0  0  0  0  0
    7.2709   -0.2176   -2.1910 C   0  0  1  0  0  0  0  0  0  0  0  0
    7.4838   -1.3936   -2.8724 O   0  0  0  0  0  0  0  0  0  0  0  0
    7.4496    1.0147   -3.0864 C   0  0  1  0  0  0  0  0  0  0  0  0
    6.8167    0.7243   -4.2930 O   0  0  0  0  0  0  0  0  0  0  0  0
    9.6774    5.3565    2.0925 H   0  0  0  0  0  0  0  0  0  0  0  0
   11.2034    4.3519    2.0929 H   0  0  0  0  0  0  0  0  0  0  0  0
   11.4900    3.7812   -2.6307 H   0  0  0  0  0  0  0  0  0  0  0  0
    5.7764    2.5145    0.3056 H   0  0  0  0  0  0  0  0  0  0  0  0
    6.3093    2.8325   -3.0366 H   0  0  0  0  0  0  0  0  0  0  0  0
    5.2131   -0.5665   -2.5317 H   0  0  0  0  0  0  0  0  0  0  0  0
    6.1894   -0.1138    0.3169 H   0  0  0  0  0  0  0  0  0  0  0  0
    5.8604   -1.6973   -0.4804 H   0  0  0  0  0  0  0  0  0  0  0  0
    5.3159   -1.1014    3.2192 H   0  0  0  0  0  0  0  0  0  0  0  0
    1.9799   -2.4512    0.2503 H   0  0  0  0  0  0  0  0  0  0  0  0
    0.0720   -1.1717   -0.3816 H   0  0  0  0  0  0  0  0  0  0  0  0
    1.4647    0.3795    1.1134 H   0  0  0  0  0  0  0  0  0  0  0  0
   -0.8003   -1.4067    2.5389 H   0  0  0  0  0  0  0  0  0  0  0  0
   -2.5013   -0.5628    0.9864 H   0  0  0  0  0  0  0  0  0  0  0  0
   -2.1836   -1.8666   -0.2035 H   0  0  0  0  0  0  0  0  0  0  0  0
   -5.3384   -2.4271    3.1690 H   0  0  0  0  0  0  0  0  0  0  0  0
   -6.3626   -0.5995    1.3560 H   0  0  0  0  0  0  0  0  0  0  0  0
   -7.9072    0.0469   -0.3001 H   0  0  0  0  0  0  0  0  0  0  0  0
   -7.6130   -2.0044   -0.8579 H   0  0  0  0  0  0  0  0  0  0  0  0
   -5.7104    0.4513   -2.3636 H   0  0  0  0  0  0  0  0  0  0  0  0
   -8.1627    2.1195   -1.5850 H   0  0  0  0  0  0  0  0  0  0  0  0
   -7.0106    2.3314   -3.0207 H   0  0  0  0  0  0  0  0  0  0  0  0
   -9.6125    1.8111   -6.1325 H   0  0  0  0  0  0  0  0  0  0  0  0
  -10.7059    2.1271   -2.4097 H   0  0  0  0  0  0  0  0  0  0  0  0
   -4.5158    1.3833    0.9028 H   0  0  0  0  0  0  0  0  0  0  0  0
   -7.1468    0.6320    2.8010 H   0  0  0  0  0  0  0  0  0  0  0  0
   -9.7884    4.9809    3.2683 H   0  0  0  0  0  0  0  0  0  0  0  0
   -8.6496    6.3833    3.5831 H   0  0  0  0  0  0  0  0  0  0  0  0
   -6.3084    6.1349   -0.5144 H   0  0  0  0  0  0  0  0  0  0  0  0
    0.7692   -2.4505    3.0342 H   0  0  0  0  0  0  0  0  0  0  0  0
    2.3423   -4.0238    4.1581 H   0  0  0  0  0  0  0  0  0  0  0  0
    3.6849   -9.1561    1.0618 H   0  0  0  0  0  0  0  0  0  0  0  0
    4.4071   -8.0411    2.2470 H   0  0  0  0  0  0  0  0  0  0  0  0
    1.3696   -6.3515   -1.8456 H   0  0  0  0  0  0  0  0  0  0  0  0
    7.8994   -0.1018   -1.2819 H   0  0  0  0  0  0  0  0  0  0  0  0
    6.6527   -1.9317   -2.8185 H   0  0  0  0  0  0  0  0  0  0  0  0
    8.5020    1.2786   -3.2047 H   0  0  0  0  0  0  0  0  0  0  0  0
    5.8365    0.8395   -4.2146 H   0  0  0  0  0  0  0  0  0  0  0  0
  1  2  1  0
  2  3  2  0
  3  4  1  0
  4  5  2  0
  5  6  1  0
  6  7  2  0
  7  8  1  0
  8  9  2  0
  9 10  1  0
 10 11  1  0
 11 12  1  0
 12 13  1  0
 13 14  1  0
 14 15  1  0
 15 16  1  0
 16 17  2  0
 16 18  1  0
 16 19  1  0
 19 20  1  0
 20 21  1  0
 21 22  1  0
 21 23  1  0
 23 24  1  0
 24 25  1  0
 25 26  1  0
 26 27  2  0
 26 28  1  0
 26 29  1  0
 29 30  1  0
 30 31  1  0
 31 32  1  0
 31 33  1  0
 33 34  1  0
 34 35  1  0
 35 36  1  0
 36 37  2  0
 36 38  1  0
 36 39  1  0
 33 40  1  0
 40 41  1  0
 41 42  1  0
 42 43  1  0
 43 44  2  0
 44 45  1  0
 45 46  2  0
 46 47  1  0
 46 48  1  0
 48 49  2  0
 49 50  1  0
 50 51  2  0
 23 52  1  0
 52 53  1  0
 53 54  1  0
 54 55  1  0
 55 56  2  0
 56 57  1  0
 57 58  2  0
 58 59  1  0
 58 60  1  0
 60 61  2  0
 61 62  1  0
 62 63  2  0
 13 64  1  0
 64 65  1  0
 64 66  1  0
 66 67  1  0
  7  2  1  0
 66 11  1  0
 10  6  1  0
 53 20  1  0
 63 54  1  0
 41 30  1  0
 51 42  1  0
 63 57  1  0
 51 45  1  0
  1 68  1  0
  1 69  1  0
  4 70  1  0
  9 71  1  0
 11 72  1  6
 13 73  1  6
 14 74  1  0
 14 75  1  0
 18 76  1  0
 20 77  1  6
 21 78  1  6
 22 79  1  0
 23 80  1  1
 24 81  1  0
 24 82  1  0
 28 83  1  0
 30 84  1  1
 31 85  1  1
 32 86  1  0
 33 87  1  6
 34 88  1  0
 34 89  1  0
 38 90  1  0
 39 91  1  0
 41 92  1  1
 43 93  1  0
 47 94  1  0
 47 95  1  0
 49 96  1  0
 53 97  1  1
 55 98  1  0
 59 99  1  0
 59100  1  0
 61101  1  0
 64102  1  1
 65103  1  0
 66104  1  6
 67105  1  0
M  END
$$$$
