@<TRIPOS>MOLECULE
*****
 52 55 0 0 0
SMALL
GASTEIGER

@<TRIPOS>ATOM
      1 C          -0.7688    1.7575   -0.6283 C.3     1  UNL1       -0.0295
      2 C          -1.3178    0.6020    0.2283 C.3     1  UNL1        0.1580
      3 C          -0.1549   -0.1896    0.7140 C.ar    1  UNL1        0.0226
      4 C           1.1221    0.0967    0.2786 C.ar    1  UNL1       -0.0321
      5 C           2.2473   -0.6101    0.6986 C.ar    1  UNL1        0.0342
      6 N           3.5150   -0.2367    0.1916 N.am    1  UNL1       -0.2802
      7 C           4.7570   -0.8233    0.4930 C.2     1  UNL1        0.2666
      8 O           4.8214   -1.7712    1.2775 O.2     1  UNL1       -0.2682
      9 C           6.0000   -0.3090   -0.1284 C.ar    1  UNL1        0.1257
     10 C           7.2245   -0.8621    0.1477 C.ar    1  UNL1       -0.0298
     11 C           8.4002   -0.3861   -0.4313 C.ar    1  UNL1       -0.0397
     12 C           8.3339    0.6724   -1.3082 C.ar    1  UNL1        0.0591
     13 CL          9.7603    1.3325   -2.0798 Cl      1  UNL1       -0.0820
     14 C           7.0895    1.2092   -1.5674 C.ar    1  UNL1        0.0467
     15 N           5.9601    0.7218   -0.9861 N.ar    1  UNL1       -0.2489
     16 C           2.0021   -1.6247    1.5864 C.ar    1  UNL1       -0.0377
     17 C           0.7093   -1.9271    2.0378 C.ar    1  UNL1       -0.0243
     18 C          -0.3850   -1.2121    1.6062 C.ar    1  UNL1        0.1292
     19 F          -1.6362   -1.5166    2.0530 F       1  UNL1       -0.2051
     20 N          -1.9475    1.2092    1.3347 N.2     1  UNL1       -0.2196
     21 C          -3.1490    1.0194    1.6925 C.2     1  UNL1        0.2768
     22 N          -3.6658    1.7074    2.8467 N.pl3   1  UNL1       -0.3133
     23 O          -3.9311    0.1520    0.9589 O.2     1  UNL1       -0.4530
     24 C          -3.6516   -0.1083   -0.3750 C.3     1  UNL1        0.1828
     25 C          -4.3593    0.9420   -1.2111 C.3     1  UNL1        0.0166
     26 C          -5.8237    0.9069   -0.7534 C.3     1  UNL1        0.0515
     27 O          -6.3605   -0.2766   -1.2438 O.3     1  UNL1       -0.3795
     28 C          -5.8140   -1.3594   -0.5514 C.3     1  UNL1        0.0515
     29 C          -4.3162   -1.4372   -0.7422 C.3     1  UNL1        0.0166
     30 C          -2.1862   -0.2059   -0.6887 C.3     1  UNL1        0.3161
     31 F          -2.0227    0.1354   -2.0176 F       1  UNL1       -0.1983
     32 F          -1.7990   -1.5295   -0.5674 F       1  UNL1       -0.1983
     33 H          -1.6215    2.4266   -0.8879 H       1  UNL1        0.0258
     34 H          -0.0620    2.3809   -0.0386 H       1  UNL1        0.0258
     35 H          -0.3362    1.3694   -1.5654 H       1  UNL1        0.0258
     36 H           1.3016    0.9165   -0.4360 H       1  UNL1        0.0640
     37 H           3.5799    0.5751   -0.4987 H       1  UNL1        0.1552
     38 H           7.2494   -1.6954    0.8421 H       1  UNL1        0.0641
     39 H           9.3628   -0.8265   -0.2096 H       1  UNL1        0.0633
     40 H           7.0406    2.0452   -2.2606 H       1  UNL1        0.0844
     41 H           2.7928   -2.2167    1.9614 H       1  UNL1        0.0637
     42 H           0.5342   -2.7287    2.7364 H       1  UNL1        0.0647
     43 H          -4.3021    2.5095    2.6755 H       1  UNL1        0.1466
     44 H          -3.4278    1.4332    3.8177 H       1  UNL1        0.1466
     45 H          -3.9665    1.9492   -1.0713 H       1  UNL1        0.0328
     46 H          -4.3581    0.6048   -2.2828 H       1  UNL1        0.0328
     47 H          -5.8024    0.8643    0.3747 H       1  UNL1        0.0561
     48 H          -6.3659    1.7991   -1.0591 H       1  UNL1        0.0561
     49 H          -6.2459   -2.2762   -1.0032 H       1  UNL1        0.0561
     50 H          -6.0353   -1.3214    0.5255 H       1  UNL1        0.0561
     51 H          -4.0651   -1.6213   -1.8027 H       1  UNL1        0.0328
     52 H          -3.9261   -2.2665   -0.1488 H       1  UNL1        0.0328
@<TRIPOS>BOND
     1     1     2    1
     2     2     3    1
     3     3     4   ar
     4     4     5   ar
     5     5     6    1
     6     6     7   am
     7     7     8    2
     8     7     9    1
     9     9    10   ar
    10    10    11   ar
    11    11    12   ar
    12    12    13    1
    13    12    14   ar
    14    14    15   ar
    15     5    16   ar
    16    16    17   ar
    17    17    18   ar
    18    18    19    1
    19     2    20    1
    20    20    21    2
    21    21    22    1
    22    21    23    1
    23    23    24    1
    24    24    25    1
    25    25    26    1
    26    26    27    1
    27    27    28    1
    28    28    29    1
    29    24    30    1
    30    30    31    1
    31    30    32    1
    32    30     2    1
    33    18     3   ar
    34    29    24    1
    35    15     9   ar
    36     1    33    1
    37     1    34    1
    38     1    35    1
    39     4    36    1
    40     6    37    1
    41    10    38    1
    42    11    39    1
    43    14    40    1
    44    16    41    1
    45    17    42    1
    46    22    43    1
    47    22    44    1
    48    25    45    1
    49    25    46    1
    50    26    47    1
    51    26    48    1
    52    28    49    1
    53    28    50    1
    54    29    51    1
    55    29    52    1
