
     RDKit          3D

 52 55  0  0  0  0  0  0  0  0999 V2000
   -0.7688    1.7575   -0.6283 C   0  0  0  0  0  0  0  0  0  0  0  0
   -1.3178    0.6020    0.2283 C   0  0  0  0  0  0  0  0  0  0  0  0
   -0.1549   -0.1896    0.7140 C   0  0  0  0  0  0  0  0  0  0  0  0
    1.1221    0.0967    0.2786 C   0  0  0  0  0  0  0  0  0  0  0  0
    2.2473   -0.6101    0.6986 C   0  0  0  0  0  0  0  0  0  0  0  0
    3.5150   -0.2367    0.1916 N   0  0  0  0  0  0  0  0  0  0  0  0
    4.7570   -0.8233    0.4930 C   0  0  0  0  0  0  0  0  0  0  0  0
    4.8214   -1.7712    1.2775 O   0  0  0  0  0  0  0  0  0  0  0  0
    6.0000   -0.3090   -0.1284 C   0  0  0  0  0  0  0  0  0  0  0  0
    7.2245   -0.8621    0.1477 C   0  0  0  0  0  0  0  0  0  0  0  0
    8.4002   -0.3861   -0.4313 C   0  0  0  0  0  0  0  0  0  0  0  0
    8.3339    0.6724   -1.3082 C   0  0  0  0  0  0  0  0  0  0  0  0
    9.7603    1.3325   -2.0798 Cl  0  0  0  0  0  0  0  0  0  0  0  0
    7.0895    1.2092   -1.5674 C   0  0  0  0  0  0  0  0  0  0  0  0
    5.9601    0.7218   -0.9861 N   0  0  0  0  0  0  0  0  0  0  0  0
    2.0021   -1.6247    1.5864 C   0  0  0  0  0  0  0  0  0  0  0  0
    0.7093   -1.9271    2.0378 C   0  0  0  0  0  0  0  0  0  0  0  0
   -0.3850   -1.2121    1.6062 C   0  0  0  0  0  0  0  0  0  0  0  0
   -1.6362   -1.5166    2.0530 F   0  0  0  0  0  0  0  0  0  0  0  0
   -1.9475    1.2092    1.3347 N   0  0  0  0  0  0  0  0  0  0  0  0
   -3.1490    1.0194    1.6925 C   0  0  0  0  0  0  0  0  0  0  0  0
   -3.6658    1.7074    2.8467 N   0  0  0  0  0  0  0  0  0  0  0  0
   -3.9311    0.1520    0.9589 O   0  0  0  0  0  0  0  0  0  0  0  0
   -3.6516   -0.1083   -0.3750 C   0  0  0  0  0  0  0  0  0  0  0  0
   -4.3593    0.9420   -1.2111 C   0  0  0  0  0  0  0  0  0  0  0  0
   -5.8237    0.9069   -0.7534 C   0  0  0  0  0  0  0  0  0  0  0  0
   -6.3605   -0.2766   -1.2438 O   0  0  0  0  0  0  0  0  0  0  0  0
   -5.8140   -1.3594   -0.5514 C   0  0  0  0  0  0  0  0  0  0  0  0
   -4.3162   -1.4372   -0.7422 C   0  0  0  0  0  0  0  0  0  0  0  0
   -2.1862   -0.2059   -0.6887 C   0  0  0  0  0  0  0  0  0  0  0  0
   -2.0227    0.1354   -2.0176 F   0  0  0  0  0  0  0  0  0  0  0  0
   -1.7990   -1.5295   -0.5674 F   0  0  0  0  0  0  0  0  0  0  0  0
   -1.6215    2.4266   -0.8879 H   0  0  0  0  0  0  0  0  0  0  0  0
   -0.0620    2.3809   -0.0386 H   0  0  0  0  0  0  0  0  0  0  0  0
   -0.3362    1.3694   -1.5654 H   0  0  0  0  0  0  0  0  0  0  0  0
    1.3016    0.9165   -0.4360 H   0  0  0  0  0  0  0  0  0  0  0  0
    3.5799    0.5751   -0.4987 H   0  0  0  0  0  0  0  0  0  0  0  0
    7.2494   -1.6954    0.8421 H   0  0  0  0  0  0  0  0  0  0  0  0
    9.3628   -0.8265   -0.2096 H   0  0  0  0  0  0  0  0  0  0  0  0
    7.0406    2.0452   -2.2606 H   0  0  0  0  0  0  0  0  0  0  0  0
    2.7928   -2.2167    1.9614 H   0  0  0  0  0  0  0  0  0  0  0  0
    0.5342   -2.7287    2.7364 H   0  0  0  0  0  0  0  0  0  0  0  0
   -4.3021    2.5095    2.6755 H   0  0  0  0  0  0  0  0  0  0  0  0
   -3.4278    1.4332    3.8177 H   0  0  0  0  0  0  0  0  0  0  0  0
   -3.9665    1.9492   -1.0713 H   0  0  0  0  0  0  0  0  0  0  0  0
   -4.3581    0.6048   -2.2828 H   0  0  0  0  0  0  0  0  0  0  0  0
   -5.8024    0.8643    0.3747 H   0  0  0  0  0  0  0  0  0  0  0  0
   -6.3659    1.7991   -1.0591 H   0  0  0  0  0  0  0  0  0  0  0  0
   -6.2459   -2.2762   -1.0032 H   0  0  0  0  0  0  0  0  0  0  0  0
   -6.0353   -1.3214    0.5255 H   0  0  0  0  0  0  0  0  0  0  0  0
   -4.0651   -1.6213   -1.8027 H   0  0  0  0  0  0  0  0  0  0  0  0
   -3.9261   -2.2665   -0.1488 H   0  0  0  0  0  0  0  0  0  0  0  0
  1  2  1  0
  2  3  1  0
  3  4  2  0
  4  5  1  0
  5  6  1  0
  6  7  1  0
  7  8  2  0
  7  9  1  0
  9 10  2  0
 10 11  1  0
 11 12  2  0
 12 13  1  0
 12 14  1  0
 14 15  2  0
  5 16  2  0
 16 17  1  0
 17 18  2  0
 18 19  1  0
  2 20  1  0
 20 21  2  0
 21 22  1  0
 21 23  1  0
 23 24  1  0
 24 25  1  0
 25 26  1  0
 26 27  1  0
 27 28  1  0
 28 29  1  0
 24 30  1  0
 30 31  1  0
 30 32  1  0
 30  2  1  0
 18  3  1  0
 29 24  1  0
 15  9  1  0
  1 33  1  0
  1 34  1  0
  1 35  1  0
  4 36  1  0
  6 37  1  0
 10 38  1  0
 11 39  1  0
 14 40  1  0
 16 41  1  0
 17 42  1  0
 22 43  1  0
 22 44  1  0
 25 45  1  0
 25 46  1  0
 26 47  1  0
 26 48  1  0
 28 49  1  0
 28 50  1  0
 29 51  1  0
 29 52  1  0
M  END
$$$$
