@<TRIPOS>MOLECULE
*****
 49 53 0 0 0
SMALL
GASTEIGER

@<TRIPOS>ATOM
      1 C           7.2147   -0.3156   -1.9087 C.3     1  UNL1       -0.0244
      2 C           5.9431   -0.3589   -1.1533 C.ar    1  UNL1        0.0152
      3 C           5.1424   -1.4639   -0.8888 C.ar    1  UNL1       -0.0321
      4 C           4.0544   -1.0399   -0.1501 C.ar    1  UNL1        0.0207
      5 C           2.9508   -1.6605    0.3932 C.ar    1  UNL1       -0.0283
      6 C           2.0376   -0.8973    1.0943 C.ar    1  UNL1        0.0515
      7 N           0.8811   -1.4501    1.6881 N.pl3   1  UNL1       -0.2965
      8 C          -0.0148   -0.6289    2.3795 C.ar    1  UNL1        0.1507
      9 N           0.2670   -0.3513    3.6914 N.ar    1  UNL1       -0.2167
     10 C          -0.5167    0.4257    4.4468 C.ar    1  UNL1        0.1388
     11 N          -1.6071    0.9457    3.9027 N.ar    1  UNL1       -0.1548
     12 N          -1.9253    0.7052    2.6299 N.ar    1  UNL1       -0.2341
     13 C          -2.9638    1.1387    1.9352 C.ar    1  UNL1        0.0425
     14 C          -2.8840    0.6363    0.6563 C.ar    1  UNL1        0.0621
     15 C          -3.8347    0.9106   -0.4026 C.ar    1  UNL1        0.2501
     16 N          -3.7933    0.5182   -1.6619 N.ar    1  UNL1       -0.1072
     17 N          -4.8462    0.9766   -2.3158 N.ar    1  UNL1       -0.1124
     18 C          -5.5650    1.6797   -1.4230 C.ar    1  UNL1        0.2147
     19 C          -6.8602    2.4090   -1.6591 C.3     1  UNL1        0.0138
     20 O          -4.9211    1.6182   -0.2718 O.2     1  UNL1       -0.4204
     21 C          -1.7200   -0.1413    0.6139 C.ar    1  UNL1       -0.0023
     22 C          -1.2520   -0.9138   -0.5380 C.3     1  UNL1       -0.0186
     23 C          -0.8238   -0.0384   -1.6967 C.3     1  UNL1       -0.0586
     24 C          -2.2923   -1.8994   -1.0809 C.3     1  UNL1       -0.0586
     25 C          -1.1485   -0.0736    1.8580 C.ar    1  UNL1        0.1095
     26 C           2.2582    0.4615    1.2287 C.ar    1  UNL1        0.0511
     27 N           3.3367    1.0540    0.6950 N.ar    1  UNL1       -0.2357
     28 C           4.2270    0.3157    0.0129 C.ar    1  UNL1        0.1384
     29 N           5.3581    0.7096   -0.5907 N.ar    1  UNL1       -0.3433
     30 H           7.1967   -0.9729   -2.8019 H       1  UNL1        0.0292
     31 H           7.3866    0.7308   -2.2251 H       1  UNL1        0.0292
     32 H           8.0177   -0.6411   -1.1873 H       1  UNL1        0.0292
     33 H           5.3393   -2.4640   -1.2044 H       1  UNL1        0.0642
     34 H           2.7996   -2.7049    0.2796 H       1  UNL1        0.0644
     35 H           0.7216   -2.4618    1.6116 H       1  UNL1        0.1537
     36 H          -0.2122    0.5886    5.4746 H       1  UNL1        0.1066
     37 H          -3.7744    1.7978    2.3040 H       1  UNL1        0.0838
     38 H          -6.9691    2.5060   -2.7642 H       1  UNL1        0.0324
     39 H          -6.8291    3.4348   -1.2061 H       1  UNL1        0.0324
     40 H          -7.6593    1.7856   -1.2116 H       1  UNL1        0.0324
     41 H          -0.3524   -1.5255   -0.2270 H       1  UNL1        0.0344
     42 H           0.2643   -0.1520   -1.8660 H       1  UNL1        0.0235
     43 H          -0.9766    1.0392   -1.4761 H       1  UNL1        0.0235
     44 H          -1.3145   -0.3575   -2.6265 H       1  UNL1        0.0235
     45 H          -3.2307   -1.8828   -0.4946 H       1  UNL1        0.0235
     46 H          -2.4647   -1.8146   -2.1496 H       1  UNL1        0.0235
     47 H          -1.9008   -2.9550   -0.8864 H       1  UNL1        0.0235
     48 H           1.5299    1.0708    1.7874 H       1  UNL1        0.0849
     49 H           5.7257    1.7065   -0.6152 H       1  UNL1        0.1670
@<TRIPOS>BOND
     1     1     2    1
     2     2     3   ar
     3     3     4   ar
     4     4     5   ar
     5     5     6   ar
     6     6     7    1
     7     7     8    1
     8     8     9   ar
     9     9    10   ar
    10    10    11   ar
    11    11    12   ar
    12    12    13   ar
    13    13    14   ar
    14    14    15    1
    15    15    16   ar
    16    16    17   ar
    17    17    18   ar
    18    18    19    1
    19    18    20   ar
    20    14    21   ar
    21    21    22    1
    22    22    23    1
    23    22    24    1
    24    21    25   ar
    25     6    26   ar
    26    26    27   ar
    27    27    28   ar
    28    28    29   ar
    29    29     2   ar
    30    28     4   ar
    31    25     8   ar
    32    25    12   ar
    33    20    15   ar
    34     1    30    1
    35     1    31    1
    36     1    32    1
    37     3    33    1
    38     5    34    1
    39     7    35    1
    40    10    36    1
    41    13    37    1
    42    19    38    1
    43    19    39    1
    44    19    40    1
    45    22    41    1
    46    23    42    1
    47    23    43    1
    48    23    44    1
    49    24    45    1
    50    24    46    1
    51    24    47    1
    52    26    48    1
    53    29    49    1
