
     RDKit          3D

 49 53  0  0  0  0  0  0  0  0999 V2000
    7.2147   -0.3156   -1.9087 C   0  0  0  0  0  0  0  0  0  0  0  0
    5.9431   -0.3589   -1.1533 C   0  0  0  0  0  0  0  0  0  0  0  0
    5.1424   -1.4639   -0.8888 C   0  0  0  0  0  0  0  0  0  0  0  0
    4.0544   -1.0399   -0.1501 C   0  0  0  0  0  0  0  0  0  0  0  0
    2.9508   -1.6605    0.3932 C   0  0  0  0  0  0  0  0  0  0  0  0
    2.0376   -0.8973    1.0943 C   0  0  0  0  0  0  0  0  0  0  0  0
    0.8811   -1.4501    1.6881 N   0  0  0  0  0  0  0  0  0  0  0  0
   -0.0148   -0.6289    2.3795 C   0  0  0  0  0  0  0  0  0  0  0  0
    0.2670   -0.3513    3.6914 N   0  0  0  0  0  0  0  0  0  0  0  0
   -0.5167    0.4257    4.4468 C   0  0  0  0  0  0  0  0  0  0  0  0
   -1.6071    0.9457    3.9027 N   0  0  0  0  0  0  0  0  0  0  0  0
   -1.9253    0.7052    2.6299 N   0  0  0  0  0  0  0  0  0  0  0  0
   -2.9638    1.1387    1.9352 C   0  0  0  0  0  0  0  0  0  0  0  0
   -2.8840    0.6363    0.6563 C   0  0  0  0  0  0  0  0  0  0  0  0
   -3.8347    0.9106   -0.4026 C   0  0  0  0  0  0  0  0  0  0  0  0
   -3.7933    0.5182   -1.6619 N   0  0  0  0  0  0  0  0  0  0  0  0
   -4.8462    0.9766   -2.3158 N   0  0  0  0  0  0  0  0  0  0  0  0
   -5.5650    1.6797   -1.4230 C   0  0  0  0  0  0  0  0  0  0  0  0
   -6.8602    2.4090   -1.6591 C   0  0  0  0  0  0  0  0  0  0  0  0
   -4.9211    1.6182   -0.2718 O   0  0  0  0  0  0  0  0  0  0  0  0
   -1.7200   -0.1413    0.6139 C   0  0  0  0  0  0  0  0  0  0  0  0
   -1.2520   -0.9138   -0.5380 C   0  0  0  0  0  0  0  0  0  0  0  0
   -0.8238   -0.0384   -1.6967 C   0  0  0  0  0  0  0  0  0  0  0  0
   -2.2923   -1.8994   -1.0809 C   0  0  0  0  0  0  0  0  0  0  0  0
   -1.1485   -0.0736    1.8580 C   0  0  0  0  0  0  0  0  0  0  0  0
    2.2582    0.4615    1.2287 C   0  0  0  0  0  0  0  0  0  0  0  0
    3.3367    1.0540    0.6950 N   0  0  0  0  0  0  0  0  0  0  0  0
    4.2270    0.3157    0.0129 C   0  0  0  0  0  0  0  0  0  0  0  0
    5.3581    0.7096   -0.5907 N   0  0  0  0  0  0  0  0  0  0  0  0
    7.1967   -0.9729   -2.8019 H   0  0  0  0  0  0  0  0  0  0  0  0
    7.3866    0.7308   -2.2251 H   0  0  0  0  0  0  0  0  0  0  0  0
    8.0177   -0.6411   -1.1873 H   0  0  0  0  0  0  0  0  0  0  0  0
    5.3393   -2.4640   -1.2044 H   0  0  0  0  0  0  0  0  0  0  0  0
    2.7996   -2.7049    0.2796 H   0  0  0  0  0  0  0  0  0  0  0  0
    0.7216   -2.4618    1.6116 H   0  0  0  0  0  0  0  0  0  0  0  0
   -0.2122    0.5886    5.4746 H   0  0  0  0  0  0  0  0  0  0  0  0
   -3.7744    1.7978    2.3040 H   0  0  0  0  0  0  0  0  0  0  0  0
   -6.9691    2.5060   -2.7642 H   0  0  0  0  0  0  0  0  0  0  0  0
   -6.8291    3.4348   -1.2061 H   0  0  0  0  0  0  0  0  0  0  0  0
   -7.6593    1.7856   -1.2116 H   0  0  0  0  0  0  0  0  0  0  0  0
   -0.3524   -1.5255   -0.2270 H   0  0  0  0  0  0  0  0  0  0  0  0
    0.2643   -0.1520   -1.8660 H   0  0  0  0  0  0  0  0  0  0  0  0
   -0.9766    1.0392   -1.4761 H   0  0  0  0  0  0  0  0  0  0  0  0
   -1.3145   -0.3575   -2.6265 H   0  0  0  0  0  0  0  0  0  0  0  0
   -3.2307   -1.8828   -0.4946 H   0  0  0  0  0  0  0  0  0  0  0  0
   -2.4647   -1.8146   -2.1496 H   0  0  0  0  0  0  0  0  0  0  0  0
   -1.9008   -2.9550   -0.8864 H   0  0  0  0  0  0  0  0  0  0  0  0
    1.5299    1.0708    1.7874 H   0  0  0  0  0  0  0  0  0  0  0  0
    5.7257    1.7065   -0.6152 H   0  0  0  0  0  0  0  0  0  0  0  0
  1  2  1  0
  2  3  2  0
  3  4  1  0
  4  5  2  0
  5  6  1  0
  6  7  1  0
  7  8  1  0
  8  9  2  0
  9 10  1  0
 10 11  2  0
 11 12  1  0
 12 13  1  0
 13 14  2  0
 14 15  1  0
 15 16  2  0
 16 17  1  0
 17 18  2  0
 18 19  1  0
 18 20  1  0
 14 21  1  0
 21 22  1  0
 22 23  1  0
 22 24  1  0
 21 25  2  0
  6 26  2  0
 26 27  1  0
 27 28  2  0
 28 29  1  0
 29  2  1  0
 28  4  1  0
 25  8  1  0
 25 12  1  0
 20 15  1  0
  1 30  1  0
  1 31  1  0
  1 32  1  0
  3 33  1  0
  5 34  1  0
  7 35  1  0
 10 36  1  0
 13 37  1  0
 19 38  1  0
 19 39  1  0
 19 40  1  0
 22 41  1  0
 23 42  1  0
 23 43  1  0
 23 44  1  0
 24 45  1  0
 24 46  1  0
 24 47  1  0
 26 48  1  0
 29 49  1  0
M  END
$$$$
