@<TRIPOS>MOLECULE
*****
 32 33 0 0 0
SMALL
GASTEIGER

@<TRIPOS>ATOM
      1 O          -3.8402    2.9963   -0.6653 O.2     1  UNL1       -0.2451
      2 C          -2.6741    2.4383   -0.6047 C.2     1  UNL1        0.3386
      3 O          -1.6468    3.2080   -1.0575 O.3     1  UNL1       -0.4771
      4 C          -2.6374    1.0973   -0.0723 C.ar    1  UNL1        0.0799
      5 C          -3.8357    0.4810    0.3267 C.ar    1  UNL1       -0.0460
      6 C          -3.8818   -0.7891    0.8321 C.ar    1  UNL1       -0.0609
      7 C          -2.6848   -1.4623    0.9403 C.ar    1  UNL1       -0.0600
      8 C          -1.4871   -0.9043    0.5644 C.ar    1  UNL1       -0.0397
      9 C          -1.4680    0.4069    0.0466 C.ar    1  UNL1        0.0456
     10 N          -0.2315    0.9301   -0.3214 N.pl3   1  UNL1       -0.3086
     11 C           0.9604    0.1072   -0.3059 C.ar    1  UNL1        0.1101
     12 C           1.9206    0.3519    0.6803 C.ar    1  UNL1       -0.0223
     13 C           3.0973   -0.3439    0.7809 C.ar    1  UNL1        0.0570
     14 C           4.1120   -0.0690    1.8409 C.3     1  UNL1        0.4175
     15 F           4.9312   -1.1395    2.0418 F       1  UNL1       -0.1659
     16 F           4.8351    1.0414    1.3833 F       1  UNL1       -0.1659
     17 F           3.4119    0.3079    2.9707 F       1  UNL1       -0.1659
     18 C           3.3029   -1.3278   -0.1607 C.ar    1  UNL1       -0.0436
     19 C           2.3891   -1.5972   -1.1426 C.ar    1  UNL1        0.0180
     20 C           1.1853   -0.8729   -1.2352 C.ar    1  UNL1        0.2940
     21 N           0.3181   -1.1525   -2.3293 N.pl3   1  UNL1        0.0815
     22 O           0.8896   -1.6058   -3.3657 O.2     1  UNL1        0.0415
     23 O          -1.0105   -1.0004   -2.4173 O.co2   1  UNL1       -0.5760
     24 H          -1.6508    4.2305   -0.9375 H       1  UNL1        0.2954
     25 H          -4.7586    1.0525    0.2226 H       1  UNL1        0.0626
     26 H          -4.8194   -1.2498    1.1357 H       1  UNL1        0.0618
     27 H          -2.7185   -2.4775    1.3436 H       1  UNL1        0.0618
     28 H          -0.5409   -1.4352    0.6496 H       1  UNL1        0.0636
     29 H          -0.0314    1.8997   -0.6211 H       1  UNL1        0.1524
     30 H           1.7152    1.1291    1.3922 H       1  UNL1        0.0644
     31 H           4.2429   -1.8686   -0.0609 H       1  UNL1        0.0625
     32 H           2.6058   -2.3822   -1.8545 H       1  UNL1        0.0686
@<TRIPOS>UNITY_ATOM_ATTR
21 1
charge 1
23 1
charge -1
@<TRIPOS>BOND
     1     1     2    2
     2     2     3    1
     3     2     4    1
     4     4     5   ar
     5     5     6   ar
     6     6     7   ar
     7     7     8   ar
     8     8     9   ar
     9     9    10    1
    10    10    11    1
    11    11    12   ar
    12    12    13   ar
    13    13    14    1
    14    14    15    1
    15    14    16    1
    16    14    17    1
    17    13    18   ar
    18    18    19   ar
    19    19    20   ar
    20    20    21    1
    21    21    22    2
    22    21    23    1
    23     9     4   ar
    24    20    11   ar
    25     3    24    1
    26     5    25    1
    27     6    26    1
    28     7    27    1
    29     8    28    1
    30    10    29    1
    31    12    30    1
    32    18    31    1
    33    19    32    1
