
     RDKit          3D

 32 33  0  0  0  0  0  0  0  0999 V2000
   -3.8402    2.9963   -0.6653 O   0  0  0  0  0  0  0  0  0  0  0  0
   -2.6741    2.4383   -0.6047 C   0  0  0  0  0  0  0  0  0  0  0  0
   -1.6468    3.2080   -1.0575 O   0  0  0  0  0  0  0  0  0  0  0  0
   -2.6374    1.0973   -0.0723 C   0  0  0  0  0  0  0  0  0  0  0  0
   -3.8357    0.4810    0.3267 C   0  0  0  0  0  0  0  0  0  0  0  0
   -3.8818   -0.7891    0.8321 C   0  0  0  0  0  0  0  0  0  0  0  0
   -2.6848   -1.4623    0.9403 C   0  0  0  0  0  0  0  0  0  0  0  0
   -1.4871   -0.9043    0.5644 C   0  0  0  0  0  0  0  0  0  0  0  0
   -1.4680    0.4069    0.0466 C   0  0  0  0  0  0  0  0  0  0  0  0
   -0.2315    0.9301   -0.3214 N   0  0  0  0  0  0  0  0  0  0  0  0
    0.9604    0.1072   -0.3059 C   0  0  0  0  0  0  0  0  0  0  0  0
    1.9206    0.3519    0.6803 C   0  0  0  0  0  0  0  0  0  0  0  0
    3.0973   -0.3439    0.7809 C   0  0  0  0  0  0  0  0  0  0  0  0
    4.1120   -0.0690    1.8409 C   0  0  0  0  0  0  0  0  0  0  0  0
    4.9312   -1.1395    2.0418 F   0  0  0  0  0  0  0  0  0  0  0  0
    4.8351    1.0414    1.3833 F   0  0  0  0  0  0  0  0  0  0  0  0
    3.4119    0.3079    2.9707 F   0  0  0  0  0  0  0  0  0  0  0  0
    3.3029   -1.3278   -0.1607 C   0  0  0  0  0  0  0  0  0  0  0  0
    2.3891   -1.5972   -1.1426 C   0  0  0  0  0  0  0  0  0  0  0  0
    1.1853   -0.8729   -1.2352 C   0  0  0  0  0  0  0  0  0  0  0  0
    0.3181   -1.1525   -2.3293 N   0  0  0  0  0  4  0  0  0  0  0  0
    0.8896   -1.6058   -3.3657 O   0  0  0  0  0  0  0  0  0  0  0  0
   -1.0105   -1.0004   -2.4173 O   0  0  0  0  0  1  0  0  0  0  0  0
   -1.6508    4.2305   -0.9375 H   0  0  0  0  0  0  0  0  0  0  0  0
   -4.7586    1.0525    0.2226 H   0  0  0  0  0  0  0  0  0  0  0  0
   -4.8194   -1.2498    1.1357 H   0  0  0  0  0  0  0  0  0  0  0  0
   -2.7185   -2.4775    1.3436 H   0  0  0  0  0  0  0  0  0  0  0  0
   -0.5409   -1.4352    0.6496 H   0  0  0  0  0  0  0  0  0  0  0  0
   -0.0314    1.8997   -0.6211 H   0  0  0  0  0  0  0  0  0  0  0  0
    1.7152    1.1291    1.3922 H   0  0  0  0  0  0  0  0  0  0  0  0
    4.2429   -1.8686   -0.0609 H   0  0  0  0  0  0  0  0  0  0  0  0
    2.6058   -2.3822   -1.8545 H   0  0  0  0  0  0  0  0  0  0  0  0
  1  2  2  0
  2  3  1  0
  2  4  1  0
  4  5  2  0
  5  6  1  0
  6  7  2  0
  7  8  1  0
  8  9  2  0
  9 10  1  0
 10 11  1  0
 11 12  2  0
 12 13  1  0
 13 14  1  0
 14 15  1  0
 14 16  1  0
 14 17  1  0
 13 18  2  0
 18 19  1  0
 19 20  2  0
 20 21  1  0
 21 22  2  0
 21 23  1  0
  9  4  1  0
 20 11  1  0
  3 24  1  0
  5 25  1  0
  6 26  1  0
  7 27  1  0
  8 28  1  0
 10 29  1  0
 12 30  1  0
 18 31  1  0
 19 32  1  0
M  CHG  2  21   1  23  -1
M  END
$$$$
