@<TRIPOS>MOLECULE
*****
 56 60 0 0 0
SMALL
GASTEIGER

@<TRIPOS>ATOM
      1 C          -5.7189    0.7769    1.7864 C.3     1  UNL1       -0.0464
      2 C          -5.3957   -0.1357    0.5999 C.3     1  UNL1        0.0246
      3 C          -6.7220   -0.4778   -0.1202 C.3     1  UNL1       -0.0187
      4 C          -6.4172    0.8236   -0.8186 C.3     1  UNL1        0.0167
      5 N          -4.9885    0.5225   -0.5983 N.am    1  UNL1       -0.2974
      6 C          -3.8444    0.8145   -1.3540 C.2     1  UNL1        0.2327
      7 O          -3.9789    1.4385   -2.4762 O.2     1  UNL1       -0.2741
      8 C          -2.4979    0.4360   -0.9158 C.3     1  UNL1        0.1054
      9 C          -2.1957   -0.9766   -0.5336 C.3     1  UNL1       -0.0220
     10 C          -2.1438    0.1308    0.4553 C.3     1  UNL1        0.0134
     11 C          -0.8282    0.6190    0.9894 C.3     1  UNL1        0.0935
     12 C          -0.9326    0.6634    2.5352 C.3     1  UNL1       -0.0351
     13 C           0.2749   -0.3803    0.7587 C.ar    1  UNL1        0.0158
     14 C           1.4578    0.0844    0.2366 C.ar    1  UNL1       -0.0463
     15 C           2.5162   -0.7666   -0.0043 C.ar    1  UNL1       -0.0217
     16 C           3.7972   -0.2920   -0.5794 C.2     1  UNL1       -0.0172
     17 C           4.9147   -0.7513   -0.0665 C.2     1  UNL1        0.1492
     18 F           4.8968   -1.6437    0.9743 F       1  UNL1       -0.2032
     19 C           6.2081   -0.3423   -0.5898 C.ar    1  UNL1        0.0990
     20 C           6.3752    0.5003   -1.6431 C.ar    1  UNL1       -0.0321
     21 C           7.6683    0.8181   -2.0463 C.ar    1  UNL1       -0.0398
     22 C           8.7594    0.2944   -1.3972 C.ar    1  UNL1        0.0591
     23 CL         10.3657    0.7042   -1.9162 Cl      1  UNL1       -0.0820
     24 C           8.5232   -0.5602   -0.3281 C.ar    1  UNL1        0.0466
     25 N           7.2913   -0.8385    0.0254 N.ar    1  UNL1       -0.2512
     26 C           2.3178   -2.0953    0.3061 C.ar    1  UNL1       -0.0518
     27 C           1.1353   -2.5706    0.8297 C.ar    1  UNL1       -0.0255
     28 C           0.0803   -1.7052    1.0674 C.ar    1  UNL1        0.1289
     29 F          -1.0941   -2.1710    1.5932 F       1  UNL1       -0.2051
     30 N          -0.4154    1.9218    0.6166 N.2     1  UNL1       -0.2521
     31 C          -0.4714    2.4112   -0.5517 C.2     1  UNL1        0.1485
     32 N          -0.0713    3.6964   -0.9609 N.pl3   1  UNL1       -0.3380
     33 S          -1.1634    1.3122   -1.8160 S.3     1  UNL1       -0.0746
     34 H          -6.7904    1.0346    1.8220 H       1  UNL1        0.0248
     35 H          -5.4234    0.2490    2.7028 H       1  UNL1        0.0248
     36 H          -5.0960    1.7160    1.7196 H       1  UNL1        0.0248
     37 H          -4.8889   -1.0841    0.8822 H       1  UNL1        0.0498
     38 H          -6.5671   -1.3603   -0.7441 H       1  UNL1        0.0298
     39 H          -7.5876   -0.4750    0.5590 H       1  UNL1        0.0298
     40 H          -6.7111    0.8947   -1.8765 H       1  UNL1        0.0465
     41 H          -6.7528    1.6785   -0.1737 H       1  UNL1        0.0465
     42 H          -1.3037   -1.4151   -1.0036 H       1  UNL1        0.0287
     43 H          -3.0497   -1.6990   -0.4894 H       1  UNL1        0.0287
     44 H          -2.9628    0.1645    1.1953 H       1  UNL1        0.0346
     45 H          -1.8896    1.1942    2.7357 H       1  UNL1        0.0256
     46 H          -0.1208    1.2528    2.9593 H       1  UNL1        0.0256
     47 H          -1.0413   -0.3480    2.9610 H       1  UNL1        0.0256
     48 H           1.6105    1.1420   -0.0083 H       1  UNL1        0.0628
     49 H           3.8230    0.4032   -1.3861 H       1  UNL1        0.0653
     50 H           5.5176    0.9055   -2.1473 H       1  UNL1        0.0640
     51 H           7.8175    1.4931   -2.8901 H       1  UNL1        0.0633
     52 H           9.4217   -0.9474    0.1531 H       1  UNL1        0.0844
     53 H           3.1526   -2.7915    0.1145 H       1  UNL1        0.0624
     54 H           1.0101   -3.6369    1.0656 H       1  UNL1        0.0646
     55 H          -0.6565    4.5116   -0.6761 H       1  UNL1        0.1442
     56 H           0.7859    3.8223   -1.5328 H       1  UNL1        0.1442
@<TRIPOS>BOND
     1     1     2    1
     2     2     3    1
     3     3     4    1
     4     4     5    1
     5     5     6   am
     6     6     7    2
     7     8     6    1
     8     8     9    1
     9     9    10    1
    10    10    11    1
    11    11    12    1
    12    11    13    1
    13    13    14   ar
    14    14    15   ar
    15    15    16    1
    16    16    17    2
    17    17    18    1
    18    17    19    1
    19    19    20   ar
    20    20    21   ar
    21    21    22   ar
    22    22    23    1
    23    22    24   ar
    24    24    25   ar
    25    15    26   ar
    26    26    27   ar
    27    27    28   ar
    28    28    29    1
    29    11    30    1
    30    30    31    2
    31    31    32    1
    32    31    33    1
    33     5     2    1
    34    10     8    1
    35    28    13   ar
    36    33     8    1
    37    25    19   ar
    38     1    34    1
    39     1    35    1
    40     1    36    1
    41     2    37    1
    42     3    38    1
    43     3    39    1
    44     4    40    1
    45     4    41    1
    46     9    42    1
    47     9    43    1
    48    10    44    1
    49    12    45    1
    50    12    46    1
    51    12    47    1
    52    14    48    1
    53    16    49    1
    54    20    50    1
    55    21    51    1
    56    24    52    1
    57    26    53    1
    58    27    54    1
    59    32    55    1
    60    32    56    1
