
     RDKit          3D

 60 64  0  0  0  0  0  0  0  0999 V2000
   -0.3200    0.0278   -1.7658 O   0  0  0  0  0  0  0  0  0  0  0  0
   -0.0008   -0.5417   -0.6890 C   0  0  0  0  0  0  0  0  0  0  0  0
   -0.9213   -0.5492    0.4069 N   0  0  0  0  0  0  0  0  0  0  0  0
   -2.2149    0.0919    0.2878 C   0  0  2  0  0  0  0  0  0  0  0  0
   -2.3375    1.1146    1.3981 C   0  0  0  0  0  0  0  0  0  0  0  0
   -2.7094    0.2756    2.6011 C   0  0  0  0  0  0  0  0  0  0  0  0
   -3.1267   -1.0649    2.0968 C   0  0  0  0  0  0  0  0  0  0  0  0
   -3.3675   -0.8328    0.6255 C   0  0  1  0  0  0  0  0  0  0  0  0
   -4.5264   -0.1216    0.3705 O   0  0  0  0  0  0  0  0  0  0  0  0
   -5.3475   -0.7208   -0.5674 C   0  0  0  0  0  0  0  0  0  0  0  0
   -6.5354    0.1416   -0.7401 C   0  0  0  0  0  0  0  0  0  0  0  0
   -6.5129    1.1309   -1.6945 C   0  0  0  0  0  0  0  0  0  0  0  0
   -7.5865    1.9674   -1.9053 C   0  0  0  0  0  0  0  0  0  0  0  0
   -8.7293    1.8324   -1.1529 C   0  0  0  0  0  0  0  0  0  0  0  0
   -8.7786    0.8460   -0.1866 C   0  0  0  0  0  0  0  0  0  0  0  0
   -7.6775    0.0050    0.0134 C   0  0  0  0  0  0  0  0  0  0  0  0
    1.3094   -1.2171   -0.5017 C   0  0  0  0  0  0  0  0  0  0  0  0
    2.1108   -1.0845   -1.7723 C   0  0  0  0  0  0  0  0  0  0  0  0
    3.5035   -1.6146   -1.6018 C   0  0  0  0  0  0  0  0  0  0  0  0
    4.0788   -1.0949   -0.3916 N   0  0  0  0  0  0  0  0  0  0  0  0
    5.3284   -0.4289   -0.3518 C   0  0  0  0  0  0  0  0  0  0  0  0
    6.5306   -1.0517   -0.1673 N   0  0  0  0  0  0  0  0  0  0  0  0
    7.5052   -0.1394   -0.1816 C   0  0  0  0  0  0  0  0  0  0  0  0
    8.8695   -0.1632   -0.0511 C   0  0  0  0  0  0  0  0  0  0  0  0
    9.6300    0.9957   -0.1139 C   0  0  0  0  0  0  0  0  0  0  0  0
   11.3591    0.9354    0.0547 Cl  0  0  0  0  0  0  0  0  0  0  0  0
    9.0023    2.2188   -0.3140 C   0  0  0  0  0  0  0  0  0  0  0  0
    7.6381    2.2280   -0.4428 C   0  0  0  0  0  0  0  0  0  0  0  0
    6.8811    1.0742   -0.3803 C   0  0  0  0  0  0  0  0  0  0  0  0
    5.5893    0.8659   -0.4771 O   0  0  0  0  0  0  0  0  0  0  0  0
    3.3529   -1.2539    0.8508 C   0  0  0  0  0  0  0  0  0  0  0  0
    2.0095   -0.5427    0.6400 C   0  0  0  0  0  0  0  0  0  0  0  0
   -0.6462   -1.0225    1.2924 H   0  0  0  0  0  0  0  0  0  0  0  0
   -2.3495    0.5567   -0.7146 H   0  0  0  0  0  0  0  0  0  0  0  0
   -3.2094    1.7884    1.2048 H   0  0  0  0  0  0  0  0  0  0  0  0
   -1.4036    1.6929    1.5494 H   0  0  0  0  0  0  0  0  0  0  0  0
   -1.7891    0.1549    3.2232 H   0  0  0  0  0  0  0  0  0  0  0  0
   -3.4811    0.7709    3.2260 H   0  0  0  0  0  0  0  0  0  0  0  0
   -4.0167   -1.4754    2.6128 H   0  0  0  0  0  0  0  0  0  0  0  0
   -2.2944   -1.8169    2.1729 H   0  0  0  0  0  0  0  0  0  0  0  0
   -3.2922   -1.7654    0.0324 H   0  0  0  0  0  0  0  0  0  0  0  0
   -5.6897   -1.7261   -0.2903 H   0  0  0  0  0  0  0  0  0  0  0  0
   -4.8632   -0.8118   -1.5644 H   0  0  0  0  0  0  0  0  0  0  0  0
   -5.5972    1.2393   -2.2975 H   0  0  0  0  0  0  0  0  0  0  0  0
   -7.5639    2.7425   -2.6558 H   0  0  0  0  0  0  0  0  0  0  0  0
   -9.5994    2.4933   -1.3076 H   0  0  0  0  0  0  0  0  0  0  0  0
   -9.6792    0.7438    0.4025 H   0  0  0  0  0  0  0  0  0  0  0  0
   -7.7504   -0.7552    0.7773 H   0  0  0  0  0  0  0  0  0  0  0  0
    1.1427   -2.2678   -0.2498 H   0  0  0  0  0  0  0  0  0  0  0  0
    1.6011   -1.7165   -2.5461 H   0  0  0  0  0  0  0  0  0  0  0  0
    2.0930   -0.0333   -2.1030 H   0  0  0  0  0  0  0  0  0  0  0  0
    3.4493   -2.7349   -1.5884 H   0  0  0  0  0  0  0  0  0  0  0  0
    4.1123   -1.3486   -2.4872 H   0  0  0  0  0  0  0  0  0  0  0  0
    9.4033   -1.0888    0.1055 H   0  0  0  0  0  0  0  0  0  0  0  0
    9.6006    3.1258   -0.3628 H   0  0  0  0  0  0  0  0  0  0  0  0
    7.0985    3.1581   -0.6007 H   0  0  0  0  0  0  0  0  0  0  0  0
    3.1121   -2.3332    1.0342 H   0  0  0  0  0  0  0  0  0  0  0  0
    3.8948   -0.8219    1.7122 H   0  0  0  0  0  0  0  0  0  0  0  0
    1.4394   -0.5867    1.5667 H   0  0  0  0  0  0  0  0  0  0  0  0
    2.2718    0.5090    0.3726 H   0  0  0  0  0  0  0  0  0  0  0  0
  1  2  2  0
  2  3  1  0
  3  4  1  0
  4  5  1  0
  5  6  1  0
  6  7  1  0
  7  8  1  0
  8  9  1  0
  9 10  1  0
 10 11  1  0
 11 12  2  0
 12 13  1  0
 13 14  2  0
 14 15  1  0
 15 16  2  0
  2 17  1  0
 17 18  1  0
 18 19  1  0
 19 20  1  0
 20 21  1  0
 21 22  2  0
 22 23  1  0
 23 24  2  0
 24 25  1  0
 25 26  1  0
 25 27  2  0
 27 28  1  0
 28 29  2  0
 29 30  1  0
 20 31  1  0
 31 32  1  0
  8  4  1  0
 16 11  1  0
 32 17  1  0
 30 21  1  0
 29 23  1  0
  3 33  1  0
  4 34  1  6
  5 35  1  0
  5 36  1  0
  6 37  1  0
  6 38  1  0
  7 39  1  0
  7 40  1  0
  8 41  1  6
 10 42  1  0
 10 43  1  0
 12 44  1  0
 13 45  1  0
 14 46  1  0
 15 47  1  0
 16 48  1  0
 17 49  1  0
 18 50  1  0
 18 51  1  0
 19 52  1  0
 19 53  1  0
 24 54  1  0
 27 55  1  0
 28 56  1  0
 31 57  1  0
 31 58  1  0
 32 59  1  0
 32 60  1  0
M  END
$$$$
