@<TRIPOS>MOLECULE
*****
 60 64 0 0 0
SMALL
GASTEIGER

@<TRIPOS>ATOM
      1 O          -0.3200    0.0278   -1.7658 O.2     1  UNL1       -0.2755
      2 C          -0.0008   -0.5417   -0.6890 C.2     1  UNL1        0.2165
      3 N          -0.9213   -0.5492    0.4069 N.am    1  UNL1       -0.3098
      4 C          -2.2149    0.0919    0.2878 C.3     1  UNL1        0.0493
      5 C          -2.3375    1.1146    1.3981 C.3     1  UNL1       -0.0320
      6 C          -2.7094    0.2756    2.6011 C.3     1  UNL1       -0.0489
      7 C          -3.1267   -1.0649    2.0968 C.3     1  UNL1       -0.0248
      8 C          -3.3675   -0.8328    0.6255 C.3     1  UNL1        0.0774
      9 O          -4.5264   -0.1216    0.3705 O.3     1  UNL1       -0.3702
     10 C          -5.3475   -0.7208   -0.5674 C.3     1  UNL1        0.0731
     11 C          -6.5354    0.1416   -0.7401 C.ar    1  UNL1       -0.0219
     12 C          -6.5129    1.1309   -1.6945 C.ar    1  UNL1       -0.0564
     13 C          -7.5865    1.9674   -1.9053 C.ar    1  UNL1       -0.0614
     14 C          -8.7293    1.8324   -1.1529 C.ar    1  UNL1       -0.0617
     15 C          -8.7786    0.8460   -0.1866 C.ar    1  UNL1       -0.0614
     16 C          -7.6775    0.0050    0.0134 C.ar    1  UNL1       -0.0564
     17 C           1.3094   -1.2171   -0.5017 C.3     1  UNL1        0.0384
     18 C           2.1108   -1.0845   -1.7723 C.3     1  UNL1       -0.0259
     19 C           3.5035   -1.6146   -1.6018 C.3     1  UNL1        0.0170
     20 N           4.0788   -1.0949   -0.3916 N.pl3   1  UNL1       -0.2850
     21 C           5.3284   -0.4289   -0.3518 C.ar    1  UNL1        0.2911
     22 N           6.5306   -1.0517   -0.1673 N.ar    1  UNL1       -0.1953
     23 C           7.5052   -0.1394   -0.1816 C.ar    1  UNL1        0.1126
     24 C           8.8695   -0.1632   -0.0511 C.ar    1  UNL1       -0.0142
     25 C           9.6300    0.9957   -0.1139 C.ar    1  UNL1        0.0432
     26 CL         11.3591    0.9354    0.0547 Cl      1  UNL1       -0.0835
     27 C           9.0023    2.2188   -0.3140 C.ar    1  UNL1       -0.0398
     28 C           7.6381    2.2280   -0.4428 C.ar    1  UNL1       -0.0157
     29 C           6.8811    1.0742   -0.3803 C.ar    1  UNL1        0.1571
     30 O           5.5893    0.8659   -0.4771 O.2     1  UNL1       -0.4244
     31 C           3.3529   -1.2539    0.8508 C.3     1  UNL1        0.0170
     32 C           2.0095   -0.5427    0.6400 C.3     1  UNL1       -0.0259
     33 H          -0.6462   -1.0225    1.2924 H       1  UNL1        0.1491
     34 H          -2.3495    0.5567   -0.7146 H       1  UNL1        0.0524
     35 H          -3.2094    1.7884    1.2048 H       1  UNL1        0.0284
     36 H          -1.4036    1.6929    1.5494 H       1  UNL1        0.0284
     37 H          -1.7891    0.1549    3.2232 H       1  UNL1        0.0267
     38 H          -3.4811    0.7709    3.2260 H       1  UNL1        0.0267
     39 H          -4.0167   -1.4754    2.6128 H       1  UNL1        0.0291
     40 H          -2.2944   -1.8169    2.1729 H       1  UNL1        0.0291
     41 H          -3.2922   -1.7654    0.0324 H       1  UNL1        0.0614
     42 H          -5.6897   -1.7261   -0.2903 H       1  UNL1        0.0610
     43 H          -4.8632   -0.8118   -1.5644 H       1  UNL1        0.0610
     44 H          -5.5972    1.2393   -2.2975 H       1  UNL1        0.0621
     45 H          -7.5639    2.7425   -2.6558 H       1  UNL1        0.0618
     46 H          -9.5994    2.4933   -1.3076 H       1  UNL1        0.0618
     47 H          -9.6792    0.7438    0.4025 H       1  UNL1        0.0618
     48 H          -7.7504   -0.7552    0.7773 H       1  UNL1        0.0621
     49 H           1.1427   -2.2678   -0.2498 H       1  UNL1        0.0395
     50 H           1.6011   -1.7165   -2.5461 H       1  UNL1        0.0288
     51 H           2.0930   -0.0333   -2.1030 H       1  UNL1        0.0288
     52 H           3.4493   -2.7349   -1.5884 H       1  UNL1        0.0465
     53 H           4.1123   -1.3486   -2.4872 H       1  UNL1        0.0465
     54 H           9.4033   -1.0888    0.1055 H       1  UNL1        0.0654
     55 H           9.6006    3.1258   -0.3628 H       1  UNL1        0.0633
     56 H           7.0985    3.1581   -0.6007 H       1  UNL1        0.0655
     57 H           3.1121   -2.3332    1.0342 H       1  UNL1        0.0465
     58 H           3.8948   -0.8219    1.7122 H       1  UNL1        0.0465
     59 H           1.4394   -0.5867    1.5667 H       1  UNL1        0.0288
     60 H           2.2718    0.5090    0.3726 H       1  UNL1        0.0288
@<TRIPOS>BOND
     1     1     2    2
     2     2     3   am
     3     3     4    1
     4     4     5    1
     5     5     6    1
     6     6     7    1
     7     7     8    1
     8     8     9    1
     9     9    10    1
    10    10    11    1
    11    11    12   ar
    12    12    13   ar
    13    13    14   ar
    14    14    15   ar
    15    15    16   ar
    16     2    17    1
    17    17    18    1
    18    18    19    1
    19    19    20    1
    20    20    21    1
    21    21    22   ar
    22    22    23   ar
    23    23    24   ar
    24    24    25   ar
    25    25    26    1
    26    25    27   ar
    27    27    28   ar
    28    28    29   ar
    29    29    30   ar
    30    20    31    1
    31    31    32    1
    32     8     4    1
    33    16    11   ar
    34    32    17    1
    35    30    21   ar
    36    29    23   ar
    37     3    33    1
    38     4    34    1
    39     5    35    1
    40     5    36    1
    41     6    37    1
    42     6    38    1
    43     7    39    1
    44     7    40    1
    45     8    41    1
    46    10    42    1
    47    10    43    1
    48    12    44    1
    49    13    45    1
    50    14    46    1
    51    15    47    1
    52    16    48    1
    53    17    49    1
    54    18    50    1
    55    18    51    1
    56    19    52    1
    57    19    53    1
    58    24    54    1
    59    27    55    1
    60    28    56    1
    61    31    57    1
    62    31    58    1
    63    32    59    1
    64    32    60    1
