
     RDKit          3D

 33 34  0  0  0  0  0  0  0  0999 V2000
   -1.9698    2.6085   -0.8473 C   0  0  0  0  0  0  0  0  0  0  0  0
   -0.6486    1.9650   -0.5659 C   0  0  0  0  0  0  0  0  0  0  0  0
   -0.7499    0.5332   -0.1297 C   0  0  0  0  0  0  0  0  0  0  0  0
   -1.5545    0.3948    1.1304 C   0  0  0  0  0  0  0  0  0  0  0  0
   -1.9551   -1.0117    1.4260 C   0  0  0  0  0  0  0  0  0  0  0  0
   -2.6046   -1.7195    0.3146 C   0  0  0  0  0  0  0  0  0  0  0  0
   -3.5194   -2.5760    0.5228 O   0  0  0  0  0  0  0  0  0  0  0  0
   -2.1762   -1.4158   -1.0163 N   0  0  0  0  0  0  0  0  0  0  0  0
   -1.3871   -0.2445   -1.2174 C   0  0  0  0  0  0  0  0  0  0  0  0
   -1.2878    0.0656   -2.4542 O   0  0  0  0  0  0  0  0  0  0  0  0
    0.6399    0.0390    0.0076 C   0  0  0  0  0  0  0  0  0  0  0  0
    1.3733   -0.1538   -1.1475 C   0  0  0  0  0  0  0  0  0  0  0  0
    2.6857   -0.6171   -1.0769 C   0  0  0  0  0  0  0  0  0  0  0  0
    3.2783   -0.8918    0.1368 C   0  0  0  0  0  0  0  0  0  0  0  0
    4.6164   -1.3668    0.2551 N   0  0  0  0  0  0  0  0  0  0  0  0
    2.5639   -0.7053    1.2847 C   0  0  0  0  0  0  0  0  0  0  0  0
    1.2691   -0.2473    1.1997 C   0  0  0  0  0  0  0  0  0  0  0  0
   -2.4119    3.0978    0.0654 H   0  0  0  0  0  0  0  0  0  0  0  0
   -2.7028    1.9449   -1.3544 H   0  0  0  0  0  0  0  0  0  0  0  0
   -1.7766    3.4440   -1.5697 H   0  0  0  0  0  0  0  0  0  0  0  0
   -0.1592    2.5680    0.2427 H   0  0  0  0  0  0  0  0  0  0  0  0
   -0.0441    1.9939   -1.4966 H   0  0  0  0  0  0  0  0  0  0  0  0
   -1.0872    0.8269    2.0085 H   0  0  0  0  0  0  0  0  0  0  0  0
   -2.4958    0.9730    0.9683 H   0  0  0  0  0  0  0  0  0  0  0  0
   -1.1306   -1.6120    1.8705 H   0  0  0  0  0  0  0  0  0  0  0  0
   -2.7352   -0.9600    2.2410 H   0  0  0  0  0  0  0  0  0  0  0  0
   -2.4618   -2.0673   -1.7802 H   0  0  0  0  0  0  0  0  0  0  0  0
    1.0302    0.0224   -2.1574 H   0  0  0  0  0  0  0  0  0  0  0  0
    3.3407   -0.7991   -1.9308 H   0  0  0  0  0  0  0  0  0  0  0  0
    5.2058   -1.0546    1.0788 H   0  0  0  0  0  0  0  0  0  0  0  0
    5.1344   -2.0176   -0.3900 H   0  0  0  0  0  0  0  0  0  0  0  0
    2.9957   -0.9103    2.2553 H   0  0  0  0  0  0  0  0  0  0  0  0
    0.7246   -0.1064    2.0969 H   0  0  0  0  0  0  0  0  0  0  0  0
  1  2  1  0
  2  3  1  0
  3  4  1  0
  4  5  1  0
  5  6  1  0
  6  7  2  0
  6  8  1  0
  8  9  1  0
  9 10  2  0
  3 11  1  0
 11 12  2  0
 12 13  1  0
 13 14  2  0
 14 15  1  0
 14 16  1  0
 16 17  2  0
  9  3  1  0
 17 11  1  0
  1 18  1  0
  1 19  1  0
  1 20  1  0
  2 21  1  0
  2 22  1  0
  4 23  1  0
  4 24  1  0
  5 25  1  0
  5 26  1  0
  8 27  1  0
 12 28  1  0
 13 29  1  0
 15 30  1  0
 15 31  1  0
 16 32  1  0
 17 33  1  0
M  END
$$$$
