
     RDKit          3D

 59 62  0  0  0  0  0  0  0  0999 V2000
   -0.5960    3.3131   -1.4280 C   0  0  0  0  0  0  0  0  0  0  0  0
   -1.0211    1.9131   -1.2077 C   0  0  0  0  0  0  0  0  0  0  0  0
   -0.1823    0.9211   -1.6119 N   0  0  0  0  0  0  0  0  0  0  0  0
   -0.5697   -0.3534   -1.4405 C   0  0  0  0  0  0  0  0  0  0  0  0
    0.2630   -1.4075   -1.8697 N   0  0  0  0  0  0  0  0  0  0  0  0
    1.4319   -1.7302   -1.0620 C   0  0  0  0  0  0  0  0  0  0  0  0
    2.0261   -2.4809   -0.1874 N   0  0  0  0  0  0  0  0  0  0  0  0
    3.2470   -2.1690    0.1566 C   0  0  0  0  0  0  0  0  0  0  0  0
    3.9467   -1.1165   -0.3274 C   0  0  0  0  0  0  0  0  0  0  0  0
    2.7694   -0.4269   -1.4382 S   0  0  0  0  0  0  0  0  0  0  0  0
    5.2470   -0.6137   -0.0469 C   0  0  0  0  0  0  0  0  0  0  0  0
    5.5195    0.4539   -0.6933 O   0  0  0  0  0  0  0  0  0  0  0  0
    6.2360   -1.1090    0.8112 N   0  0  0  0  0  0  0  0  0  0  0  0
    7.2736   -0.1153    0.6234 C   0  0  0  0  0  0  0  0  0  0  0  0
    8.2184   -0.1044   -0.3675 C   0  0  0  0  0  0  0  0  0  0  0  0
    8.1936   -1.2151   -1.3508 C   0  0  0  0  0  0  0  0  0  0  0  0
    9.1059    0.9501   -0.3490 C   0  0  0  0  0  0  0  0  0  0  0  0
    9.0177    1.9266    0.6277 C   0  0  0  0  0  0  0  0  0  0  0  0
    8.0455    1.9091    1.6401 C   0  0  0  0  0  0  0  0  0  0  0  0
    7.1451    0.8448    1.6299 C   0  0  0  0  0  0  0  0  0  0  0  0
    5.9534    0.8710    2.8982 Cl  0  0  0  0  0  0  0  0  0  0  0  0
   -1.7832   -0.6521   -0.8675 C   0  0  0  0  0  0  0  0  0  0  0  0
   -2.6444    0.3781   -0.4522 C   0  0  0  0  0  0  0  0  0  0  0  0
   -2.2314    1.6659   -0.6377 N   0  0  0  0  0  0  0  0  0  0  0  0
   -3.9047   -0.0330    0.0897 N   0  0  0  0  0  0  0  0  0  0  0  0
   -4.6586    0.6093    1.1655 C   0  0  0  0  0  0  0  0  0  0  0  0
   -5.9473   -0.1502    1.3607 C   0  0  0  0  0  0  0  0  0  0  0  0
   -6.6433   -0.3760    0.1786 N   0  0  0  0  0  0  0  0  0  0  0  0
   -7.9912   -0.7905    0.2631 C   0  0  0  0  0  0  0  0  0  0  0  0
   -8.9170    0.3115    0.7477 C   0  0  0  0  0  0  0  0  0  0  0  0
   -8.7751    1.3461   -0.2033 O   0  0  0  0  0  0  0  0  0  0  0  0
   -5.9469   -0.8976   -0.9211 C   0  0  0  0  0  0  0  0  0  0  0  0
   -4.4787   -1.2041   -0.5699 C   0  0  0  0  0  0  0  0  0  0  0  0
    0.2133    3.3510   -2.2085 H   0  0  0  0  0  0  0  0  0  0  0  0
   -1.4163    3.9729   -1.8048 H   0  0  0  0  0  0  0  0  0  0  0  0
   -0.1430    3.7550   -0.5188 H   0  0  0  0  0  0  0  0  0  0  0  0
   -0.0245   -1.9004   -2.7524 H   0  0  0  0  0  0  0  0  0  0  0  0
    3.6536   -2.8649    0.8952 H   0  0  0  0  0  0  0  0  0  0  0  0
    5.9539   -1.9790    1.3003 H   0  0  0  0  0  0  0  0  0  0  0  0
    7.3008   -1.1688   -2.0049 H   0  0  0  0  0  0  0  0  0  0  0  0
    9.0618   -1.0952   -2.0331 H   0  0  0  0  0  0  0  0  0  0  0  0
    8.1715   -2.1767   -0.8227 H   0  0  0  0  0  0  0  0  0  0  0  0
    9.8606    0.9667   -1.1363 H   0  0  0  0  0  0  0  0  0  0  0  0
    9.7468    2.7400    0.5970 H   0  0  0  0  0  0  0  0  0  0  0  0
    8.0286    2.6934    2.3792 H   0  0  0  0  0  0  0  0  0  0  0  0
   -2.0961   -1.6896   -0.7166 H   0  0  0  0  0  0  0  0  0  0  0  0
   -4.9251    1.6290    0.8790 H   0  0  0  0  0  0  0  0  0  0  0  0
   -4.0549    0.6371    2.1033 H   0  0  0  0  0  0  0  0  0  0  0  0
   -6.5602    0.4457    2.0900 H   0  0  0  0  0  0  0  0  0  0  0  0
   -5.6995   -1.1363    1.8524 H   0  0  0  0  0  0  0  0  0  0  0  0
   -8.3889   -1.1271   -0.7451 H   0  0  0  0  0  0  0  0  0  0  0  0
   -8.0951   -1.6960    0.9085 H   0  0  0  0  0  0  0  0  0  0  0  0
   -8.6599    0.6778    1.7435 H   0  0  0  0  0  0  0  0  0  0  0  0
   -9.9658   -0.0133    0.6534 H   0  0  0  0  0  0  0  0  0  0  0  0
   -8.6108    0.9924   -1.1186 H   0  0  0  0  0  0  0  0  0  0  0  0
   -6.3496   -1.8458   -1.3104 H   0  0  0  0  0  0  0  0  0  0  0  0
   -5.9708   -0.1778   -1.7982 H   0  0  0  0  0  0  0  0  0  0  0  0
   -4.4103   -2.1252    0.0149 H   0  0  0  0  0  0  0  0  0  0  0  0
   -3.9692   -1.3332   -1.5435 H   0  0  0  0  0  0  0  0  0  0  0  0
  1  2  1  0
  2  3  2  0
  3  4  1  0
  4  5  1  0
  5  6  1  0
  6  7  2  0
  7  8  1  0
  8  9  2  0
  9 10  1  0
  9 11  1  0
 11 12  2  0
 11 13  1  0
 13 14  1  0
 14 15  2  0
 15 16  1  0
 15 17  1  0
 17 18  2  0
 18 19  1  0
 19 20  2  0
 20 21  1  0
  4 22  2  0
 22 23  1  0
 23 24  2  0
 23 25  1  0
 25 26  1  0
 26 27  1  0
 27 28  1  0
 28 29  1  0
 29 30  1  0
 30 31  1  0
 28 32  1  0
 32 33  1  0
 24  2  1  0
 33 25  1  0
 10  6  1  0
 20 14  1  0
  1 34  1  0
  1 35  1  0
  1 36  1  0
  5 37  1  0
  8 38  1  0
 13 39  1  0
 16 40  1  0
 16 41  1  0
 16 42  1  0
 17 43  1  0
 18 44  1  0
 19 45  1  0
 22 46  1  0
 26 47  1  0
 26 48  1  0
 27 49  1  0
 27 50  1  0
 29 51  1  0
 29 52  1  0
 30 53  1  0
 30 54  1  0
 31 55  1  0
 32 56  1  0
 32 57  1  0
 33 58  1  0
 33 59  1  0
M  END
$$$$
