@<TRIPOS>MOLECULE
*****
 63 67 0 0 0
SMALL
GASTEIGER

@<TRIPOS>ATOM
      1 O           3.0329    2.9448    0.1465 O.2     1  UNL1       -0.2465
      2 C           4.1430    2.3861   -0.0294 C.ar    1  UNL1        0.3278
      3 N           5.3319    2.9559   -0.1517 N.ar    1  UNL1       -0.3059
      4 C           6.2957    2.0297   -0.3293 C.ar    1  UNL1        0.0670
      5 C           7.6556    2.1098   -0.5012 C.ar    1  UNL1       -0.0362
      6 C           8.3844    0.9652   -0.6604 C.ar    1  UNL1       -0.0597
      7 C           7.7091   -0.2525   -0.6417 C.ar    1  UNL1       -0.0597
      8 C           6.3525   -0.3314   -0.4702 C.ar    1  UNL1       -0.0360
      9 C           5.6186    0.8223   -0.3098 C.ar    1  UNL1        0.0700
     10 N           4.2862    1.0467   -0.1240 N.ar    1  UNL1       -0.2891
     11 C           3.3000    0.0191   -0.0541 C.3     1  UNL1        0.0417
     12 C           2.3417    0.1488    1.1019 C.3     1  UNL1       -0.0191
     13 C           0.9011    0.0863    0.6775 C.3     1  UNL1        0.0008
     14 N           0.5865   -0.8479   -0.3333 N.3     1  UNL1       -0.3022
     15 C          -0.0548   -2.0559    0.1334 C.3     1  UNL1       -0.0011
     16 C          -1.4352   -1.8640    0.6605 C.3     1  UNL1       -0.0394
     17 C          -2.3874   -1.2977   -0.3707 C.3     1  UNL1       -0.0410
     18 C          -3.7570   -1.1284    0.2160 C.3     1  UNL1        0.0093
     19 C          -3.8182   -0.2275    1.3684 C.ar    1  UNL1       -0.0398
     20 C          -4.6236   -0.4404    2.4842 C.ar    1  UNL1       -0.0553
     21 C          -4.6306    0.4530    3.5351 C.ar    1  UNL1       -0.0262
     22 C          -3.8480    1.5877    3.5297 C.ar    1  UNL1        0.1234
     23 F          -3.8447    2.4771    4.5584 F       1  UNL1       -0.2055
     24 C          -3.0418    1.8119    2.4254 C.ar    1  UNL1       -0.0262
     25 C          -3.0370    0.9083    1.3661 C.ar    1  UNL1       -0.0553
     26 C          -4.7292   -0.8020   -0.8595 C.ar    1  UNL1       -0.0398
     27 C          -5.9960   -1.3573   -0.8534 C.ar    1  UNL1       -0.0553
     28 C          -6.9237   -1.0857   -1.8225 C.ar    1  UNL1       -0.0262
     29 C          -6.6314   -0.2349   -2.8614 C.ar    1  UNL1        0.1234
     30 F          -7.5363    0.0479   -3.8324 F       1  UNL1       -0.2055
     31 C          -5.3673    0.3193   -2.8676 C.ar    1  UNL1       -0.0262
     32 C          -4.4252    0.0532   -1.8974 C.ar    1  UNL1       -0.0553
     33 C           1.6025   -1.1998   -1.2593 C.3     1  UNL1        0.0008
     34 C           2.5632   -0.0386   -1.3804 C.3     1  UNL1       -0.0191
     35 H           5.4835    4.0022   -0.1121 H       1  UNL1        0.1704
     36 H           8.1217    3.0798   -0.5065 H       1  UNL1        0.0639
     37 H           9.4657    0.9683   -0.8005 H       1  UNL1        0.0618
     38 H           8.2613   -1.1673   -0.7650 H       1  UNL1        0.0618
     39 H           5.8274   -1.2944   -0.4565 H       1  UNL1        0.0639
     40 H           3.8055   -0.9593    0.0677 H       1  UNL1        0.0530
     41 H           2.5286    1.1334    1.5738 H       1  UNL1        0.0298
     42 H           2.4966   -0.6240    1.8838 H       1  UNL1        0.0298
     43 H           0.6107    1.1034    0.3312 H       1  UNL1        0.0427
     44 H           0.3109   -0.0684    1.6290 H       1  UNL1        0.0427
     45 H          -0.1511   -2.7153   -0.7798 H       1  UNL1        0.0426
     46 H           0.5867   -2.6391    0.8234 H       1  UNL1        0.0426
     47 H          -1.4879   -1.1995    1.5416 H       1  UNL1        0.0278
     48 H          -1.8259   -2.8802    0.9164 H       1  UNL1        0.0278
     49 H          -2.4733   -2.0647   -1.1768 H       1  UNL1        0.0275
     50 H          -1.9922   -0.3815   -0.8475 H       1  UNL1        0.0275
     51 H          -4.0559   -2.1505    0.5945 H       1  UNL1        0.0397
     52 H          -5.2487   -1.3388    2.4985 H       1  UNL1        0.0621
     53 H          -5.2565    0.2782    4.3917 H       1  UNL1        0.0646
     54 H          -2.4336    2.7031    2.4320 H       1  UNL1        0.0646
     55 H          -2.3997    1.1037    0.5142 H       1  UNL1        0.0621
     56 H          -6.2458   -2.0399   -0.0295 H       1  UNL1        0.0621
     57 H          -7.9112   -1.5286   -1.8030 H       1  UNL1        0.0646
     58 H          -5.1614    0.9954   -3.7096 H       1  UNL1        0.0646
     59 H          -3.4557    0.5136   -1.9526 H       1  UNL1        0.0621
     60 H           2.1794   -2.1077   -0.9672 H       1  UNL1        0.0427
     61 H           1.1124   -1.4347   -2.2363 H       1  UNL1        0.0427
     62 H           1.9731    0.8883   -1.4823 H       1  UNL1        0.0298
     63 H           3.3182   -0.1847   -2.1662 H       1  UNL1        0.0298
@<TRIPOS>BOND
     1     1     2    2
     2     2     3   ar
     3     3     4   ar
     4     4     5   ar
     5     5     6   ar
     6     6     7   ar
     7     7     8   ar
     8     8     9   ar
     9     9    10   ar
    10    10    11    1
    11    11    12    1
    12    12    13    1
    13    13    14    1
    14    14    15    1
    15    15    16    1
    16    16    17    1
    17    17    18    1
    18    18    19    1
    19    19    20   ar
    20    20    21   ar
    21    21    22   ar
    22    22    23    1
    23    22    24   ar
    24    24    25   ar
    25    18    26    1
    26    26    27   ar
    27    27    28   ar
    28    28    29   ar
    29    29    30    1
    30    29    31   ar
    31    31    32   ar
    32    14    33    1
    33    33    34    1
    34    10     2   ar
    35    34    11    1
    36     9     4   ar
    37    25    19   ar
    38    32    26   ar
    39     3    35    1
    40     5    36    1
    41     6    37    1
    42     7    38    1
    43     8    39    1
    44    11    40    1
    45    12    41    1
    46    12    42    1
    47    13    43    1
    48    13    44    1
    49    15    45    1
    50    15    46    1
    51    16    47    1
    52    16    48    1
    53    17    49    1
    54    17    50    1
    55    18    51    1
    56    20    52    1
    57    21    53    1
    58    24    54    1
    59    25    55    1
    60    27    56    1
    61    28    57    1
    62    31    58    1
    63    32    59    1
    64    33    60    1
    65    33    61    1
    66    34    62    1
    67    34    63    1
