
     RDKit          3D

 63 67  0  0  0  0  0  0  0  0999 V2000
    3.0329    2.9448    0.1465 O   0  0  0  0  0  0  0  0  0  0  0  0
    4.1430    2.3861   -0.0294 C   0  0  0  0  0  0  0  0  0  0  0  0
    5.3319    2.9559   -0.1517 N   0  0  0  0  0  0  0  0  0  0  0  0
    6.2957    2.0297   -0.3293 C   0  0  0  0  0  0  0  0  0  0  0  0
    7.6556    2.1098   -0.5012 C   0  0  0  0  0  0  0  0  0  0  0  0
    8.3844    0.9652   -0.6604 C   0  0  0  0  0  0  0  0  0  0  0  0
    7.7091   -0.2525   -0.6417 C   0  0  0  0  0  0  0  0  0  0  0  0
    6.3525   -0.3314   -0.4702 C   0  0  0  0  0  0  0  0  0  0  0  0
    5.6186    0.8223   -0.3098 C   0  0  0  0  0  0  0  0  0  0  0  0
    4.2862    1.0467   -0.1240 N   0  0  0  0  0  0  0  0  0  0  0  0
    3.3000    0.0191   -0.0541 C   0  0  0  0  0  0  0  0  0  0  0  0
    2.3417    0.1488    1.1019 C   0  0  0  0  0  0  0  0  0  0  0  0
    0.9011    0.0863    0.6775 C   0  0  0  0  0  0  0  0  0  0  0  0
    0.5865   -0.8479   -0.3333 N   0  0  0  0  0  0  0  0  0  0  0  0
   -0.0548   -2.0559    0.1334 C   0  0  0  0  0  0  0  0  0  0  0  0
   -1.4352   -1.8640    0.6605 C   0  0  0  0  0  0  0  0  0  0  0  0
   -2.3874   -1.2977   -0.3707 C   0  0  0  0  0  0  0  0  0  0  0  0
   -3.7570   -1.1284    0.2160 C   0  0  0  0  0  0  0  0  0  0  0  0
   -3.8182   -0.2275    1.3684 C   0  0  0  0  0  0  0  0  0  0  0  0
   -4.6236   -0.4404    2.4842 C   0  0  0  0  0  0  0  0  0  0  0  0
   -4.6306    0.4530    3.5351 C   0  0  0  0  0  0  0  0  0  0  0  0
   -3.8480    1.5877    3.5297 C   0  0  0  0  0  0  0  0  0  0  0  0
   -3.8447    2.4771    4.5584 F   0  0  0  0  0  0  0  0  0  0  0  0
   -3.0418    1.8119    2.4254 C   0  0  0  0  0  0  0  0  0  0  0  0
   -3.0370    0.9083    1.3661 C   0  0  0  0  0  0  0  0  0  0  0  0
   -4.7292   -0.8020   -0.8595 C   0  0  0  0  0  0  0  0  0  0  0  0
   -5.9960   -1.3573   -0.8534 C   0  0  0  0  0  0  0  0  0  0  0  0
   -6.9237   -1.0857   -1.8225 C   0  0  0  0  0  0  0  0  0  0  0  0
   -6.6314   -0.2349   -2.8614 C   0  0  0  0  0  0  0  0  0  0  0  0
   -7.5363    0.0479   -3.8324 F   0  0  0  0  0  0  0  0  0  0  0  0
   -5.3673    0.3193   -2.8676 C   0  0  0  0  0  0  0  0  0  0  0  0
   -4.4252    0.0532   -1.8974 C   0  0  0  0  0  0  0  0  0  0  0  0
    1.6025   -1.1998   -1.2593 C   0  0  0  0  0  0  0  0  0  0  0  0
    2.5632   -0.0386   -1.3804 C   0  0  0  0  0  0  0  0  0  0  0  0
    5.4835    4.0022   -0.1121 H   0  0  0  0  0  0  0  0  0  0  0  0
    8.1217    3.0798   -0.5065 H   0  0  0  0  0  0  0  0  0  0  0  0
    9.4657    0.9683   -0.8005 H   0  0  0  0  0  0  0  0  0  0  0  0
    8.2613   -1.1673   -0.7650 H   0  0  0  0  0  0  0  0  0  0  0  0
    5.8274   -1.2944   -0.4565 H   0  0  0  0  0  0  0  0  0  0  0  0
    3.8055   -0.9593    0.0677 H   0  0  0  0  0  0  0  0  0  0  0  0
    2.5286    1.1334    1.5738 H   0  0  0  0  0  0  0  0  0  0  0  0
    2.4966   -0.6240    1.8838 H   0  0  0  0  0  0  0  0  0  0  0  0
    0.6107    1.1034    0.3312 H   0  0  0  0  0  0  0  0  0  0  0  0
    0.3109   -0.0684    1.6290 H   0  0  0  0  0  0  0  0  0  0  0  0
   -0.1511   -2.7153   -0.7798 H   0  0  0  0  0  0  0  0  0  0  0  0
    0.5867   -2.6391    0.8234 H   0  0  0  0  0  0  0  0  0  0  0  0
   -1.4879   -1.1995    1.5416 H   0  0  0  0  0  0  0  0  0  0  0  0
   -1.8259   -2.8802    0.9164 H   0  0  0  0  0  0  0  0  0  0  0  0
   -2.4733   -2.0647   -1.1768 H   0  0  0  0  0  0  0  0  0  0  0  0
   -1.9922   -0.3815   -0.8475 H   0  0  0  0  0  0  0  0  0  0  0  0
   -4.0559   -2.1505    0.5945 H   0  0  0  0  0  0  0  0  0  0  0  0
   -5.2487   -1.3388    2.4985 H   0  0  0  0  0  0  0  0  0  0  0  0
   -5.2565    0.2782    4.3917 H   0  0  0  0  0  0  0  0  0  0  0  0
   -2.4336    2.7031    2.4320 H   0  0  0  0  0  0  0  0  0  0  0  0
   -2.3997    1.1037    0.5142 H   0  0  0  0  0  0  0  0  0  0  0  0
   -6.2458   -2.0399   -0.0295 H   0  0  0  0  0  0  0  0  0  0  0  0
   -7.9112   -1.5286   -1.8030 H   0  0  0  0  0  0  0  0  0  0  0  0
   -5.1614    0.9954   -3.7096 H   0  0  0  0  0  0  0  0  0  0  0  0
   -3.4557    0.5136   -1.9526 H   0  0  0  0  0  0  0  0  0  0  0  0
    2.1794   -2.1077   -0.9672 H   0  0  0  0  0  0  0  0  0  0  0  0
    1.1124   -1.4347   -2.2363 H   0  0  0  0  0  0  0  0  0  0  0  0
    1.9731    0.8883   -1.4823 H   0  0  0  0  0  0  0  0  0  0  0  0
    3.3182   -0.1847   -2.1662 H   0  0  0  0  0  0  0  0  0  0  0  0
  1  2  2  0
  2  3  1  0
  3  4  1  0
  4  5  2  0
  5  6  1  0
  6  7  2  0
  7  8  1  0
  8  9  2  0
  9 10  1  0
 10 11  1  0
 11 12  1  0
 12 13  1  0
 13 14  1  0
 14 15  1  0
 15 16  1  0
 16 17  1  0
 17 18  1  0
 18 19  1  0
 19 20  2  0
 20 21  1  0
 21 22  2  0
 22 23  1  0
 22 24  1  0
 24 25  2  0
 18 26  1  0
 26 27  2  0
 27 28  1  0
 28 29  2  0
 29 30  1  0
 29 31  1  0
 31 32  2  0
 14 33  1  0
 33 34  1  0
 10  2  1  0
 34 11  1  0
  9  4  1  0
 25 19  1  0
 32 26  1  0
  3 35  1  0
  5 36  1  0
  6 37  1  0
  7 38  1  0
  8 39  1  0
 11 40  1  0
 12 41  1  0
 12 42  1  0
 13 43  1  0
 13 44  1  0
 15 45  1  0
 15 46  1  0
 16 47  1  0
 16 48  1  0
 17 49  1  0
 17 50  1  0
 18 51  1  0
 20 52  1  0
 21 53  1  0
 24 54  1  0
 25 55  1  0
 27 56  1  0
 28 57  1  0
 31 58  1  0
 32 59  1  0
 33 60  1  0
 33 61  1  0
 34 62  1  0
 34 63  1  0
M  END
$$$$
