@<TRIPOS>MOLECULE
*****
 53 58 0 0 0
SMALL
GASTEIGER

@<TRIPOS>ATOM
      1 C           4.6586   -1.3431    2.8170 C.3     1  UNL1       -0.0023
      2 N           4.9193   -0.9891    1.4453 N.pl3   1  UNL1       -0.3439
      3 C           3.8809   -0.6696    0.5298 C.ar    1  UNL1        0.0768
      4 C           2.5557   -0.6816    0.9074 C.ar    1  UNL1        0.0050
      5 C           1.5941   -0.3581   -0.0431 C.ar    1  UNL1        0.1514
      6 N           0.2308   -0.3778    0.3727 N.am    1  UNL1       -0.2375
      7 C          -0.5833   -1.5427    0.2837 C.2     1  UNL1        0.2711
      8 O          -0.2310   -2.6611   -0.1523 O.2     1  UNL1       -0.2679
      9 C          -1.9083   -1.2324    0.7842 C.ar    1  UNL1        0.1297
     10 C          -1.8811    0.0873    1.1617 C.ar    1  UNL1        0.0305
     11 C          -3.1415    0.3718    1.6347 C.ar    1  UNL1        0.0660
     12 C          -3.6185    1.6934    2.1686 C.3     1  UNL1       -0.0203
     13 N          -3.8480   -0.7552    1.5235 N.ar    1  UNL1       -0.1752
     14 N          -3.1303   -1.7383    1.0141 N.ar    1  UNL1       -0.2556
     15 C          -3.5154   -3.1024    0.7342 C.3     1  UNL1        0.0537
     16 C          -4.8896   -3.5677    1.0360 C.3     1  UNL1       -0.0285
     17 C          -4.4220   -3.4402   -0.3810 C.3     1  UNL1       -0.0285
     18 C          -0.5493    0.6911    0.9264 C.3     1  UNL1        0.0868
     19 C          -0.7123    1.8129   -0.0180 C.ar    1  UNL1       -0.0220
     20 C          -0.5439    3.1210    0.4122 C.ar    1  UNL1       -0.0551
     21 C          -0.6847    4.2033   -0.4285 C.ar    1  UNL1       -0.0431
     22 C          -1.0018    3.9798   -1.7336 C.ar    1  UNL1        0.0410
     23 CL         -1.1811    5.3598   -2.8043 Cl      1  UNL1       -0.0835
     24 C          -1.1730    2.6810   -2.1775 C.ar    1  UNL1       -0.0431
     25 C          -1.0329    1.6115   -1.3429 C.ar    1  UNL1       -0.0551
     26 N           1.9613   -0.0427   -1.2982 N.ar    1  UNL1       -0.1477
     27 N           3.2336   -0.0262   -1.6795 N.ar    1  UNL1       -0.1937
     28 C           3.8046    0.2578   -2.8703 C.ar    1  UNL1        0.1521
     29 C           3.0859    0.6440   -4.1130 C.3     1  UNL1       -0.0027
     30 N           5.1277    0.1149   -2.6762 N.ar    1  UNL1       -0.1324
     31 N           5.3529   -0.2445   -1.4078 N.ar    1  UNL1       -0.1260
     32 C           4.1717   -0.3354   -0.7753 C.ar    1  UNL1        0.1987
     33 H           5.5550   -1.1997    3.4656 H       1  UNL1        0.0425
     34 H           3.8403   -0.6520    3.1757 H       1  UNL1        0.0425
     35 H           4.3539   -2.4027    2.9109 H       1  UNL1        0.0425
     36 H           5.9061   -0.9690    1.1218 H       1  UNL1        0.1458
     37 H           2.2663   -0.9347    1.9128 H       1  UNL1        0.0672
     38 H          -3.9260    2.3651    1.3424 H       1  UNL1        0.0293
     39 H          -4.4390    1.5730    2.8856 H       1  UNL1        0.0293
     40 H          -2.7588    2.1413    2.6991 H       1  UNL1        0.0293
     41 H          -2.6897   -3.8509    0.9124 H       1  UNL1        0.0545
     42 H          -5.6866   -2.8803    1.3756 H       1  UNL1        0.0286
     43 H          -5.0106   -4.5981    1.4220 H       1  UNL1        0.0286
     44 H          -4.8089   -2.6105   -0.9945 H       1  UNL1        0.0286
     45 H          -4.3040   -4.3812   -0.9552 H       1  UNL1        0.0286
     46 H          -0.0949    1.0587    1.8669 H       1  UNL1        0.0606
     47 H          -0.2949    3.2761    1.4417 H       1  UNL1        0.0621
     48 H          -0.5415    5.2162   -0.0405 H       1  UNL1        0.0632
     49 H          -1.4232    2.5484   -3.2170 H       1  UNL1        0.0632
     50 H          -1.1781    0.6168   -1.7434 H       1  UNL1        0.0621
     51 H           3.5995    0.2265   -5.0286 H       1  UNL1        0.0309
     52 H           2.0621    0.2025   -4.1449 H       1  UNL1        0.0309
     53 H           3.0438    1.7332   -4.2586 H       1  UNL1        0.0309
@<TRIPOS>BOND
     1     1     2    1
     2     2     3    1
     3     3     4   ar
     4     4     5   ar
     5     5     6    1
     6     6     7   am
     7     7     8    2
     8     7     9    1
     9     9    10   ar
    10    10    11   ar
    11    11    12    1
    12    11    13   ar
    13    13    14   ar
    14    14    15    1
    15    15    16    1
    16    16    17    1
    17    10    18    1
    18    18    19    1
    19    19    20   ar
    20    20    21   ar
    21    21    22   ar
    22    22    23    1
    23    22    24   ar
    24    24    25   ar
    25     5    26   ar
    26    26    27   ar
    27    27    28   ar
    28    28    29    1
    29    28    30   ar
    30    30    31   ar
    31    31    32   ar
    32    32     3   ar
    33    18     6    1
    34    25    19   ar
    35    32    27   ar
    36    14     9   ar
    37    17    15    1
    38     1    33    1
    39     1    34    1
    40     1    35    1
    41     2    36    1
    42     4    37    1
    43    12    38    1
    44    12    39    1
    45    12    40    1
    46    15    41    1
    47    16    42    1
    48    16    43    1
    49    17    44    1
    50    17    45    1
    51    18    46    1
    52    20    47    1
    53    21    48    1
    54    24    49    1
    55    25    50    1
    56    29    51    1
    57    29    52    1
    58    29    53    1
