
     RDKit          3D

 53 58  0  0  0  0  0  0  0  0999 V2000
    4.6586   -1.3431    2.8170 C   0  0  0  0  0  0  0  0  0  0  0  0
    4.9193   -0.9891    1.4453 N   0  0  0  0  0  0  0  0  0  0  0  0
    3.8809   -0.6696    0.5298 C   0  0  0  0  0  0  0  0  0  0  0  0
    2.5557   -0.6816    0.9074 C   0  0  0  0  0  0  0  0  0  0  0  0
    1.5941   -0.3581   -0.0431 C   0  0  0  0  0  0  0  0  0  0  0  0
    0.2308   -0.3778    0.3727 N   0  0  0  0  0  0  0  0  0  0  0  0
   -0.5833   -1.5427    0.2837 C   0  0  0  0  0  0  0  0  0  0  0  0
   -0.2310   -2.6611   -0.1523 O   0  0  0  0  0  0  0  0  0  0  0  0
   -1.9083   -1.2324    0.7842 C   0  0  0  0  0  0  0  0  0  0  0  0
   -1.8811    0.0873    1.1617 C   0  0  0  0  0  0  0  0  0  0  0  0
   -3.1415    0.3718    1.6347 C   0  0  0  0  0  0  0  0  0  0  0  0
   -3.6185    1.6934    2.1686 C   0  0  0  0  0  0  0  0  0  0  0  0
   -3.8480   -0.7552    1.5235 N   0  0  0  0  0  0  0  0  0  0  0  0
   -3.1303   -1.7383    1.0141 N   0  0  0  0  0  0  0  0  0  0  0  0
   -3.5154   -3.1024    0.7342 C   0  0  0  0  0  0  0  0  0  0  0  0
   -4.8896   -3.5677    1.0360 C   0  0  0  0  0  0  0  0  0  0  0  0
   -4.4220   -3.4402   -0.3810 C   0  0  0  0  0  0  0  0  0  0  0  0
   -0.5493    0.6911    0.9264 C   0  0  0  0  0  0  0  0  0  0  0  0
   -0.7123    1.8129   -0.0180 C   0  0  0  0  0  0  0  0  0  0  0  0
   -0.5439    3.1210    0.4122 C   0  0  0  0  0  0  0  0  0  0  0  0
   -0.6847    4.2033   -0.4285 C   0  0  0  0  0  0  0  0  0  0  0  0
   -1.0018    3.9798   -1.7336 C   0  0  0  0  0  0  0  0  0  0  0  0
   -1.1811    5.3598   -2.8043 Cl  0  0  0  0  0  0  0  0  0  0  0  0
   -1.1730    2.6810   -2.1775 C   0  0  0  0  0  0  0  0  0  0  0  0
   -1.0329    1.6115   -1.3429 C   0  0  0  0  0  0  0  0  0  0  0  0
    1.9613   -0.0427   -1.2982 N   0  0  0  0  0  0  0  0  0  0  0  0
    3.2336   -0.0262   -1.6795 N   0  0  0  0  0  0  0  0  0  0  0  0
    3.8046    0.2578   -2.8703 C   0  0  0  0  0  0  0  0  0  0  0  0
    3.0859    0.6440   -4.1130 C   0  0  0  0  0  0  0  0  0  0  0  0
    5.1277    0.1149   -2.6762 N   0  0  0  0  0  0  0  0  0  0  0  0
    5.3529   -0.2445   -1.4078 N   0  0  0  0  0  0  0  0  0  0  0  0
    4.1717   -0.3354   -0.7753 C   0  0  0  0  0  0  0  0  0  0  0  0
    5.5550   -1.1997    3.4656 H   0  0  0  0  0  0  0  0  0  0  0  0
    3.8403   -0.6520    3.1757 H   0  0  0  0  0  0  0  0  0  0  0  0
    4.3539   -2.4027    2.9109 H   0  0  0  0  0  0  0  0  0  0  0  0
    5.9061   -0.9690    1.1218 H   0  0  0  0  0  0  0  0  0  0  0  0
    2.2663   -0.9347    1.9128 H   0  0  0  0  0  0  0  0  0  0  0  0
   -3.9260    2.3651    1.3424 H   0  0  0  0  0  0  0  0  0  0  0  0
   -4.4390    1.5730    2.8856 H   0  0  0  0  0  0  0  0  0  0  0  0
   -2.7588    2.1413    2.6991 H   0  0  0  0  0  0  0  0  0  0  0  0
   -2.6897   -3.8509    0.9124 H   0  0  0  0  0  0  0  0  0  0  0  0
   -5.6866   -2.8803    1.3756 H   0  0  0  0  0  0  0  0  0  0  0  0
   -5.0106   -4.5981    1.4220 H   0  0  0  0  0  0  0  0  0  0  0  0
   -4.8089   -2.6105   -0.9945 H   0  0  0  0  0  0  0  0  0  0  0  0
   -4.3040   -4.3812   -0.9552 H   0  0  0  0  0  0  0  0  0  0  0  0
   -0.0949    1.0587    1.8669 H   0  0  0  0  0  0  0  0  0  0  0  0
   -0.2949    3.2761    1.4417 H   0  0  0  0  0  0  0  0  0  0  0  0
   -0.5415    5.2162   -0.0405 H   0  0  0  0  0  0  0  0  0  0  0  0
   -1.4232    2.5484   -3.2170 H   0  0  0  0  0  0  0  0  0  0  0  0
   -1.1781    0.6168   -1.7434 H   0  0  0  0  0  0  0  0  0  0  0  0
    3.5995    0.2265   -5.0286 H   0  0  0  0  0  0  0  0  0  0  0  0
    2.0621    0.2025   -4.1449 H   0  0  0  0  0  0  0  0  0  0  0  0
    3.0438    1.7332   -4.2586 H   0  0  0  0  0  0  0  0  0  0  0  0
  1  2  1  0
  2  3  1  0
  3  4  2  0
  4  5  1  0
  5  6  1  0
  6  7  1  0
  7  8  2  0
  7  9  1  0
  9 10  2  0
 10 11  1  0
 11 12  1  0
 11 13  2  0
 13 14  1  0
 14 15  1  0
 15 16  1  0
 16 17  1  0
 10 18  1  0
 18 19  1  0
 19 20  2  0
 20 21  1  0
 21 22  2  0
 22 23  1  0
 22 24  1  0
 24 25  2  0
  5 26  2  0
 26 27  1  0
 27 28  1  0
 28 29  1  0
 28 30  2  0
 30 31  1  0
 31 32  2  0
 32  3  1  0
 18  6  1  0
 25 19  1  0
 32 27  1  0
 14  9  1  0
 17 15  1  0
  1 33  1  0
  1 34  1  0
  1 35  1  0
  2 36  1  0
  4 37  1  0
 12 38  1  0
 12 39  1  0
 12 40  1  0
 15 41  1  0
 16 42  1  0
 16 43  1  0
 17 44  1  0
 17 45  1  0
 18 46  1  0
 20 47  1  0
 21 48  1  0
 24 49  1  0
 25 50  1  0
 29 51  1  0
 29 52  1  0
 29 53  1  0
M  END
$$$$
