
     RDKit          3D

 74 80  0  0  0  0  0  0  0  0999 V2000
    7.7704   -2.2789    2.0000 C   0  0  0  0  0  0  0  0  0  0  0  0
    7.2225   -1.8841    0.7572 O   0  0  0  0  0  0  0  0  0  0  0  0
    7.5466   -0.6368    0.2301 C   0  0  0  0  0  0  0  0  0  0  0  0
    8.3939    0.2248    0.8961 C   0  0  0  0  0  0  0  0  0  0  0  0
    8.7137    1.4528    0.3759 C   0  0  0  0  0  0  0  0  0  0  0  0
    8.1936    1.8650   -0.8364 C   0  0  0  0  0  0  0  0  0  0  0  0
    7.3428    1.0463   -1.5397 C   0  0  0  0  0  0  0  0  0  0  0  0
    7.0399   -0.2009   -0.9786 C   0  0  0  0  0  0  0  0  0  0  0  0
    6.9213    1.7321   -2.7424 C   0  0  1  0  0  0  0  0  0  0  0  0
    6.6939    1.0897   -4.0565 C   0  0  0  0  0  0  0  0  0  0  0  0
    5.5555    1.7337   -3.3179 C   0  0  1  0  0  0  0  0  0  0  0  0
    4.4214    0.9656   -2.8131 C   0  0  0  0  0  0  0  0  0  0  0  0
    3.4671    1.5631   -2.0101 C   0  0  0  0  0  0  0  0  0  0  0  0
    2.3604    0.8750   -1.5390 C   0  0  0  0  0  0  0  0  0  0  0  0
    2.1356   -0.4482   -1.8384 C   0  0  0  0  0  0  0  0  0  0  0  0
    1.1625   -1.3629   -1.5164 C   0  0  0  0  0  0  0  0  0  0  0  0
   -0.0510   -1.2439   -0.7514 C   0  0  0  0  0  0  0  0  0  0  0  0
   -0.6220   -0.2046   -0.2277 C   0  0  0  0  0  0  0  0  0  0  0  0
   -1.8850   -0.2476    0.5440 C   0  0  0  0  0  0  0  0  0  0  0  0
   -2.5713   -1.3939    0.7928 C   0  0  0  0  0  0  0  0  0  0  0  0
   -3.7706   -1.3837    1.5296 C   0  0  0  0  0  0  0  0  0  0  0  0
   -4.2872   -0.2112    2.0222 C   0  0  0  0  0  0  0  0  0  0  0  0
   -5.5529   -0.1536    2.8040 C   0  0  0  0  0  0  0  0  0  0  0  0
   -6.7240    0.0500    2.0267 N   0  0  0  0  0  0  0  0  0  0  0  0
   -7.0462   -0.9271    1.0674 C   0  0  0  0  0  0  0  0  0  0  0  0
   -8.4877   -1.1927    0.8039 C   0  0  2  0  0  0  0  0  0  0  0  0
   -8.7129   -1.4918   -0.6421 C   0  0  0  0  0  0  0  0  0  0  0  0
   -9.3214   -0.1672    1.2551 O   0  0  0  0  0  0  0  0  0  0  0  0
   -9.0404   -0.0739    2.6396 C   0  0  2  0  0  0  0  0  0  0  0  0
  -10.2048    0.6282    3.2941 C   0  0  0  0  0  0  0  0  0  0  0  0
   -7.7611    0.6834    2.7566 C   0  0  0  0  0  0  0  0  0  0  0  0
   -3.5855    0.9603    1.7678 C   0  0  0  0  0  0  0  0  0  0  0  0
   -2.4093    0.9288    1.0419 C   0  0  0  0  0  0  0  0  0  0  0  0
    1.5650   -2.5233   -2.1483 N   0  0  0  0  0  0  0  0  0  0  0  0
    2.6786   -2.3240   -2.7933 N   0  0  0  0  0  0  0  0  0  0  0  0
    3.0861   -1.0521   -2.6405 C   0  0  0  0  0  0  0  0  0  0  0  0
    4.1954   -0.3566   -3.1106 C   0  0  0  0  0  0  0  0  0  0  0  0
    7.7176    2.9831   -2.7829 C   0  0  0  0  0  0  0  0  0  0  0  0
    7.7699    3.8458   -3.7100 O   0  0  0  0  0  0  0  0  0  0  0  0
    8.4388    3.0756   -1.5873 N   0  0  0  0  0  0  0  0  0  0  0  0
    7.3551   -3.2611    2.3058 H   0  0  0  0  0  0  0  0  0  0  0  0
    8.8723   -2.4229    1.8476 H   0  0  0  0  0  0  0  0  0  0  0  0
    7.6650   -1.5103    2.7871 H   0  0  0  0  0  0  0  0  0  0  0  0
    8.8058   -0.1029    1.8578 H   0  0  0  0  0  0  0  0  0  0  0  0
    9.3785    2.1131    0.9103 H   0  0  0  0  0  0  0  0  0  0  0  0
    6.3804   -0.8972   -1.5025 H   0  0  0  0  0  0  0  0  0  0  0  0
    6.7387   -0.0164   -4.1401 H   0  0  0  0  0  0  0  0  0  0  0  0
    7.1136    1.5857   -4.9551 H   0  0  0  0  0  0  0  0  0  0  0  0
    5.2816    2.7791   -3.6895 H   0  0  0  0  0  0  0  0  0  0  0  0
    3.6126    2.6199   -1.7504 H   0  0  0  0  0  0  0  0  0  0  0  0
    1.6631    1.3715   -0.9161 H   0  0  0  0  0  0  0  0  0  0  0  0
   -0.5825   -2.1975   -0.5780 H   0  0  0  0  0  0  0  0  0  0  0  0
   -0.1929    0.7681   -0.3513 H   0  0  0  0  0  0  0  0  0  0  0  0
   -2.2162   -2.3496    0.4323 H   0  0  0  0  0  0  0  0  0  0  0  0
   -4.2834   -2.3339    1.7045 H   0  0  0  0  0  0  0  0  0  0  0  0
   -5.4142    0.6633    3.5503 H   0  0  0  0  0  0  0  0  0  0  0  0
   -5.6993   -1.0830    3.4058 H   0  0  0  0  0  0  0  0  0  0  0  0
   -6.5830   -0.6465    0.0896 H   0  0  0  0  0  0  0  0  0  0  0  0
   -6.6031   -1.9198    1.3910 H   0  0  0  0  0  0  0  0  0  0  0  0
   -8.8274   -2.1086    1.3720 H   0  0  0  0  0  0  0  0  0  0  0  0
   -7.9421   -2.1908   -1.0246 H   0  0  0  0  0  0  0  0  0  0  0  0
   -8.7333   -0.5664   -1.2610 H   0  0  0  0  0  0  0  0  0  0  0  0
   -9.6912   -1.9995   -0.8056 H   0  0  0  0  0  0  0  0  0  0  0  0
   -8.8784   -1.0931    3.0136 H   0  0  0  0  0  0  0  0  0  0  0  0
  -10.1848    1.6841    2.9741 H   0  0  0  0  0  0  0  0  0  0  0  0
  -10.2055    0.4950    4.3785 H   0  0  0  0  0  0  0  0  0  0  0  0
  -11.1289    0.1781    2.8764 H   0  0  0  0  0  0  0  0  0  0  0  0
   -7.8756    1.7665    2.5069 H   0  0  0  0  0  0  0  0  0  0  0  0
   -7.4559    0.6805    3.8465 H   0  0  0  0  0  0  0  0  0  0  0  0
   -4.0008    1.8749    2.1600 H   0  0  0  0  0  0  0  0  0  0  0  0
   -1.8865    1.8825    0.8640 H   0  0  0  0  0  0  0  0  0  0  0  0
    3.1867   -3.0328   -3.3475 H   0  0  0  0  0  0  0  0  0  0  0  0
    4.9064   -0.8695   -3.7314 H   0  0  0  0  0  0  0  0  0  0  0  0
    9.0662    3.8657   -1.2432 H   0  0  0  0  0  0  0  0  0  0  0  0
  1  2  1  0
  2  3  1  0
  3  4  2  0
  4  5  1  0
  5  6  2  0
  6  7  1  0
  7  8  2  0
  7  9  1  0
  9 10  1  6
 10 11  1  0
 11 12  1  0
 12 13  2  0
 13 14  1  0
 14 15  2  0
 15 16  1  0
 16 17  1  0
 17 18  2  0
 18 19  1  0
 19 20  2  0
 20 21  1  0
 21 22  2  0
 22 23  1  0
 23 24  1  0
 24 25  1  0
 25 26  1  0
 26 27  1  0
 26 28  1  0
 28 29  1  0
 29 30  1  0
 29 31  1  0
 22 32  1  0
 32 33  2  0
 16 34  2  0
 34 35  1  0
 35 36  1  0
 36 37  2  0
  9 38  1  0
 38 39  2  0
 38 40  1  0
  8  3  1  0
 11  9  1  0
 37 12  1  0
 40  6  1  0
 36 15  1  0
 33 19  1  0
 31 24  1  0
  1 41  1  0
  1 42  1  0
  1 43  1  0
  4 44  1  0
  5 45  1  0
  8 46  1  0
 10 47  1  0
 10 48  1  0
 11 49  1  6
 13 50  1  0
 14 51  1  0
 17 52  1  0
 18 53  1  0
 20 54  1  0
 21 55  1  0
 23 56  1  0
 23 57  1  0
 25 58  1  0
 25 59  1  0
 26 60  1  1
 27 61  1  0
 27 62  1  0
 27 63  1  0
 29 64  1  1
 30 65  1  0
 30 66  1  0
 30 67  1  0
 31 68  1  0
 31 69  1  0
 32 70  1  0
 33 71  1  0
 35 72  1  0
 37 73  1  0
 40 74  1  0
M  END
$$$$
