@<TRIPOS>MOLECULE
*****
 74 80 0 0 0
SMALL
GASTEIGER

@<TRIPOS>ATOM
      1 C           7.7704   -2.2789    2.0000 C.3     1  UNL1        0.0788
      2 O           7.2225   -1.8841    0.7572 O.3     1  UNL1       -0.4951
      3 C           7.5466   -0.6368    0.2301 C.ar    1  UNL1        0.1205
      4 C           8.3939    0.2248    0.8961 C.ar    1  UNL1       -0.0182
      5 C           8.7137    1.4528    0.3759 C.ar    1  UNL1       -0.0367
      6 C           8.1936    1.8650   -0.8364 C.ar    1  UNL1        0.0378
      7 C           7.3428    1.0463   -1.5397 C.ar    1  UNL1       -0.0072
      8 C           7.0399   -0.2009   -0.9786 C.ar    1  UNL1       -0.0140
      9 C           6.9213    1.7321   -2.7424 C.3     1  UNL1        0.0813
     10 C           6.6939    1.0897   -4.0565 C.3     1  UNL1       -0.0262
     11 C           5.5555    1.7337   -3.3179 C.3     1  UNL1        0.0035
     12 C           4.4214    0.9656   -2.8131 C.ar    1  UNL1       -0.0409
     13 C           3.4671    1.5631   -2.0101 C.ar    1  UNL1       -0.0575
     14 C           2.3604    0.8750   -1.5390 C.ar    1  UNL1       -0.0502
     15 C           2.1356   -0.4482   -1.8384 C.ar    1  UNL1        0.0268
     16 C           1.1625   -1.3629   -1.5164 C.ar    1  UNL1        0.0931
     17 C          -0.0510   -1.2439   -0.7514 C.2     1  UNL1       -0.0334
     18 C          -0.6220   -0.2046   -0.2277 C.2     1  UNL1       -0.0525
     19 C          -1.8850   -0.2476    0.5440 C.ar    1  UNL1       -0.0249
     20 C          -2.5713   -1.3939    0.7928 C.ar    1  UNL1       -0.0543
     21 C          -3.7706   -1.3837    1.5296 C.ar    1  UNL1       -0.0568
     22 C          -4.2872   -0.2112    2.0222 C.ar    1  UNL1       -0.0333
     23 C          -5.5529   -0.1536    2.8040 C.3     1  UNL1        0.0242
     24 N          -6.7240    0.0500    2.0267 N.3     1  UNL1       -0.2933
     25 C          -7.0462   -0.9271    1.0674 C.3     1  UNL1        0.0254
     26 C          -8.4877   -1.1927    0.8039 C.3     1  UNL1        0.0690
     27 C          -8.7129   -1.4918   -0.6421 C.3     1  UNL1       -0.0375
     28 O          -9.3214   -0.1672    1.2551 O.3     1  UNL1       -0.3714
     29 C          -9.0404   -0.0739    2.6396 C.3     1  UNL1        0.0690
     30 C         -10.2048    0.6282    3.2941 C.3     1  UNL1       -0.0375
     31 C          -7.7611    0.6834    2.7566 C.3     1  UNL1        0.0254
     32 C          -3.5855    0.9603    1.7678 C.ar    1  UNL1       -0.0568
     33 C          -2.4093    0.9288    1.0419 C.ar    1  UNL1       -0.0543
     34 N           1.5650   -2.5233   -2.1483 N.ar    1  UNL1       -0.1733
     35 N           2.6786   -2.3240   -2.7933 N.ar    1  UNL1       -0.2764
     36 C           3.0861   -1.0521   -2.6405 C.ar    1  UNL1        0.0666
     37 C           4.1954   -0.3566   -3.1106 C.ar    1  UNL1       -0.0328
     38 C           7.7176    2.9831   -2.7829 C.2     1  UNL1        0.2284
     39 O           7.7699    3.8458   -3.7100 O.2     1  UNL1       -0.2745
     40 N           8.4388    3.0756   -1.5873 N.am    1  UNL1       -0.2845
     41 H           7.3551   -3.2611    2.3058 H       1  UNL1        0.0660
     42 H           8.8723   -2.4229    1.8476 H       1  UNL1        0.0660
     43 H           7.6650   -1.5103    2.7871 H       1  UNL1        0.0660
     44 H           8.8058   -0.1029    1.8578 H       1  UNL1        0.0655
     45 H           9.3785    2.1131    0.9103 H       1  UNL1        0.0637
     46 H           6.3804   -0.8972   -1.5025 H       1  UNL1        0.0658
     47 H           6.7387   -0.0164   -4.1401 H       1  UNL1        0.0285
     48 H           7.1136    1.5857   -4.9551 H       1  UNL1        0.0285
     49 H           5.2816    2.7791   -3.6895 H       1  UNL1        0.0362
     50 H           3.6126    2.6199   -1.7504 H       1  UNL1        0.0621
     51 H           1.6631    1.3715   -0.9161 H       1  UNL1        0.0625
     52 H          -0.5825   -2.1975   -0.5780 H       1  UNL1        0.0640
     53 H          -0.1929    0.7681   -0.3513 H       1  UNL1        0.0624
     54 H          -2.2162   -2.3496    0.4323 H       1  UNL1        0.0624
     55 H          -4.2834   -2.3339    1.7045 H       1  UNL1        0.0621
     56 H          -5.4142    0.6633    3.5503 H       1  UNL1        0.0476
     57 H          -5.6993   -1.0830    3.4058 H       1  UNL1        0.0476
     58 H          -6.5830   -0.6465    0.0896 H       1  UNL1        0.0452
     59 H          -6.6031   -1.9198    1.3910 H       1  UNL1        0.0452
     60 H          -8.8274   -2.1086    1.3720 H       1  UNL1        0.0606
     61 H          -7.9421   -2.1908   -1.0246 H       1  UNL1        0.0255
     62 H          -8.7333   -0.5664   -1.2610 H       1  UNL1        0.0255
     63 H          -9.6912   -1.9995   -0.8056 H       1  UNL1        0.0255
     64 H          -8.8784   -1.0931    3.0136 H       1  UNL1        0.0606
     65 H         -10.1848    1.6841    2.9741 H       1  UNL1        0.0255
     66 H         -10.2055    0.4950    4.3785 H       1  UNL1        0.0255
     67 H         -11.1289    0.1781    2.8764 H       1  UNL1        0.0255
     68 H          -7.8756    1.7665    2.5069 H       1  UNL1        0.0452
     69 H          -7.4559    0.6805    3.8465 H       1  UNL1        0.0452
     70 H          -4.0008    1.8749    2.1600 H       1  UNL1        0.0621
     71 H          -1.8865    1.8825    0.8640 H       1  UNL1        0.0624
     72 H           3.1867   -3.0328   -3.3475 H       1  UNL1        0.1889
     73 H           4.9064   -0.8695   -3.7314 H       1  UNL1        0.0642
     74 H           9.0662    3.8657   -1.2432 H       1  UNL1        0.1548
@<TRIPOS>BOND
     1     1     2    1
     2     2     3    1
     3     3     4   ar
     4     4     5   ar
     5     5     6   ar
     6     6     7   ar
     7     7     8   ar
     8     7     9    1
     9     9    10    1
    10    10    11    1
    11    11    12    1
    12    12    13   ar
    13    13    14   ar
    14    14    15   ar
    15    15    16   ar
    16    16    17    1
    17    17    18    2
    18    18    19    1
    19    19    20   ar
    20    20    21   ar
    21    21    22   ar
    22    22    23    1
    23    23    24    1
    24    24    25    1
    25    25    26    1
    26    26    27    1
    27    26    28    1
    28    28    29    1
    29    29    30    1
    30    29    31    1
    31    22    32   ar
    32    32    33   ar
    33    16    34   ar
    34    34    35   ar
    35    35    36   ar
    36    36    37   ar
    37     9    38    1
    38    38    39    2
    39    38    40   am
    40     8     3   ar
    41    11     9    1
    42    37    12   ar
    43    40     6    1
    44    36    15   ar
    45    33    19   ar
    46    31    24    1
    47     1    41    1
    48     1    42    1
    49     1    43    1
    50     4    44    1
    51     5    45    1
    52     8    46    1
    53    10    47    1
    54    10    48    1
    55    11    49    1
    56    13    50    1
    57    14    51    1
    58    17    52    1
    59    18    53    1
    60    20    54    1
    61    21    55    1
    62    23    56    1
    63    23    57    1
    64    25    58    1
    65    25    59    1
    66    26    60    1
    67    27    61    1
    68    27    62    1
    69    27    63    1
    70    29    64    1
    71    30    65    1
    72    30    66    1
    73    30    67    1
    74    31    68    1
    75    31    69    1
    76    32    70    1
    77    33    71    1
    78    35    72    1
    79    37    73    1
    80    40    74    1
