@<TRIPOS>MOLECULE
*****
 52 54 0 0 0
SMALL
GASTEIGER

@<TRIPOS>ATOM
      1 C          -0.7259   -3.6119    0.3831 C.3     1  UNL1       -0.0585
      2 C          -0.4690   -2.6072   -0.7583 C.3     1  UNL1       -0.0183
      3 C          -0.9489   -3.2711   -2.0312 C.3     1  UNL1       -0.0585
      4 C          -1.3477   -1.4481   -0.4363 C.ar    1  UNL1       -0.0056
      5 C          -2.7215   -1.6047   -0.6520 C.ar    1  UNL1        0.0334
      6 N          -3.5755   -0.6466   -0.3307 N.ar    1  UNL1       -0.2545
      7 C          -3.2166    0.5542    0.2262 C.ar    1  UNL1        0.0755
      8 C          -4.2612    1.4994    0.5229 C.ar    1  UNL1        0.0369
      9 C          -5.5891    1.1473    0.2283 C.ar    1  UNL1       -0.0314
     10 C          -6.6624    1.9614    0.4652 C.ar    1  UNL1        0.0418
     11 CL         -8.2688    1.4302    0.0633 Cl      1  UNL1       -0.0835
     12 C          -6.4725    3.1926    1.0178 C.ar    1  UNL1       -0.0406
     13 C          -5.2010    3.6017    1.3310 C.ar    1  UNL1       -0.0244
     14 C          -4.1143    2.7435    1.0765 C.ar    1  UNL1        0.1326
     15 F          -2.8810    3.1753    1.3954 F       1  UNL1       -0.2048
     16 C          -1.8844    0.7330    0.4456 C.ar    1  UNL1       -0.0141
     17 C          -0.9601   -0.2742    0.1093 C.ar    1  UNL1        0.0383
     18 N           0.4196   -0.0169    0.3805 N.pl3   1  UNL1       -0.3135
     19 C           1.2978    0.1258   -0.7179 C.ar    1  UNL1        0.0465
     20 C           0.7947    0.1011   -2.0189 C.ar    1  UNL1       -0.0217
     21 C           1.5528    0.2295   -3.1312 C.ar    1  UNL1        0.0293
     22 N           2.8689    0.3907   -2.9809 N.ar    1  UNL1       -0.2624
     23 C           3.4018    0.4206   -1.7348 C.ar    1  UNL1        0.0415
     24 C           2.6675    0.2937   -0.5759 C.ar    1  UNL1        0.0758
     25 C           3.3012    0.3253    0.7253 C.2     1  UNL1        0.2477
     26 O           2.7051    0.1906    1.8270 O.2     1  UNL1       -0.2701
     27 N           4.7101    0.5206    0.8532 N.am    1  UNL1       -0.3027
     28 C           5.3127    0.5460    2.1874 C.3     1  UNL1        0.0882
     29 C           6.7626    0.7598    2.0380 C.2     1  UNL1        0.2277
     30 N           7.3234    0.8983    0.7505 N.am    1  UNL1       -0.3280
     31 O           7.5274    0.8238    3.0317 O.2     1  UNL1       -0.2743
     32 H          -0.5942   -4.6580    0.0143 H       1  UNL1        0.0235
     33 H           0.0294   -3.4341    1.1613 H       1  UNL1        0.0235
     34 H          -1.7271   -3.4631    0.8239 H       1  UNL1        0.0235
     35 H           0.5870   -2.3326   -0.7731 H       1  UNL1        0.0344
     36 H          -0.0908   -3.8344   -2.4478 H       1  UNL1        0.0235
     37 H          -1.3488   -2.5253   -2.7565 H       1  UNL1        0.0235
     38 H          -1.7876   -3.9519   -1.7649 H       1  UNL1        0.0235
     39 H          -3.0718   -2.5201   -1.0850 H       1  UNL1        0.0833
     40 H          -5.7560    0.1559   -0.2182 H       1  UNL1        0.0639
     41 H          -7.2904    3.8502    1.2144 H       1  UNL1        0.0633
     42 H          -5.0032    4.5794    1.7749 H       1  UNL1        0.0647
     43 H          -1.5353    1.6514    0.8795 H       1  UNL1        0.0658
     44 H           0.6704    0.0501    1.3652 H       1  UNL1        0.1522
     45 H          -0.2816   -0.0304   -2.1512 H       1  UNL1        0.0651
     46 H           1.1146    0.2042   -4.1340 H       1  UNL1        0.0830
     47 H           4.4893    0.5537   -1.6352 H       1  UNL1        0.0838
     48 H           5.3175    0.6451    0.0390 H       1  UNL1        0.1495
     49 H           4.8143    1.3679    2.7639 H       1  UNL1        0.0558
     50 H           5.0680   -0.4209    2.6997 H       1  UNL1        0.0558
     51 H           7.1462    1.7726    0.2215 H       1  UNL1        0.1450
     52 H           7.9046    0.1567    0.3182 H       1  UNL1        0.1450
@<TRIPOS>BOND
     1     1     2    1
     2     2     3    1
     3     2     4    1
     4     4     5   ar
     5     5     6   ar
     6     6     7   ar
     7     7     8    1
     8     8     9   ar
     9     9    10   ar
    10    10    11    1
    11    10    12   ar
    12    12    13   ar
    13    13    14   ar
    14    14    15    1
    15     7    16   ar
    16    16    17   ar
    17    17    18    1
    18    18    19    1
    19    19    20   ar
    20    20    21   ar
    21    21    22   ar
    22    22    23   ar
    23    23    24   ar
    24    24    25    1
    25    25    26    2
    26    25    27   am
    27    27    28    1
    28    28    29    1
    29    29    30   am
    30    29    31    2
    31    17     4   ar
    32    24    19   ar
    33    14     8   ar
    34     1    32    1
    35     1    33    1
    36     1    34    1
    37     2    35    1
    38     3    36    1
    39     3    37    1
    40     3    38    1
    41     5    39    1
    42     9    40    1
    43    12    41    1
    44    13    42    1
    45    16    43    1
    46    18    44    1
    47    20    45    1
    48    21    46    1
    49    23    47    1
    50    27    48    1
    51    28    49    1
    52    28    50    1
    53    30    51    1
    54    30    52    1
