
     RDKit          3D

 64 68  0  0  0  0  0  0  0  0999 V2000
    8.9205    1.0826    0.1717 C   0  0  0  0  0  0  0  0  0  0  0  0
    8.3579    0.1588   -0.7700 N   0  0  0  0  0  0  0  0  0  0  0  0
    7.6769    0.7750   -1.8741 C   0  0  0  0  0  0  0  0  0  0  0  0
    6.3524    1.2629   -1.3849 C   0  0  0  0  0  0  0  0  0  0  0  0
    5.5681    0.1690   -0.8064 N   0  0  0  0  0  0  0  0  0  0  0  0
    4.2098    0.4211   -0.4652 C   0  0  0  0  0  0  0  0  0  0  0  0
    3.7127    1.7268   -0.5673 C   0  0  0  0  0  0  0  0  0  0  0  0
    2.4060    2.0276   -0.2477 C   0  0  0  0  0  0  0  0  0  0  0  0
    1.5785    1.0170    0.1801 C   0  0  0  0  0  0  0  0  0  0  0  0
    0.2351    1.2495    0.5400 N   0  0  0  0  0  0  0  0  0  0  0  0
   -0.6527    0.2190    0.9605 C   0  0  0  0  0  0  0  0  0  0  0  0
   -0.3985   -0.5173    2.0689 N   0  0  0  0  0  0  0  0  0  0  0  0
   -1.2044   -1.4915    2.5086 C   0  0  0  0  0  0  0  0  0  0  0  0
   -2.3524   -1.7490    1.7845 C   0  0  0  0  0  0  0  0  0  0  0  0
   -3.3528   -2.6568    1.9733 C   0  0  0  0  0  0  0  0  0  0  0  0
   -4.2551   -2.4513    0.9196 C   0  0  0  0  0  0  0  0  0  0  0  0
   -3.7994   -1.4390    0.1199 C   0  0  0  0  0  0  0  0  0  0  0  0
   -4.3886   -0.8514   -1.0596 C   0  0  0  0  0  0  0  0  0  0  0  0
   -3.6409   -0.7069   -2.2426 C   0  0  0  0  0  0  0  0  0  0  0  0
   -4.1879   -0.1045   -3.3546 C   0  0  0  0  0  0  0  0  0  0  0  0
   -5.4842    0.3780   -3.3512 C   0  0  0  0  0  0  0  0  0  0  0  0
   -6.2176    0.2401   -2.2011 C   0  0  0  0  0  0  0  0  0  0  0  0
   -5.6581   -0.3761   -1.0638 C   0  0  0  0  0  0  0  0  0  0  0  0
   -6.4974   -0.4680    0.0657 N   0  0  0  0  0  0  0  0  0  0  0  0
   -7.4170   -1.5487    0.3286 C   0  0  0  0  0  0  0  0  0  0  0  0
   -6.4604    0.8341    1.2029 S   0  0  0  0  0  6  0  0  0  0  0  0
   -6.9787    2.3538    0.4166 C   0  0  0  0  0  0  0  0  0  0  0  0
   -7.3673    0.5882    2.3667 O   0  0  0  0  0  0  0  0  0  0  0  0
   -5.0680    1.0776    1.7112 O   0  0  0  0  0  0  0  0  0  0  0  0
   -2.6152   -1.0248    0.6833 N   0  0  0  0  0  0  0  0  0  0  0  0
   -1.7860   -0.0732    0.2911 N   0  0  0  0  0  0  0  0  0  0  0  0
    2.0549   -0.2764    0.2853 C   0  0  0  0  0  0  0  0  0  0  0  0
    3.3608   -0.5790   -0.0338 C   0  0  0  0  0  0  0  0  0  0  0  0
    6.2235   -1.0826   -0.6158 C   0  0  0  0  0  0  0  0  0  0  0  0
    7.6694   -0.9451   -0.1818 C   0  0  0  0  0  0  0  0  0  0  0  0
   10.0199    0.9296    0.2655 H   0  0  0  0  0  0  0  0  0  0  0  0
    8.7673    2.1192   -0.1438 H   0  0  0  0  0  0  0  0  0  0  0  0
    8.4824    0.9659    1.2004 H   0  0  0  0  0  0  0  0  0  0  0  0
    8.2744    1.6585   -2.1762 H   0  0  0  0  0  0  0  0  0  0  0  0
    7.5534    0.0318   -2.6598 H   0  0  0  0  0  0  0  0  0  0  0  0
    5.7483    1.7479   -2.1998 H   0  0  0  0  0  0  0  0  0  0  0  0
    6.4660    2.0211   -0.5851 H   0  0  0  0  0  0  0  0  0  0  0  0
    4.3806    2.5267   -0.9091 H   0  0  0  0  0  0  0  0  0  0  0  0
    2.0166    3.0488   -0.3282 H   0  0  0  0  0  0  0  0  0  0  0  0
   -0.1327    2.2165    0.4988 H   0  0  0  0  0  0  0  0  0  0  0  0
   -0.9281   -2.0274    3.3967 H   0  0  0  0  0  0  0  0  0  0  0  0
   -3.4172   -3.3709    2.7685 H   0  0  0  0  0  0  0  0  0  0  0  0
   -5.1347   -3.0483    0.8202 H   0  0  0  0  0  0  0  0  0  0  0  0
   -2.6346   -1.0969   -2.2030 H   0  0  0  0  0  0  0  0  0  0  0  0
   -3.5697   -0.0125   -4.2573 H   0  0  0  0  0  0  0  0  0  0  0  0
   -5.8406    0.8374   -4.2623 H   0  0  0  0  0  0  0  0  0  0  0  0
   -7.2326    0.6109   -2.1784 H   0  0  0  0  0  0  0  0  0  0  0  0
   -7.2598   -2.4245   -0.3115 H   0  0  0  0  0  0  0  0  0  0  0  0
   -8.4799   -1.2232    0.3052 H   0  0  0  0  0  0  0  0  0  0  0  0
   -7.2282   -1.8848    1.3839 H   0  0  0  0  0  0  0  0  0  0  0  0
   -6.5184    2.3638   -0.6007 H   0  0  0  0  0  0  0  0  0  0  0  0
   -6.6266    3.2333    0.9857 H   0  0  0  0  0  0  0  0  0  0  0  0
   -8.0890    2.3871    0.3180 H   0  0  0  0  0  0  0  0  0  0  0  0
    1.4019   -1.0946    0.6261 H   0  0  0  0  0  0  0  0  0  0  0  0
    3.7064   -1.6210    0.0589 H   0  0  0  0  0  0  0  0  0  0  0  0
    5.6972   -1.6764    0.1742 H   0  0  0  0  0  0  0  0  0  0  0  0
    6.1611   -1.6742   -1.5550 H   0  0  0  0  0  0  0  0  0  0  0  0
    8.1859   -1.8809   -0.4442 H   0  0  0  0  0  0  0  0  0  0  0  0
    7.6870   -0.9026    0.9411 H   0  0  0  0  0  0  0  0  0  0  0  0
  1  2  1  0
  2  3  1  0
  3  4  1  0
  4  5  1  0
  5  6  1  0
  6  7  2  0
  7  8  1  0
  8  9  2  0
  9 10  1  0
 10 11  1  0
 11 12  1  0
 12 13  2  0
 13 14  1  0
 14 15  2  0
 15 16  1  0
 16 17  2  0
 17 18  1  0
 18 19  2  0
 19 20  1  0
 20 21  2  0
 21 22  1  0
 22 23  2  0
 23 24  1  0
 24 25  1  0
 24 26  1  0
 26 27  1  0
 26 28  2  0
 26 29  2  0
 17 30  1  0
 30 31  1  0
  9 32  1  0
 32 33  2  0
  5 34  1  0
 34 35  1  0
 35  2  1  0
 33  6  1  0
 31 11  2  0
 30 14  1  0
 23 18  1  0
  1 36  1  0
  1 37  1  0
  1 38  1  0
  3 39  1  0
  3 40  1  0
  4 41  1  0
  4 42  1  0
  7 43  1  0
  8 44  1  0
 10 45  1  0
 13 46  1  0
 15 47  1  0
 16 48  1  0
 19 49  1  0
 20 50  1  0
 21 51  1  0
 22 52  1  0
 25 53  1  0
 25 54  1  0
 25 55  1  0
 27 56  1  0
 27 57  1  0
 27 58  1  0
 32 59  1  0
 33 60  1  0
 34 61  1  0
 34 62  1  0
 35 63  1  0
 35 64  1  0
M  END
$$$$
