@<TRIPOS>MOLECULE
*****
 64 68 0 0 0
SMALL
GASTEIGER

@<TRIPOS>ATOM
      1 C           8.9205    1.0826    0.1717 C.3     1  UNL1       -0.0126
      2 N           8.3579    0.1588   -0.7700 N.3     1  UNL1       -0.3024
      3 C           7.6769    0.7750   -1.8741 C.3     1  UNL1        0.0144
      4 C           6.3524    1.2629   -1.3849 C.3     1  UNL1        0.0250
      5 N           5.5681    0.1690   -0.8064 N.pl3   1  UNL1       -0.3275
      6 C           4.2098    0.4211   -0.4652 C.ar    1  UNL1        0.0299
      7 C           3.7127    1.7268   -0.5673 C.ar    1  UNL1       -0.0389
      8 C           2.4060    2.0276   -0.2477 C.ar    1  UNL1       -0.0387
      9 C           1.5785    1.0170    0.1801 C.ar    1  UNL1        0.0337
     10 N           0.2351    1.2495    0.5400 N.pl3   1  UNL1       -0.2825
     11 C          -0.6527    0.2190    0.9605 C.ar    1  UNL1        0.2376
     12 N          -0.3985   -0.5173    2.0689 N.ar    1  UNL1       -0.2194
     13 C          -1.2044   -1.4915    2.5086 C.ar    1  UNL1        0.0566
     14 C          -2.3524   -1.7490    1.7845 C.ar    1  UNL1        0.0843
     15 C          -3.3528   -2.6568    1.9733 C.ar    1  UNL1       -0.0327
     16 C          -4.2551   -2.4513    0.9196 C.ar    1  UNL1       -0.0336
     17 C          -3.7994   -1.4390    0.1199 C.ar    1  UNL1        0.0752
     18 C          -4.3886   -0.8514   -1.0596 C.ar    1  UNL1        0.0230
     19 C          -3.6409   -0.7069   -2.2426 C.ar    1  UNL1       -0.0507
     20 C          -4.1879   -0.1045   -3.3546 C.ar    1  UNL1       -0.0610
     21 C          -5.4842    0.3780   -3.3512 C.ar    1  UNL1       -0.0599
     22 C          -6.2176    0.2401   -2.2011 C.ar    1  UNL1       -0.0385
     23 C          -5.6581   -0.3761   -1.0638 C.ar    1  UNL1        0.0597
     24 N          -6.4974   -0.4680    0.0657 N.pl3   1  UNL1       -0.2100
     25 C          -7.4170   -1.5487    0.3286 C.3     1  UNL1        0.0232
     26 S          -6.4604    0.8341    1.2029 S.O2    1  UNL1        0.0424
     27 C          -6.9787    2.3538    0.4166 C.3     1  UNL1        0.0738
     28 O          -7.3673    0.5882    2.3667 O.2     1  UNL1       -0.1553
     29 O          -5.0680    1.0776    1.7112 O.2     1  UNL1       -0.1553
     30 N          -2.6152   -1.0248    0.6833 N.ar    1  UNL1       -0.2274
     31 N          -1.7860   -0.0732    0.2911 N.ar    1  UNL1       -0.1295
     32 C           2.0549   -0.2764    0.2853 C.ar    1  UNL1       -0.0387
     33 C           3.3608   -0.5790   -0.0338 C.ar    1  UNL1       -0.0389
     34 C           6.2235   -1.0826   -0.6158 C.3     1  UNL1        0.0250
     35 C           7.6694   -0.9451   -0.1818 C.3     1  UNL1        0.0144
     36 H          10.0199    0.9296    0.2655 H       1  UNL1        0.0391
     37 H           8.7673    2.1192   -0.1438 H       1  UNL1        0.0391
     38 H           8.4824    0.9659    1.2004 H       1  UNL1        0.0391
     39 H           8.2744    1.6585   -2.1762 H       1  UNL1        0.0442
     40 H           7.5534    0.0318   -2.6598 H       1  UNL1        0.0442
     41 H           5.7483    1.7479   -2.1998 H       1  UNL1        0.0476
     42 H           6.4660    2.0211   -0.5851 H       1  UNL1        0.0476
     43 H           4.3806    2.5267   -0.9091 H       1  UNL1        0.0637
     44 H           2.0166    3.0488   -0.3282 H       1  UNL1        0.0637
     45 H          -0.1327    2.2165    0.4988 H       1  UNL1        0.1551
     46 H          -0.9281   -2.0274    3.3967 H       1  UNL1        0.0852
     47 H          -3.4172   -3.3709    2.7685 H       1  UNL1        0.0640
     48 H          -5.1347   -3.0483    0.8202 H       1  UNL1        0.0640
     49 H          -2.6346   -1.0969   -2.2030 H       1  UNL1        0.0625
     50 H          -3.5697   -0.0125   -4.2573 H       1  UNL1        0.0618
     51 H          -5.8406    0.8374   -4.2623 H       1  UNL1        0.0618
     52 H          -7.2326    0.6109   -2.1784 H       1  UNL1        0.0637
     53 H          -7.2598   -2.4245   -0.3115 H       1  UNL1        0.0446
     54 H          -8.4799   -1.2232    0.3052 H       1  UNL1        0.0446
     55 H          -7.2282   -1.8848    1.3839 H       1  UNL1        0.0446
     56 H          -6.5184    2.3638   -0.6007 H       1  UNL1        0.0482
     57 H          -6.6266    3.2333    0.9857 H       1  UNL1        0.0482
     58 H          -8.0890    2.3871    0.3180 H       1  UNL1        0.0482
     59 H           1.4019   -1.0946    0.6261 H       1  UNL1        0.0637
     60 H           3.7064   -1.6210    0.0589 H       1  UNL1        0.0637
     61 H           5.6972   -1.6764    0.1742 H       1  UNL1        0.0476
     62 H           6.1611   -1.6742   -1.5550 H       1  UNL1        0.0476
     63 H           8.1859   -1.8809   -0.4442 H       1  UNL1        0.0442
     64 H           7.6870   -0.9026    0.9411 H       1  UNL1        0.0442
@<TRIPOS>BOND
     1     1     2    1
     2     2     3    1
     3     3     4    1
     4     4     5    1
     5     5     6    1
     6     6     7   ar
     7     7     8   ar
     8     8     9   ar
     9     9    10    1
    10    10    11    1
    11    11    12   ar
    12    12    13   ar
    13    13    14   ar
    14    14    15   ar
    15    15    16   ar
    16    16    17   ar
    17    17    18    1
    18    18    19   ar
    19    19    20   ar
    20    20    21   ar
    21    21    22   ar
    22    22    23   ar
    23    23    24    1
    24    24    25    1
    25    24    26    1
    26    26    27    1
    27    26    28    2
    28    26    29    2
    29    17    30   ar
    30    30    31   ar
    31     9    32   ar
    32    32    33   ar
    33     5    34    1
    34    34    35    1
    35    35     2    1
    36    33     6   ar
    37    31    11   ar
    38    30    14   ar
    39    23    18   ar
    40     1    36    1
    41     1    37    1
    42     1    38    1
    43     3    39    1
    44     3    40    1
    45     4    41    1
    46     4    42    1
    47     7    43    1
    48     8    44    1
    49    10    45    1
    50    13    46    1
    51    15    47    1
    52    16    48    1
    53    19    49    1
    54    20    50    1
    55    21    51    1
    56    22    52    1
    57    25    53    1
    58    25    54    1
    59    25    55    1
    60    27    56    1
    61    27    57    1
    62    27    58    1
    63    32    59    1
    64    33    60    1
    65    34    61    1
    66    34    62    1
    67    35    63    1
    68    35    64    1
