@<TRIPOS>MOLECULE
*****
 44 48 0 0 0
SMALL
GASTEIGER

@<TRIPOS>ATOM
      1 C          -0.9392   -0.8736    0.5988 C.ar    1  UNL1       -0.0522
      2 C          -2.2952   -0.8974    0.7697 C.ar    1  UNL1       -0.0401
      3 C          -3.0170    0.2351    0.3721 C.ar    1  UNL1        0.0298
      4 N          -4.4270    0.1688    0.5562 N.pl3   1  UNL1       -0.3255
      5 C          -5.0662   -1.1074    0.8913 C.3     1  UNL1        0.0357
      6 C          -6.5346   -0.9084    0.5758 C.3     1  UNL1        0.0634
      7 O          -6.7448   -0.3077   -0.6599 O.3     1  UNL1       -0.3767
      8 C          -6.2552    0.9939   -0.7054 C.3     1  UNL1        0.0634
      9 C          -5.3198    1.2826    0.4475 C.3     1  UNL1        0.0357
     10 C          -2.3623    1.3208   -0.1686 C.ar    1  UNL1       -0.0401
     11 C          -0.9711    1.2865   -0.3188 C.ar    1  UNL1       -0.0522
     12 C          -0.2605    0.1794    0.0692 C.ar    1  UNL1       -0.0149
     13 C           1.1937    0.1365   -0.0870 C.ar    1  UNL1        0.0184
     14 C           1.9394   -0.5813    0.8287 C.ar    1  UNL1        0.0391
     15 N           3.2786   -0.6489    0.7238 N.ar    1  UNL1       -0.2350
     16 C           3.8852    0.0027   -0.3010 C.ar    1  UNL1        0.1632
     17 C           5.2356    0.0784   -0.6133 C.ar    1  UNL1        0.0489
     18 C           6.3479   -0.5415    0.1082 C.ar    1  UNL1        0.0244
     19 C           6.4598   -1.8218    0.6095 C.ar    1  UNL1        0.0570
     20 N           7.6573   -1.9402    1.1930 N.ar    1  UNL1       -0.1817
     21 N           8.3187   -0.8046    1.0924 N.ar    1  UNL1       -0.2841
     22 C           7.5377    0.0801    0.4277 C.ar    1  UNL1        0.0302
     23 C           5.2839    0.8676   -1.7514 C.ar    1  UNL1        0.0597
     24 N           4.0284    1.2168   -2.0622 N.ar    1  UNL1       -0.1727
     25 N           3.1625    0.7041   -1.1967 N.ar    1  UNL1       -0.2206
     26 C           1.8228    0.7927   -1.1218 C.ar    1  UNL1        0.0406
     27 H          -0.3802   -1.7530    0.9075 H       1  UNL1        0.0624
     28 H          -2.8056   -1.7701    1.2050 H       1  UNL1        0.0636
     29 H          -4.6216   -1.9269    0.3296 H       1  UNL1        0.0486
     30 H          -4.9734   -1.2219    1.9868 H       1  UNL1        0.0486
     31 H          -7.0673   -0.3987    1.4039 H       1  UNL1        0.0575
     32 H          -6.9846   -1.9298    0.5005 H       1  UNL1        0.0575
     33 H          -7.0256    1.7664   -0.7053 H       1  UNL1        0.0575
     34 H          -5.6697    1.0926   -1.6455 H       1  UNL1        0.0575
     35 H          -4.7552    2.1951    0.2294 H       1  UNL1        0.0486
     36 H          -5.8835    1.4066    1.3981 H       1  UNL1        0.0486
     37 H          -2.9228    2.1972   -0.4802 H       1  UNL1        0.0636
     38 H          -0.4779    2.1649   -0.7517 H       1  UNL1        0.0624
     39 H           1.4042   -1.0932    1.6428 H       1  UNL1        0.0837
     40 H           5.6835   -2.5684    0.5209 H       1  UNL1        0.0854
     41 H           9.2772   -0.6420    1.4690 H       1  UNL1        0.1882
     42 H           7.8157    1.0960    0.1955 H       1  UNL1        0.0830
     43 H           6.2119    1.1273   -2.2634 H       1  UNL1        0.0855
     44 H           1.2162    1.3444   -1.8207 H       1  UNL1        0.0837
@<TRIPOS>BOND
     1     1     2   ar
     2     2     3   ar
     3     3     4    1
     4     4     5    1
     5     5     6    1
     6     6     7    1
     7     7     8    1
     8     8     9    1
     9     3    10   ar
    10    10    11   ar
    11    11    12   ar
    12    12    13    1
    13    13    14   ar
    14    14    15   ar
    15    15    16   ar
    16    16    17   ar
    17    17    18    1
    18    18    19   ar
    19    19    20   ar
    20    20    21   ar
    21    21    22   ar
    22    17    23   ar
    23    23    24   ar
    24    24    25   ar
    25    25    26   ar
    26    12     1   ar
    27    26    13   ar
    28     9     4    1
    29    25    16   ar
    30    22    18   ar
    31     1    27    1
    32     2    28    1
    33     5    29    1
    34     5    30    1
    35     6    31    1
    36     6    32    1
    37     8    33    1
    38     8    34    1
    39     9    35    1
    40     9    36    1
    41    10    37    1
    42    11    38    1
    43    14    39    1
    44    19    40    1
    45    21    41    1
    46    22    42    1
    47    23    43    1
    48    26    44    1
