@<TRIPOS>MOLECULE
*****
 83 87 0 0 0
SMALL
GASTEIGER

@<TRIPOS>ATOM
      1 C           6.3013   -0.4662    2.0252 C.3     1  UNL1        0.0124
      2 C           6.2538   -0.9099    0.6436 C.2     1  UNL1        0.2129
      3 O           7.2399   -1.6407    0.2249 O.2     1  UNL1       -0.2759
      4 N           5.2481   -0.6307   -0.2923 N.am    1  UNL1       -0.2949
      5 C           5.4302   -1.2122   -1.6393 C.3     1  UNL1        0.0040
      6 C           4.0794    0.1692   -0.0054 C.3     1  UNL1        0.0645
      7 C           4.4814    1.5749    0.1918 C.ar    1  UNL1       -0.0239
      8 C           4.0744    2.3257    1.2747 C.ar    1  UNL1       -0.0565
      9 C           4.4521    3.6566    1.4483 C.ar    1  UNL1       -0.0614
     10 C           5.2531    4.2553    0.5253 C.ar    1  UNL1       -0.0617
     11 C           5.6789    3.5383   -0.5675 C.ar    1  UNL1       -0.0614
     12 C           5.2901    2.2273   -0.7125 C.ar    1  UNL1       -0.0565
     13 C           3.2998   -0.4363    1.1009 C.3     1  UNL1       -0.0144
     14 C           1.8303   -0.1550    1.1003 C.3     1  UNL1        0.0011
     15 N           1.1592   -0.1980   -0.1478 N.3     1  UNL1       -0.3022
     16 C           0.7201   -1.5168   -0.4051 C.3     1  UNL1       -0.0011
     17 C           0.0054   -1.8325   -1.6553 C.3     1  UNL1       -0.0394
     18 C          -1.2573   -1.1370   -1.9612 C.3     1  UNL1       -0.0408
     19 C          -2.3667   -1.2881   -0.9210 C.3     1  UNL1        0.0116
     20 C          -2.7104   -2.6819   -0.6714 C.ar    1  UNL1       -0.0382
     21 C          -2.6519   -3.5617   -1.7306 C.ar    1  UNL1       -0.0565
     22 C          -2.9568   -4.8862   -1.5026 C.ar    1  UNL1       -0.0417
     23 C          -3.3173   -5.3443   -0.2417 C.ar    1  UNL1        0.0593
     24 CL         -3.7093   -7.0415    0.0655 Cl      1  UNL1       -0.0820
     25 C          -3.3625   -4.4244    0.7937 C.ar    1  UNL1        0.0595
     26 CL         -3.8113   -4.9412    2.4263 Cl      1  UNL1       -0.0820
     27 C          -3.0660   -3.0970    0.6068 C.ar    1  UNL1       -0.0382
     28 C          -3.6063   -0.7290   -1.7014 C.3     1  UNL1       -0.0405
     29 C          -4.8138   -1.0380   -0.8570 C.3     1  UNL1       -0.0363
     30 C          -4.7005   -0.1662    0.4057 C.3     1  UNL1        0.0150
     31 N          -3.4106    0.4692    0.4399 N.am    1  UNL1       -0.2967
     32 C          -3.3300    1.8680    0.6401 C.2     1  UNL1        0.2466
     33 O          -2.1847    2.4009    0.6730 O.2     1  UNL1       -0.2700
     34 C          -4.4771    2.7243    0.8080 C.ar    1  UNL1        0.0369
     35 C          -4.8542    3.6234   -0.1916 C.ar    1  UNL1       -0.0496
     36 C          -5.9434    4.4304   -0.0206 C.ar    1  UNL1       -0.0610
     37 C          -6.6964    4.3843    1.1307 C.ar    1  UNL1       -0.0617
     38 C          -6.3078    3.4891    2.1098 C.ar    1  UNL1       -0.0610
     39 C          -5.2089    2.6549    1.9708 C.ar    1  UNL1       -0.0496
     40 C          -2.2234   -0.3787    0.2408 C.3     1  UNL1        0.0246
     41 C           1.8453    0.4628   -1.1641 C.3     1  UNL1        0.0011
     42 C           3.2890    0.1545   -1.3192 C.3     1  UNL1       -0.0144
     43 H           7.3713   -0.5865    2.3843 H       1  UNL1        0.0323
     44 H           5.9681    0.5622    2.1793 H       1  UNL1        0.0323
     45 H           5.7000   -1.1278    2.7051 H       1  UNL1        0.0323
     46 H           5.2153   -0.4884   -2.4393 H       1  UNL1        0.0429
     47 H           6.5121   -1.4678   -1.7334 H       1  UNL1        0.0429
     48 H           4.8906   -2.1811   -1.7319 H       1  UNL1        0.0429
     49 H           3.4559    1.9299    2.0496 H       1  UNL1        0.0621
     50 H           4.1159    4.2181    2.3071 H       1  UNL1        0.0618
     51 H           5.5607    5.3018    0.6428 H       1  UNL1        0.0618
     52 H           6.3187    4.0203   -1.3095 H       1  UNL1        0.0618
     53 H           5.6284    1.6712   -1.5761 H       1  UNL1        0.0621
     54 H           3.4425   -1.5522    1.1239 H       1  UNL1        0.0302
     55 H           3.6881   -0.0723    2.0703 H       1  UNL1        0.0302
     56 H           1.3742   -0.9910    1.7261 H       1  UNL1        0.0427
     57 H           1.5055    0.7534    1.6309 H       1  UNL1        0.0427
     58 H           1.6454   -2.1894   -0.3378 H       1  UNL1        0.0426
     59 H           0.1272   -1.9228    0.5023 H       1  UNL1        0.0426
     60 H           0.7204   -1.6166   -2.5089 H       1  UNL1        0.0278
     61 H          -0.0898   -2.9586   -1.7207 H       1  UNL1        0.0278
     62 H          -1.0341   -0.0262   -1.9701 H       1  UNL1        0.0275
     63 H          -1.6271   -1.3444   -2.9765 H       1  UNL1        0.0275
     64 H          -2.3780   -3.2513   -2.7229 H       1  UNL1        0.0621
     65 H          -2.9221   -5.6208   -2.3151 H       1  UNL1        0.0633
     66 H          -3.1009   -2.3963    1.4371 H       1  UNL1        0.0635
     67 H          -3.4598    0.3558   -1.7053 H       1  UNL1        0.0275
     68 H          -3.6513   -1.1912   -2.6874 H       1  UNL1        0.0275
     69 H          -5.7293   -0.7519   -1.4303 H       1  UNL1        0.0281
     70 H          -4.9193   -2.0684   -0.5315 H       1  UNL1        0.0281
     71 H          -4.8303   -0.7821    1.3230 H       1  UNL1        0.0465
     72 H          -5.5386    0.5288    0.3861 H       1  UNL1        0.0465
     73 H          -4.2319    3.6303   -1.1029 H       1  UNL1        0.0625
     74 H          -6.1752    5.1031   -0.8518 H       1  UNL1        0.0618
     75 H          -7.5677    5.0382    1.2515 H       1  UNL1        0.0618
     76 H          -6.8833    3.4321    3.0380 H       1  UNL1        0.0618
     77 H          -4.9196    1.9625    2.7522 H       1  UNL1        0.0625
     78 H          -1.8712   -0.8057    1.1759 H       1  UNL1        0.0473
     79 H          -1.4383    0.3838   -0.0654 H       1  UNL1        0.0473
     80 H           1.6840    1.5897   -1.0281 H       1  UNL1        0.0427
     81 H           1.3773    0.2154   -2.1671 H       1  UNL1        0.0427
     82 H           3.3568   -0.8625   -1.7852 H       1  UNL1        0.0302
     83 H           3.7441    0.8631   -2.0337 H       1  UNL1        0.0302
@<TRIPOS>BOND
     1     1     2    1
     2     2     3    2
     3     2     4   am
     4     4     5    1
     5     4     6    1
     6     6     7    1
     7     7     8   ar
     8     8     9   ar
     9     9    10   ar
    10    10    11   ar
    11    11    12   ar
    12     6    13    1
    13    13    14    1
    14    14    15    1
    15    15    16    1
    16    16    17    1
    17    17    18    1
    18    19    18    1
    19    19    20    1
    20    20    21   ar
    21    21    22   ar
    22    22    23   ar
    23    23    24    1
    24    23    25   ar
    25    25    26    1
    26    25    27   ar
    27    19    28    1
    28    28    29    1
    29    29    30    1
    30    30    31    1
    31    31    32   am
    32    32    33    2
    33    32    34    1
    34    34    35   ar
    35    35    36   ar
    36    36    37   ar
    37    37    38   ar
    38    38    39   ar
    39    31    40    1
    40    15    41    1
    41    41    42    1
    42    42     6    1
    43    12     7   ar
    44    40    19    1
    45    27    20   ar
    46    39    34   ar
    47     1    43    1
    48     1    44    1
    49     1    45    1
    50     5    46    1
    51     5    47    1
    52     5    48    1
    53     8    49    1
    54     9    50    1
    55    10    51    1
    56    11    52    1
    57    12    53    1
    58    13    54    1
    59    13    55    1
    60    14    56    1
    61    14    57    1
    62    16    58    1
    63    16    59    1
    64    17    60    1
    65    17    61    1
    66    18    62    1
    67    18    63    1
    68    21    64    1
    69    22    65    1
    70    27    66    1
    71    28    67    1
    72    28    68    1
    73    29    69    1
    74    29    70    1
    75    30    71    1
    76    30    72    1
    77    35    73    1
    78    36    74    1
    79    37    75    1
    80    38    76    1
    81    39    77    1
    82    40    78    1
    83    40    79    1
    84    41    80    1
    85    41    81    1
    86    42    82    1
    87    42    83    1
