@<TRIPOS>MOLECULE
*****
 91 96 0 0 0
SMALL
GASTEIGER

@<TRIPOS>ATOM
      1 C           7.4622    4.7437    2.3393 C.3     1  UNL1        0.0790
      2 O           7.6405    3.3726    2.0586 O.3     1  UNL1       -0.4914
      3 C           6.5629    2.6656    1.5488 C.ar    1  UNL1        0.1618
      4 C           5.3544    3.2346    1.3119 C.ar    1  UNL1       -0.0123
      5 C           4.2692    2.5358    0.8015 C.ar    1  UNL1       -0.0297
      6 C           4.4339    1.2046    0.5255 C.ar    1  UNL1       -0.0150
      7 C           5.6828    0.6121    0.7695 C.ar    1  UNL1       -0.0107
      8 C           6.7566    1.2976    1.2728 C.ar    1  UNL1        0.1626
      9 O           7.9986    0.7645    1.5282 O.3     1  UNL1       -0.4857
     10 C           8.3307   -0.5533    1.3043 C.3     1  UNL1        0.0948
     11 C           8.8232   -1.2071    2.5898 C.3     1  UNL1       -0.0281
     12 C           9.5068   -0.6489    0.3191 C.3     1  UNL1       -0.0281
     13 C           3.3624    0.3126   -0.0302 C.3     1  UNL1        0.0815
     14 C           3.9064   -0.3400   -1.2674 C.ar    1  UNL1       -0.0222
     15 C           4.3685   -1.6313   -1.2224 C.ar    1  UNL1       -0.0551
     16 C           4.8813   -2.2755   -2.3388 C.ar    1  UNL1       -0.0431
     17 C           4.9382   -1.6119   -3.5501 C.ar    1  UNL1        0.0410
     18 CL          5.5711   -2.3680   -4.9863 Cl      1  UNL1       -0.0835
     19 C           4.4760   -0.3162   -3.6006 C.ar    1  UNL1       -0.0431
     20 C           3.9627    0.3124   -2.4578 C.ar    1  UNL1       -0.0551
     21 N           2.1859    1.0536   -0.4135 N.am    1  UNL1       -0.2596
     22 C           0.9829    0.3549   -0.6858 C.ar    1  UNL1        0.0374
     23 C          -0.1308    1.0286   -1.1060 C.ar    1  UNL1       -0.0385
     24 C          -1.3279    0.3623   -1.3881 C.ar    1  UNL1       -0.0389
     25 C          -1.4554   -0.9817   -1.2624 C.ar    1  UNL1        0.0296
     26 N          -2.6089   -1.7365   -1.5431 N.pl3   1  UNL1       -0.3327
     27 C          -2.5731   -3.1655   -1.3206 C.3     1  UNL1        0.0007
     28 C          -3.7908   -1.1329   -2.0437 C.3     1  UNL1        0.0147
     29 C          -4.9702   -1.0856   -1.1468 C.3     1  UNL1       -0.0252
     30 C          -5.5163   -2.3792   -0.6695 C.3     1  UNL1       -0.0474
     31 C          -6.8022   -2.2537    0.0903 C.3     1  UNL1       -0.0370
     32 C          -6.9170   -1.0706    0.9923 C.3     1  UNL1        0.0110
     33 N          -8.2901   -0.7933    1.3466 N.3     1  UNL1       -0.2896
     34 C          -9.1441   -0.5133    0.2589 C.3     1  UNL1        0.0152
     35 C         -10.3323    0.3576    0.6048 C.3     1  UNL1        0.0244
     36 N          -9.8737    1.5706    1.2722 N.am    1  UNL1       -0.3130
     37 C          -8.8975    1.3824    2.2942 C.2     1  UNL1        0.2272
     38 O          -8.4390    2.3292    2.9768 O.2     1  UNL1       -0.2744
     39 C          -8.4359   -0.0113    2.5223 C.3     1  UNL1        0.0760
     40 C          -6.1807    0.1532    0.5276 C.3     1  UNL1       -0.0370
     41 C          -4.7827   -0.1938    0.0577 C.3     1  UNL1       -0.0474
     42 C          -0.3082   -1.6574   -0.8302 C.ar    1  UNL1       -0.0389
     43 C           0.8788   -1.0112   -0.5490 C.ar    1  UNL1       -0.0385
     44 C           2.2834    2.4700   -0.5112 C.2     1  UNL1        0.2249
     45 O           1.7733    3.0301   -1.5079 O.2     1  UNL1       -0.2749
     46 C           2.9888    3.2539    0.5700 C.3     1  UNL1        0.0501
     47 H           6.6928    4.8543    3.1329 H       1  UNL1        0.0660
     48 H           7.0561    5.2873    1.4397 H       1  UNL1        0.0660
     49 H           8.4365    5.2152    2.6295 H       1  UNL1        0.0660
     50 H           5.2426    4.2918    1.5370 H       1  UNL1        0.0658
     51 H           5.7902   -0.4495    0.5421 H       1  UNL1        0.0659
     52 H           7.5470   -1.2053    0.8958 H       1  UNL1        0.0727
     53 H           9.0896   -2.2456    2.3287 H       1  UNL1        0.0265
     54 H           9.7348   -0.7086    2.9766 H       1  UNL1        0.0265
     55 H           8.0613   -1.2330    3.3755 H       1  UNL1        0.0265
     56 H          10.3549   -0.0925    0.7754 H       1  UNL1        0.0265
     57 H           9.7614   -1.6964    0.1320 H       1  UNL1        0.0265
     58 H           9.2014   -0.1446   -0.6394 H       1  UNL1        0.0265
     59 H           3.1378   -0.4583    0.7254 H       1  UNL1        0.0604
     60 H           4.3153   -2.1444   -0.2623 H       1  UNL1        0.0621
     61 H           5.2340   -3.2866   -2.2568 H       1  UNL1        0.0632
     62 H           4.5053    0.2325   -4.5388 H       1  UNL1        0.0632
     63 H           3.6158    1.3199   -2.5362 H       1  UNL1        0.0621
     64 H          -0.1967    2.1011   -1.2471 H       1  UNL1        0.0637
     65 H          -2.1986    0.9350   -1.7168 H       1  UNL1        0.0637
     66 H          -3.4307   -3.7116   -1.7649 H       1  UNL1        0.0428
     67 H          -2.3923   -3.4036   -0.2727 H       1  UNL1        0.0428
     68 H          -1.6879   -3.5280   -1.9304 H       1  UNL1        0.0428
     69 H          -3.6689   -0.1119   -2.4778 H       1  UNL1        0.0466
     70 H          -4.0668   -1.7465   -2.9758 H       1  UNL1        0.0466
     71 H          -5.8047   -0.5936   -1.7362 H       1  UNL1        0.0316
     72 H          -5.7015   -3.0856   -1.5197 H       1  UNL1        0.0269
     73 H          -4.7824   -2.8589    0.0081 H       1  UNL1        0.0269
     74 H          -7.0473   -3.1983    0.6137 H       1  UNL1        0.0280
     75 H          -7.6091   -2.1360   -0.6922 H       1  UNL1        0.0280
     76 H          -6.4235   -1.3757    1.9632 H       1  UNL1        0.0463
     77 H          -9.5705   -1.4878   -0.1186 H       1  UNL1        0.0442
     78 H          -8.6600   -0.0558   -0.6248 H       1  UNL1        0.0442
     79 H         -10.7712    0.7059   -0.3750 H       1  UNL1        0.0474
     80 H         -11.0923   -0.1785    1.2040 H       1  UNL1        0.0474
     81 H         -10.2186    2.5172    1.0374 H       1  UNL1        0.1488
     82 H          -9.2174   -0.4903    3.1714 H       1  UNL1        0.0522
     83 H          -7.4906   -0.0417    3.1041 H       1  UNL1        0.0522
     84 H          -6.7327    0.6890   -0.2879 H       1  UNL1        0.0280
     85 H          -6.0541    0.9062    1.3312 H       1  UNL1        0.0280
     86 H          -4.1956    0.7026   -0.1382 H       1  UNL1        0.0269
     87 H          -4.3403   -0.8358    0.8666 H       1  UNL1        0.0269
     88 H          -0.3188   -2.7338   -0.6977 H       1  UNL1        0.0637
     89 H           1.7517   -1.5488   -0.2083 H       1  UNL1        0.0637
     90 H           2.3696    3.2905    1.4817 H       1  UNL1        0.0407
     91 H           3.1695    4.2743    0.1650 H       1  UNL1        0.0407
@<TRIPOS>BOND
     1     1     2    1
     2     2     3    1
     3     3     4   ar
     4     4     5   ar
     5     5     6   ar
     6     6     7   ar
     7     7     8   ar
     8     8     9    1
     9     9    10    1
    10    10    11    1
    11    10    12    1
    12     6    13    1
    13    13    14    1
    14    14    15   ar
    15    15    16   ar
    16    16    17   ar
    17    17    18    1
    18    17    19   ar
    19    19    20   ar
    20    13    21    1
    21    21    22    1
    22    22    23   ar
    23    23    24   ar
    24    24    25   ar
    25    25    26    1
    26    26    27    1
    27    26    28    1
    28    28    29    1
    29    29    30    1
    30    30    31    1
    31    31    32    1
    32    32    33    1
    33    33    34    1
    34    34    35    1
    35    35    36    1
    36    36    37   am
    37    37    38    2
    38    37    39    1
    39    32    40    1
    40    40    41    1
    41    25    42   ar
    42    42    43   ar
    43    21    44   am
    44    44    45    2
    45    44    46    1
    46     8     3   ar
    47    20    14   ar
    48    43    22   ar
    49    46     5    1
    50    41    29    1
    51    39    33    1
    52     1    47    1
    53     1    48    1
    54     1    49    1
    55     4    50    1
    56     7    51    1
    57    10    52    1
    58    11    53    1
    59    11    54    1
    60    11    55    1
    61    12    56    1
    62    12    57    1
    63    12    58    1
    64    13    59    1
    65    15    60    1
    66    16    61    1
    67    19    62    1
    68    20    63    1
    69    23    64    1
    70    24    65    1
    71    27    66    1
    72    27    67    1
    73    27    68    1
    74    28    69    1
    75    28    70    1
    76    29    71    1
    77    30    72    1
    78    30    73    1
    79    31    74    1
    80    31    75    1
    81    32    76    1
    82    34    77    1
    83    34    78    1
    84    35    79    1
    85    35    80    1
    86    36    81    1
    87    39    82    1
    88    39    83    1
    89    40    84    1
    90    40    85    1
    91    41    86    1
    92    41    87    1
    93    42    88    1
    94    43    89    1
    95    46    90    1
    96    46    91    1
