
     RDKit          3D

 16 16  0  0  0  0  0  0  0  0999 V2000
    2.7167   -0.3203   -0.7880 O   0  0  0  0  0  0  0  0  0  0  0  0
    2.0127   -0.1937    0.4097 C   0  0  0  0  0  0  0  0  0  0  0  0
    0.5584    0.0005    0.2023 C   0  0  0  0  0  0  0  0  0  0  0  0
   -0.0395    1.1747   -0.1362 C   0  0  0  0  0  0  0  0  0  0  0  0
    0.8047    2.2281   -0.2680 F   0  0  0  0  0  0  0  0  0  0  0  0
   -1.4044    1.2316   -0.3171 C   0  0  0  0  0  0  0  0  0  0  0  0
   -1.9164    2.4356   -0.6515 F   0  0  0  0  0  0  0  0  0  0  0  0
   -2.2220    0.1048   -0.1650 C   0  0  0  0  0  0  0  0  0  0  0  0
   -3.5541    0.1874   -0.3447 F   0  0  0  0  0  0  0  0  0  0  0  0
   -1.5960   -1.0878    0.1811 C   0  0  0  0  0  0  0  0  0  0  0  0
   -2.4201   -2.1538    0.3248 F   0  0  0  0  0  0  0  0  0  0  0  0
   -0.2306   -1.1384    0.3618 C   0  0  0  0  0  0  0  0  0  0  0  0
    0.2332   -2.3832    0.6995 F   0  0  0  0  0  0  0  0  0  0  0  0
    2.3584    0.3310   -1.4580 H   0  0  0  0  0  0  0  0  0  0  0  0
    2.4682    0.6804    0.9384 H   0  0  0  0  0  0  0  0  0  0  0  0
    2.2310   -1.0969    1.0108 H   0  0  0  0  0  0  0  0  0  0  0  0
  1  2  1  0
  2  3  1  0
  3  4  2  0
  4  5  1  0
  4  6  1  0
  6  7  1  0
  6  8  2  0
  8  9  1  0
  8 10  1  0
 10 11  1  0
 10 12  2  0
 12 13  1  0
 12  3  1  0
  1 14  1  0
  2 15  1  0
  2 16  1  0
M  END
$$$$
