
     RDKit          3D

 58 62  0  0  0  0  0  0  0  0999 V2000
    2.8844    1.2716   -3.0168 C   0  0  0  0  0  0  0  0  0  0  0  0
    2.8802    0.7778   -1.5877 C   0  0  1  0  0  0  0  0  0  0  0  0
    3.0035   -0.6062   -1.4878 O   0  0  0  0  0  0  0  0  0  0  0  0
    2.0551   -1.4562   -0.9633 C   0  0  0  0  0  0  0  0  0  0  0  0
    0.8750   -1.0368   -0.4765 N   0  0  0  0  0  0  0  0  0  0  0  0
   -0.0508   -1.8560    0.0344 C   0  0  0  0  0  0  0  0  0  0  0  0
   -1.3255   -1.3583    0.5554 C   0  0  0  0  0  0  0  0  0  0  0  0
   -2.3376   -2.1190    1.0987 C   0  0  0  0  0  0  0  0  0  0  0  0
   -3.3408   -1.2673    1.4572 N   0  0  0  0  0  0  0  0  0  0  0  0
   -3.0037   -0.0221    1.1650 N   0  0  0  0  0  0  0  0  0  0  0  0
   -3.7990    1.1843    1.3894 C   0  0  0  0  0  0  0  0  0  0  0  0
   -4.9783    0.8454    2.2693 C   0  0  0  0  0  0  0  0  0  0  0  0
   -5.8037    2.1023    2.4706 C   0  0  0  0  0  0  0  0  0  0  0  0
   -6.2457    2.6914    1.1471 C   0  0  0  0  0  0  0  0  0  0  0  0
   -5.1029    2.9389    0.2123 C   0  0  0  0  0  0  0  0  0  0  0  0
   -4.3437    1.6312    0.0571 C   0  0  0  0  0  0  0  0  0  0  0  0
   -1.7681   -0.0555    0.6096 C   0  0  0  0  0  0  0  0  0  0  0  0
    0.2458   -3.2034    0.0515 C   0  0  0  0  0  0  0  0  0  0  0  0
    1.4313   -3.7233   -0.4266 C   0  0  0  0  0  0  0  0  0  0  0  0
    1.9840   -4.9440   -0.5396 N   0  0  0  0  0  0  0  0  0  0  0  0
    3.1846   -4.8855   -1.0894 N   0  0  0  0  0  0  0  0  0  0  0  0
    4.0890   -6.0095   -1.3724 C   0  0  0  0  0  0  0  0  0  0  0  0
    3.4120   -3.5842   -1.3383 C   0  0  0  0  0  0  0  0  0  0  0  0
    2.3397   -2.8143   -0.9396 C   0  0  0  0  0  0  0  0  0  0  0  0
    3.9057    1.4679   -0.7363 C   0  0  1  0  0  0  0  0  0  0  0  0
    3.6659    2.9627   -0.6849 C   0  0  0  0  0  0  0  0  0  0  0  0
    4.2860    3.3041    0.5956 N   0  0  0  0  0  0  0  0  0  0  0  0
    4.1460    2.1953    1.4764 C   0  0  0  0  0  0  0  0  0  0  0  0
    4.3896    2.1643    2.7104 O   0  0  0  0  0  0  0  0  0  0  0  0
    3.6487    1.0180    0.7077 C   0  0  0  0  0  0  0  0  0  0  0  0
    3.9176    1.5420   -3.3251 H   0  0  0  0  0  0  0  0  0  0  0  0
    2.5553    0.4705   -3.7257 H   0  0  0  0  0  0  0  0  0  0  0  0
    2.2649    2.1735   -3.1460 H   0  0  0  0  0  0  0  0  0  0  0  0
    1.8763    1.0538   -1.1655 H   0  0  0  0  0  0  0  0  0  0  0  0
   -2.3689   -3.1915    1.2332 H   0  0  0  0  0  0  0  0  0  0  0  0
   -3.1722    1.9442    1.8826 H   0  0  0  0  0  0  0  0  0  0  0  0
   -5.5668    0.0199    1.8565 H   0  0  0  0  0  0  0  0  0  0  0  0
   -4.6138    0.5393    3.2580 H   0  0  0  0  0  0  0  0  0  0  0  0
   -5.1913    2.8125    3.0386 H   0  0  0  0  0  0  0  0  0  0  0  0
   -6.7201    1.8567    3.0438 H   0  0  0  0  0  0  0  0  0  0  0  0
   -6.9261    1.9526    0.6617 H   0  0  0  0  0  0  0  0  0  0  0  0
   -6.8288    3.6023    1.3763 H   0  0  0  0  0  0  0  0  0  0  0  0
   -4.3975    3.6928    0.5952 H   0  0  0  0  0  0  0  0  0  0  0  0
   -5.5217    3.1895   -0.7778 H   0  0  0  0  0  0  0  0  0  0  0  0
   -5.0471    0.8395   -0.2908 H   0  0  0  0  0  0  0  0  0  0  0  0
   -3.5185    1.7010   -0.6572 H   0  0  0  0  0  0  0  0  0  0  0  0
   -1.1988    0.7959    0.2565 H   0  0  0  0  0  0  0  0  0  0  0  0
   -0.4749   -3.8934    0.4551 H   0  0  0  0  0  0  0  0  0  0  0  0
    3.5454   -6.9531   -1.3614 H   0  0  0  0  0  0  0  0  0  0  0  0
    4.9385   -5.9479   -0.6681 H   0  0  0  0  0  0  0  0  0  0  0  0
    4.5289   -5.8076   -2.3925 H   0  0  0  0  0  0  0  0  0  0  0  0
    4.3084   -3.1854   -1.7887 H   0  0  0  0  0  0  0  0  0  0  0  0
    4.9388    1.3011   -1.0374 H   0  0  0  0  0  0  0  0  0  0  0  0
    2.6033    3.2279   -0.7079 H   0  0  0  0  0  0  0  0  0  0  0  0
    4.2493    3.4840   -1.4646 H   0  0  0  0  0  0  0  0  0  0  0  0
    4.7638    4.1899    0.8761 H   0  0  0  0  0  0  0  0  0  0  0  0
    2.5547    0.8870    0.8596 H   0  0  0  0  0  0  0  0  0  0  0  0
    4.1740    0.0895    0.9505 H   0  0  0  0  0  0  0  0  0  0  0  0
  1  2  1  0
  2  3  1  0
  3  4  1  0
  4  5  2  0
  5  6  1  0
  6  7  1  0
  7  8  1  0
  8  9  2  0
  9 10  1  0
 10 11  1  0
 11 12  1  0
 12 13  1  0
 13 14  1  0
 14 15  1  0
 15 16  1  0
 10 17  1  0
  6 18  2  0
 18 19  1  0
 19 20  2  0
 20 21  1  0
 21 22  1  0
 21 23  1  0
 23 24  2  0
  2 25  1  0
 25 26  1  0
 26 27  1  0
 27 28  1  0
 28 29  2  0
 28 30  1  0
 24  4  1  0
 30 25  1  0
 17  7  2  0
 24 19  1  0
 16 11  1  0
  1 31  1  0
  1 32  1  0
  1 33  1  0
  2 34  1  1
  8 35  1  0
 11 36  1  0
 12 37  1  0
 12 38  1  0
 13 39  1  0
 13 40  1  0
 14 41  1  0
 14 42  1  0
 15 43  1  0
 15 44  1  0
 16 45  1  0
 16 46  1  0
 17 47  1  0
 18 48  1  0
 22 49  1  0
 22 50  1  0
 22 51  1  0
 23 52  1  0
 25 53  1  6
 26 54  1  0
 26 55  1  0
 27 56  1  0
 30 57  1  0
 30 58  1  0
M  END
$$$$
