@<TRIPOS>MOLECULE
*****
 58 62 0 0 0
SMALL
GASTEIGER

@<TRIPOS>ATOM
      1 C           2.8844    1.2716   -3.0168 C.3     1  UNL1       -0.0274
      2 C           2.8802    0.7778   -1.5877 C.3     1  UNL1        0.1037
      3 O           3.0035   -0.6062   -1.4878 O.3     1  UNL1       -0.4725
      4 C           2.0551   -1.4562   -0.9633 C.ar    1  UNL1        0.2265
      5 N           0.8750   -1.0368   -0.4765 N.ar    1  UNL1       -0.2121
      6 C          -0.0508   -1.8560    0.0344 C.ar    1  UNL1        0.0798
      7 C          -1.3255   -1.3583    0.5554 C.ar    1  UNL1        0.0380
      8 C          -2.3376   -2.1190    1.0987 C.ar    1  UNL1        0.0586
      9 N          -3.3408   -1.2673    1.4572 N.ar    1  UNL1       -0.1787
     10 N          -3.0037   -0.0221    1.1650 N.ar    1  UNL1       -0.2678
     11 C          -3.7990    1.1843    1.3894 C.3     1  UNL1        0.0527
     12 C          -4.9783    0.8454    2.2693 C.3     1  UNL1       -0.0305
     13 C          -5.8037    2.1023    2.4706 C.3     1  UNL1       -0.0511
     14 C          -6.2457    2.6914    1.1471 C.3     1  UNL1       -0.0529
     15 C          -5.1029    2.9389    0.2123 C.3     1  UNL1       -0.0511
     16 C          -4.3437    1.6312    0.0571 C.3     1  UNL1       -0.0305
     17 C          -1.7681   -0.0555    0.6096 C.ar    1  UNL1        0.0350
     18 C           0.2458   -3.2034    0.0515 C.ar    1  UNL1       -0.0076
     19 C           1.4313   -3.7233   -0.4266 C.ar    1  UNL1        0.0999
     20 N           1.9840   -4.9440   -0.5396 N.ar    1  UNL1       -0.1712
     21 N           3.1846   -4.8855   -1.0894 N.ar    1  UNL1       -0.2732
     22 C           4.0890   -6.0095   -1.3724 C.3     1  UNL1        0.0302
     23 C           3.4120   -3.5842   -1.3383 C.ar    1  UNL1        0.0380
     24 C           2.3397   -2.8143   -0.9396 C.ar    1  UNL1        0.0812
     25 C           3.9057    1.4679   -0.7363 C.3     1  UNL1        0.0196
     26 C           3.6659    2.9627   -0.6849 C.3     1  UNL1        0.0182
     27 N           4.2860    3.3041    0.5956 N.am    1  UNL1       -0.3149
     28 C           4.1460    2.1953    1.4764 C.2     1  UNL1        0.2135
     29 O           4.3896    2.1643    2.7104 O.2     1  UNL1       -0.2758
     30 C           3.6487    1.0180    0.7077 C.3     1  UNL1        0.0315
     31 H           3.9176    1.5420   -3.3251 H       1  UNL1        0.0265
     32 H           2.5553    0.4705   -3.7257 H       1  UNL1        0.0265
     33 H           2.2649    2.1735   -3.1460 H       1  UNL1        0.0265
     34 H           1.8763    1.0538   -1.1655 H       1  UNL1        0.0734
     35 H          -2.3689   -3.1915    1.2332 H       1  UNL1        0.0854
     36 H          -3.1722    1.9442    1.8826 H       1  UNL1        0.0545
     37 H          -5.5668    0.0199    1.8565 H       1  UNL1        0.0286
     38 H          -4.6138    0.5393    3.2580 H       1  UNL1        0.0286
     39 H          -5.1913    2.8125    3.0386 H       1  UNL1        0.0266
     40 H          -6.7201    1.8567    3.0438 H       1  UNL1        0.0266
     41 H          -6.9261    1.9526    0.6617 H       1  UNL1        0.0265
     42 H          -6.8288    3.6023    1.3763 H       1  UNL1        0.0265
     43 H          -4.3975    3.6928    0.5952 H       1  UNL1        0.0266
     44 H          -5.5217    3.1895   -0.7778 H       1  UNL1        0.0266
     45 H          -5.0471    0.8395   -0.2908 H       1  UNL1        0.0286
     46 H          -3.5185    1.7010   -0.6572 H       1  UNL1        0.0286
     47 H          -1.1988    0.7959    0.2565 H       1  UNL1        0.0833
     48 H          -0.4749   -3.8934    0.4551 H       1  UNL1        0.0661
     49 H           3.5454   -6.9531   -1.3614 H       1  UNL1        0.0473
     50 H           4.9385   -5.9479   -0.6681 H       1  UNL1        0.0473
     51 H           4.5289   -5.8076   -2.3925 H       1  UNL1        0.0473
     52 H           4.3084   -3.1854   -1.7887 H       1  UNL1        0.0834
     53 H           4.9388    1.3011   -1.0374 H       1  UNL1        0.0356
     54 H           2.6033    3.2279   -0.7079 H       1  UNL1        0.0466
     55 H           4.2493    3.4840   -1.4646 H       1  UNL1        0.0466
     56 H           4.7638    4.1899    0.8761 H       1  UNL1        0.1487
     57 H           2.5547    0.8870    0.8596 H       1  UNL1        0.0363
     58 H           4.1740    0.0895    0.9505 H       1  UNL1        0.0363
@<TRIPOS>BOND
     1     1     2    1
     2     2     3    1
     3     3     4    1
     4     4     5   ar
     5     5     6   ar
     6     6     7    1
     7     7     8   ar
     8     8     9   ar
     9     9    10   ar
    10    10    11    1
    11    11    12    1
    12    12    13    1
    13    13    14    1
    14    14    15    1
    15    15    16    1
    16    10    17   ar
    17     6    18   ar
    18    18    19   ar
    19    19    20   ar
    20    20    21   ar
    21    21    22    1
    22    21    23   ar
    23    23    24   ar
    24     2    25    1
    25    25    26    1
    26    26    27    1
    27    27    28   am
    28    28    29    2
    29    28    30    1
    30    24     4   ar
    31    30    25    1
    32    17     7   ar
    33    24    19   ar
    34    16    11    1
    35     1    31    1
    36     1    32    1
    37     1    33    1
    38     2    34    1
    39     8    35    1
    40    11    36    1
    41    12    37    1
    42    12    38    1
    43    13    39    1
    44    13    40    1
    45    14    41    1
    46    14    42    1
    47    15    43    1
    48    15    44    1
    49    16    45    1
    50    16    46    1
    51    17    47    1
    52    18    48    1
    53    22    49    1
    54    22    50    1
    55    22    51    1
    56    23    52    1
    57    25    53    1
    58    26    54    1
    59    26    55    1
    60    27    56    1
    61    30    57    1
    62    30    58    1
