
     RDKit          3D

 55 57  0  0  0  0  0  0  0  0999 V2000
   -4.9813    0.6350    1.3869 C   0  0  0  0  0  0  0  0  0  0  0  0
   -4.8068    1.2564    0.0231 C   0  0  0  0  0  0  0  0  0  0  0  0
   -4.7039    0.2788   -1.0897 C   0  0  0  0  0  0  0  0  0  0  0  0
   -3.3383   -0.8212   -0.9884 S   0  0  0  0  0  6  0  0  0  0  0  0
   -3.4828   -1.6655    0.2810 O   0  0  0  0  0  0  0  0  0  0  0  0
   -3.3694   -1.8195   -2.1326 O   0  0  0  0  0  0  0  0  0  0  0  0
   -1.8773   -0.0110   -1.0339 N   0  0  0  0  0  0  0  0  0  0  0  0
   -1.5123    0.9096   -0.0592 C   0  0  0  0  0  0  0  0  0  0  0  0
    0.0006    0.7729    0.2217 C   0  0  0  0  0  0  0  0  0  0  0  0
    0.3681   -0.6484    0.3281 C   0  0  0  0  0  0  0  0  0  0  0  0
    1.7838   -0.9156    0.8020 C   0  0  0  0  0  0  0  0  0  0  0  0
    2.8751   -0.4331    0.0632 N   0  0  0  0  0  0  0  0  0  0  0  0
    3.3293    0.8688   -0.1835 C   0  0  0  0  0  0  0  0  0  0  0  0
    2.6704    1.8000    0.3825 O   0  0  0  0  0  0  0  0  0  0  0  0
    4.4587    1.2910   -1.0001 C   0  0  0  0  0  0  0  0  0  0  0  0
    5.0664    0.5681   -1.9748 C   0  0  0  0  0  0  0  0  0  0  0  0
    4.4642   -0.9927   -2.4739 Cl  0  0  0  0  0  0  0  0  0  0  0  0
    6.1702    1.0601   -2.6459 C   0  0  0  0  0  0  0  0  0  0  0  0
    6.6597    2.3045   -2.3205 C   0  0  0  0  0  0  0  0  0  0  0  0
    6.0748    3.0749   -1.3392 C   0  0  0  0  0  0  0  0  0  0  0  0
    4.9827    2.5602   -0.6912 C   0  0  0  0  0  0  0  0  0  0  0  0
    4.2639    3.5592    0.5503 Cl  0  0  0  0  0  0  0  0  0  0  0  0
   -0.4652   -1.3014    1.4035 C   0  0  0  0  0  0  0  0  0  0  0  0
   -0.4485   -2.6746    1.5704 C   0  0  0  0  0  0  0  0  0  0  0  0
   -1.2052   -3.2030    2.5960 C   0  0  0  0  0  0  0  0  0  0  0  0
   -1.9459   -2.3897    3.4183 C   0  0  0  0  0  0  0  0  0  0  0  0
   -1.9425   -1.0268    3.2279 C   0  0  0  0  0  0  0  0  0  0  0  0
   -1.1889   -0.5440    2.2122 N   0  0  0  0  0  0  0  0  0  0  0  0
    0.1476   -1.3602   -1.0125 C   0  0  0  0  0  0  0  0  0  0  0  0
   -0.8479   -0.5839   -1.8510 C   0  0  0  0  0  0  0  0  0  0  0  0
   -5.1488   -0.4831    1.3262 H   0  0  0  0  0  0  0  0  0  0  0  0
   -4.1007    0.8893    2.0036 H   0  0  0  0  0  0  0  0  0  0  0  0
   -5.8559    1.0941    1.9336 H   0  0  0  0  0  0  0  0  0  0  0  0
   -5.7213    1.9278   -0.1131 H   0  0  0  0  0  0  0  0  0  0  0  0
   -3.9691    1.9959    0.0829 H   0  0  0  0  0  0  0  0  0  0  0  0
   -4.6106    0.8881   -2.0438 H   0  0  0  0  0  0  0  0  0  0  0  0
   -5.6803   -0.2554   -1.1637 H   0  0  0  0  0  0  0  0  0  0  0  0
   -2.0419    0.9153    0.8811 H   0  0  0  0  0  0  0  0  0  0  0  0
   -1.6761    1.9573   -0.4921 H   0  0  0  0  0  0  0  0  0  0  0  0
    0.4423    1.2670   -0.6929 H   0  0  0  0  0  0  0  0  0  0  0  0
    0.1498    1.3546    1.1489 H   0  0  0  0  0  0  0  0  0  0  0  0
    1.9030   -2.0347    0.9505 H   0  0  0  0  0  0  0  0  0  0  0  0
    1.7785   -0.5511    1.8780 H   0  0  0  0  0  0  0  0  0  0  0  0
    3.5138   -1.1881   -0.3891 H   0  0  0  0  0  0  0  0  0  0  0  0
    6.6613    0.4700   -3.4347 H   0  0  0  0  0  0  0  0  0  0  0  0
    7.5265    2.6886   -2.8487 H   0  0  0  0  0  0  0  0  0  0  0  0
    6.4970    4.0475   -1.1204 H   0  0  0  0  0  0  0  0  0  0  0  0
    0.1349   -3.2765    0.9234 H   0  0  0  0  0  0  0  0  0  0  0  0
   -1.1795   -4.2865    2.7107 H   0  0  0  0  0  0  0  0  0  0  0  0
   -2.5285   -2.8500    4.2166 H   0  0  0  0  0  0  0  0  0  0  0  0
   -2.5278   -0.3577    3.8738 H   0  0  0  0  0  0  0  0  0  0  0  0
   -0.3019   -2.3389   -0.8025 H   0  0  0  0  0  0  0  0  0  0  0  0
    1.1005   -1.3858   -1.5673 H   0  0  0  0  0  0  0  0  0  0  0  0
   -1.2685   -1.2777   -2.5852 H   0  0  0  0  0  0  0  0  0  0  0  0
   -0.2956    0.2413   -2.3464 H   0  0  0  0  0  0  0  0  0  0  0  0
  1  2  1  0
  2  3  1  0
  3  4  1  0
  4  5  2  0
  4  6  2  0
  4  7  1  0
  7  8  1  0
  8  9  1  0
  9 10  1  0
 10 11  1  0
 11 12  1  0
 12 13  1  0
 13 14  2  0
 13 15  1  0
 15 16  2  0
 16 17  1  0
 16 18  1  0
 18 19  2  0
 19 20  1  0
 20 21  2  0
 21 22  1  0
 10 23  1  0
 23 24  2  0
 24 25  1  0
 25 26  2  0
 26 27  1  0
 27 28  2  0
 10 29  1  0
 29 30  1  0
 30  7  1  0
 21 15  1  0
 28 23  1  0
  1 31  1  0
  1 32  1  0
  1 33  1  0
  2 34  1  0
  2 35  1  0
  3 36  1  0
  3 37  1  0
  8 38  1  0
  8 39  1  0
  9 40  1  0
  9 41  1  0
 11 42  1  0
 11 43  1  0
 12 44  1  0
 18 45  1  0
 19 46  1  0
 20 47  1  0
 24 48  1  0
 25 49  1  0
 26 50  1  0
 27 51  1  0
 29 52  1  0
 29 53  1  0
 30 54  1  0
 30 55  1  0
M  END
$$$$
