@<TRIPOS>MOLECULE
*****
 55 57 0 0 0
SMALL
GASTEIGER

@<TRIPOS>ATOM
      1 C          -4.9813    0.6350    1.3869 C.3     1  UNL1       -0.0638
      2 C          -4.8068    1.2564    0.0231 C.3     1  UNL1       -0.0350
      3 C          -4.7039    0.2788   -1.0897 C.3     1  UNL1        0.0817
      4 S          -3.3383   -0.8212   -0.9884 S.O2    1  UNL1        0.0318
      5 O          -3.4828   -1.6655    0.2810 O.2     1  UNL1       -0.1580
      6 O          -3.3694   -1.8195   -2.1326 O.2     1  UNL1       -0.1580
      7 N          -1.8773   -0.0110   -1.0339 N.3     1  UNL1       -0.1811
      8 C          -1.5123    0.9096   -0.0592 C.3     1  UNL1        0.0210
      9 C           0.0006    0.7729    0.2217 C.3     1  UNL1       -0.0260
     10 C           0.3681   -0.6484    0.3281 C.3     1  UNL1        0.0308
     11 C           1.7838   -0.9156    0.8020 C.3     1  UNL1        0.0230
     12 N           2.8751   -0.4331    0.0632 N.am    1  UNL1       -0.3104
     13 C           3.3293    0.8688   -0.1835 C.2     1  UNL1        0.2469
     14 O           2.6704    1.8000    0.3825 O.2     1  UNL1       -0.2701
     15 C           4.4587    1.2910   -1.0001 C.ar    1  UNL1        0.0732
     16 C           5.0664    0.5681   -1.9748 C.ar    1  UNL1        0.0545
     17 CL          4.4642   -0.9927   -2.4739 Cl      1  UNL1       -0.0827
     18 C           6.1702    1.0601   -2.6459 C.ar    1  UNL1       -0.0426
     19 C           6.6597    2.3045   -2.3205 C.ar    1  UNL1       -0.0590
     20 C           6.0748    3.0749   -1.3392 C.ar    1  UNL1       -0.0426
     21 C           4.9827    2.5602   -0.6912 C.ar    1  UNL1        0.0545
     22 CL          4.2639    3.5592    0.5503 Cl      1  UNL1       -0.0827
     23 C          -0.4652   -1.3014    1.4035 C.ar    1  UNL1        0.0490
     24 C          -0.4485   -2.6746    1.5704 C.ar    1  UNL1       -0.0398
     25 C          -1.2052   -3.2030    2.5960 C.ar    1  UNL1       -0.0586
     26 C          -1.9459   -2.3897    3.4183 C.ar    1  UNL1       -0.0436
     27 C          -1.9425   -1.0268    3.2279 C.ar    1  UNL1        0.0279
     28 N          -1.1889   -0.5440    2.2122 N.ar    1  UNL1       -0.2593
     29 C           0.1476   -1.3602   -1.0125 C.3     1  UNL1       -0.0260
     30 C          -0.8479   -0.5839   -1.8510 C.3     1  UNL1        0.0210
     31 H          -5.1488   -0.4831    1.3262 H       1  UNL1        0.0230
     32 H          -4.1007    0.8893    2.0036 H       1  UNL1        0.0230
     33 H          -5.8559    1.0941    1.9336 H       1  UNL1        0.0230
     34 H          -5.7213    1.9278   -0.1131 H       1  UNL1        0.0279
     35 H          -3.9691    1.9959    0.0829 H       1  UNL1        0.0279
     36 H          -4.6106    0.8881   -2.0438 H       1  UNL1        0.0515
     37 H          -5.6803   -0.2554   -1.1637 H       1  UNL1        0.0515
     38 H          -2.0419    0.9153    0.8811 H       1  UNL1        0.0444
     39 H          -1.6761    1.9573   -0.4921 H       1  UNL1        0.0444
     40 H           0.4423    1.2670   -0.6929 H       1  UNL1        0.0288
     41 H           0.1498    1.3546    1.1489 H       1  UNL1        0.0288
     42 H           1.9030   -2.0347    0.9505 H       1  UNL1        0.0471
     43 H           1.7785   -0.5511    1.8780 H       1  UNL1        0.0471
     44 H           3.5138   -1.1881   -0.3891 H       1  UNL1        0.1490
     45 H           6.6613    0.4700   -3.4347 H       1  UNL1        0.0632
     46 H           7.5265    2.6886   -2.8487 H       1  UNL1        0.0618
     47 H           6.4970    4.0475   -1.1204 H       1  UNL1        0.0632
     48 H           0.1349   -3.2765    0.9234 H       1  UNL1        0.0636
     49 H          -1.1795   -4.2865    2.7107 H       1  UNL1        0.0619
     50 H          -2.5285   -2.8500    4.2166 H       1  UNL1        0.0633
     51 H          -2.5278   -0.3577    3.8738 H       1  UNL1        0.0829
     52 H          -0.3019   -2.3389   -0.8025 H       1  UNL1        0.0288
     53 H           1.1005   -1.3858   -1.5673 H       1  UNL1        0.0288
     54 H          -1.2685   -1.2777   -2.5852 H       1  UNL1        0.0444
     55 H          -0.2956    0.2413   -2.3464 H       1  UNL1        0.0444
@<TRIPOS>BOND
     1     1     2    1
     2     2     3    1
     3     3     4    1
     4     4     5    2
     5     4     6    2
     6     4     7    1
     7     7     8    1
     8     8     9    1
     9     9    10    1
    10    10    11    1
    11    11    12    1
    12    12    13   am
    13    13    14    2
    14    13    15    1
    15    15    16   ar
    16    16    17    1
    17    16    18   ar
    18    18    19   ar
    19    19    20   ar
    20    20    21   ar
    21    21    22    1
    22    10    23    1
    23    23    24   ar
    24    24    25   ar
    25    25    26   ar
    26    26    27   ar
    27    27    28   ar
    28    10    29    1
    29    29    30    1
    30    30     7    1
    31    21    15   ar
    32    28    23   ar
    33     1    31    1
    34     1    32    1
    35     1    33    1
    36     2    34    1
    37     2    35    1
    38     3    36    1
    39     3    37    1
    40     8    38    1
    41     8    39    1
    42     9    40    1
    43     9    41    1
    44    11    42    1
    45    11    43    1
    46    12    44    1
    47    18    45    1
    48    19    46    1
    49    20    47    1
    50    24    48    1
    51    25    49    1
    52    26    50    1
    53    27    51    1
    54    29    52    1
    55    29    53    1
    56    30    54    1
    57    30    55    1
