@<TRIPOS>MOLECULE
*****
 35 35 0 0 0
SMALL
GASTEIGER

@<TRIPOS>ATOM
      1 C          -1.5037    0.3770    0.8693 C.3     1  UNL1        0.1133
      2 C          -2.5213    0.2588    1.9866 C.3     1  UNL1        0.0730
      3 O          -3.4335    1.3048    1.9399 O.3     1  UNL1       -0.3924
      4 O          -0.5922   -0.6644    0.9135 O.3     1  UNL1       -0.3346
      5 C           0.5463   -0.3578    0.1257 C.3     1  UNL1        0.2713
      6 N           1.0938   -1.5812   -0.2839 N.2     1  UNL1       -0.1698
      7 C           2.1954   -2.1059   -0.4250 C.2     1  UNL1        0.3863
      8 O           1.8183   -3.3612   -0.8814 O.2     1  UNL1       -0.4657
      9 O           3.1195   -1.1437   -0.0504 O.2     1  UNL1       -0.4532
     10 C           3.6556   -0.1988   -0.9160 C.3     1  UNL1        0.0834
     11 C           1.3959    0.4850    1.0060 C.2     1  UNL1        0.2394
     12 O           2.3660    1.3011    1.6260 O.2     1  UNL1       -0.4924
     13 N           1.1181    0.7829    2.2340 N.2     1  UNL1       -0.2669
     14 C           0.1096    0.3884   -1.1264 C.3     1  UNL1        0.1420
     15 O           0.2376    1.7534   -1.0219 O.3     1  UNL1       -0.3837
     16 C          -1.3102   -0.0415   -1.5277 C.3     1  UNL1        0.1144
     17 O          -1.3000   -1.4097   -1.6651 O.3     1  UNL1       -0.3864
     18 C          -2.2898    0.3078   -0.4285 C.3     1  UNL1        0.1119
     19 O          -2.8599    1.5485   -0.7070 O.3     1  UNL1       -0.3865
     20 H          -1.0366    1.3727    0.9574 H       1  UNL1        0.0647
     21 H          -2.0608    0.2310    2.9890 H       1  UNL1        0.0584
     22 H          -3.0362   -0.7205    1.8551 H       1  UNL1        0.0584
     23 H          -4.3271    0.9319    1.8550 H       1  UNL1        0.2095
     24 H           1.6177   -4.1373   -0.2366 H       1  UNL1        0.2969
     25 H           4.3518    0.4269   -0.2967 H       1  UNL1        0.0661
     26 H           4.2829   -0.6491   -1.7386 H       1  UNL1        0.0661
     27 H           2.9800    0.4858   -1.4105 H       1  UNL1        0.0661
     28 H           3.0220    1.8714    1.0790 H       1  UNL1        0.2935
     29 H           0.2881    0.4792    2.7479 H       1  UNL1        0.1897
     30 H           0.7176    0.0843   -2.0301 H       1  UNL1        0.0674
     31 H           0.8835    2.1514   -1.6524 H       1  UNL1        0.2101
     32 H          -1.5340    0.4816   -2.4751 H       1  UNL1        0.0648
     33 H          -2.1079   -1.8485   -1.2760 H       1  UNL1        0.2100
     34 H          -3.0556   -0.4639   -0.3492 H       1  UNL1        0.0647
     35 H          -2.8307    1.6596   -1.6861 H       1  UNL1        0.2100
@<TRIPOS>BOND
     1     1     2    1
     2     2     3    1
     3     1     4    1
     4     4     5    1
     5     5     6    1
     6     6     7    2
     7     7     8    1
     8     7     9    1
     9     9    10    1
    10     5    11    1
    11    11    12    1
    12    11    13    2
    13     5    14    1
    14    14    15    1
    15    14    16    1
    16    16    17    1
    17    16    18    1
    18    18    19    1
    19    18     1    1
    20     1    20    1
    21     2    21    1
    22     2    22    1
    23     3    23    1
    24     8    24    1
    25    10    25    1
    26    10    26    1
    27    10    27    1
    28    12    28    1
    29    13    29    1
    30    14    30    1
    31    15    31    1
    32    16    32    1
    33    17    33    1
    34    18    34    1
    35    19    35    1
