@<TRIPOS>MOLECULE
*****
 33 35 0 0 0
SMALL
GASTEIGER

@<TRIPOS>ATOM
      1 O          -4.9289   -1.8563    0.5985 O.2     1  UNL1       -0.2918
      2 C          -4.5148   -0.7957    0.0460 C.2     1  UNL1        0.1699
      3 C          -5.4547    0.1701   -0.5800 C.3     1  UNL1        0.0448
      4 C          -4.9158    1.5547   -0.6605 C.3     1  UNL1        0.0966
      5 O          -3.5796    1.7073   -0.3184 O.3     1  UNL1       -0.4907
      6 C          -2.6439    0.7311   -0.1390 C.ar    1  UNL1        0.1344
      7 C          -1.2675    0.9726   -0.1374 C.ar    1  UNL1        0.0225
      8 C          -0.3535   -0.0347    0.0462 C.ar    1  UNL1        0.1245
      9 O           0.9910    0.2627    0.0382 O.3     1  UNL1       -0.4873
     10 C           1.9306   -0.7768    0.2275 C.3     1  UNL1        0.1146
     11 C           3.3164   -0.2743    0.1887 C.ar    1  UNL1       -0.0102
     12 C           3.9646   -0.2383   -1.0236 C.ar    1  UNL1       -0.0526
     13 C           5.2578    0.2215   -1.1141 C.ar    1  UNL1       -0.0261
     14 C           5.9661    0.6641   -0.0184 C.ar    1  UNL1        0.1234
     15 F           7.2400    1.1179   -0.1025 F       1  UNL1       -0.2055
     16 C           5.3002    0.6228    1.2017 C.ar    1  UNL1       -0.0261
     17 C           4.0013    0.1620    1.2984 C.ar    1  UNL1       -0.0526
     18 C          -0.7851   -1.3212    0.2349 C.ar    1  UNL1       -0.0190
     19 C          -2.1444   -1.5782    0.2362 C.ar    1  UNL1       -0.0443
     20 C          -3.0760   -0.5635    0.0509 C.ar    1  UNL1        0.0593
     21 H          -5.7038   -0.2610   -1.5892 H       1  UNL1        0.0378
     22 H          -6.4174    0.1263   -0.0124 H       1  UNL1        0.0378
     23 H          -5.0310    1.8937   -1.7308 H       1  UNL1        0.0701
     24 H          -5.5630    2.2565   -0.0642 H       1  UNL1        0.0701
     25 H          -0.9739    2.0086   -0.2909 H       1  UNL1        0.0691
     26 H           1.7609   -1.5078   -0.6161 H       1  UNL1        0.0748
     27 H           1.7104   -1.3509    1.1488 H       1  UNL1        0.0748
     28 H           3.4494   -0.5775   -1.9246 H       1  UNL1        0.0622
     29 H           5.7741    0.2527   -2.0651 H       1  UNL1        0.0646
     30 H           5.8313    0.9666    2.0948 H       1  UNL1        0.0646
     31 H           3.4897    0.1324    2.2491 H       1  UNL1        0.0622
     32 H          -0.0857   -2.1141    0.3789 H       1  UNL1        0.0654
     33 H          -2.5449   -2.5735    0.3803 H       1  UNL1        0.0627
@<TRIPOS>BOND
     1     1     2    2
     2     2     3    1
     3     3     4    1
     4     4     5    1
     5     5     6    1
     6     6     7   ar
     7     7     8   ar
     8     8     9    1
     9     9    10    1
    10    10    11    1
    11    11    12   ar
    12    12    13   ar
    13    13    14   ar
    14    14    15    1
    15    14    16   ar
    16    16    17   ar
    17     8    18   ar
    18    18    19   ar
    19    19    20   ar
    20    20     2    1
    21    20     6   ar
    22    17    11   ar
    23     3    21    1
    24     3    22    1
    25     4    23    1
    26     4    24    1
    27     7    25    1
    28    10    26    1
    29    10    27    1
    30    12    28    1
    31    13    29    1
    32    16    30    1
    33    17    31    1
    34    18    32    1
    35    19    33    1
