
     RDKit          3D

 33 35  0  0  0  0  0  0  0  0999 V2000
   -4.9289   -1.8563    0.5985 O   0  0  0  0  0  0  0  0  0  0  0  0
   -4.5148   -0.7957    0.0460 C   0  0  0  0  0  0  0  0  0  0  0  0
   -5.4547    0.1701   -0.5800 C   0  0  0  0  0  0  0  0  0  0  0  0
   -4.9158    1.5547   -0.6605 C   0  0  0  0  0  0  0  0  0  0  0  0
   -3.5796    1.7073   -0.3184 O   0  0  0  0  0  0  0  0  0  0  0  0
   -2.6439    0.7311   -0.1390 C   0  0  0  0  0  0  0  0  0  0  0  0
   -1.2675    0.9726   -0.1374 C   0  0  0  0  0  0  0  0  0  0  0  0
   -0.3535   -0.0347    0.0462 C   0  0  0  0  0  0  0  0  0  0  0  0
    0.9910    0.2627    0.0382 O   0  0  0  0  0  0  0  0  0  0  0  0
    1.9306   -0.7768    0.2275 C   0  0  0  0  0  0  0  0  0  0  0  0
    3.3164   -0.2743    0.1887 C   0  0  0  0  0  0  0  0  0  0  0  0
    3.9646   -0.2383   -1.0236 C   0  0  0  0  0  0  0  0  0  0  0  0
    5.2578    0.2215   -1.1141 C   0  0  0  0  0  0  0  0  0  0  0  0
    5.9661    0.6641   -0.0184 C   0  0  0  0  0  0  0  0  0  0  0  0
    7.2400    1.1179   -0.1025 F   0  0  0  0  0  0  0  0  0  0  0  0
    5.3002    0.6228    1.2017 C   0  0  0  0  0  0  0  0  0  0  0  0
    4.0013    0.1620    1.2984 C   0  0  0  0  0  0  0  0  0  0  0  0
   -0.7851   -1.3212    0.2349 C   0  0  0  0  0  0  0  0  0  0  0  0
   -2.1444   -1.5782    0.2362 C   0  0  0  0  0  0  0  0  0  0  0  0
   -3.0760   -0.5635    0.0509 C   0  0  0  0  0  0  0  0  0  0  0  0
   -5.7038   -0.2610   -1.5892 H   0  0  0  0  0  0  0  0  0  0  0  0
   -6.4174    0.1263   -0.0124 H   0  0  0  0  0  0  0  0  0  0  0  0
   -5.0310    1.8937   -1.7308 H   0  0  0  0  0  0  0  0  0  0  0  0
   -5.5630    2.2565   -0.0642 H   0  0  0  0  0  0  0  0  0  0  0  0
   -0.9739    2.0086   -0.2909 H   0  0  0  0  0  0  0  0  0  0  0  0
    1.7609   -1.5078   -0.6161 H   0  0  0  0  0  0  0  0  0  0  0  0
    1.7104   -1.3509    1.1488 H   0  0  0  0  0  0  0  0  0  0  0  0
    3.4494   -0.5775   -1.9246 H   0  0  0  0  0  0  0  0  0  0  0  0
    5.7741    0.2527   -2.0651 H   0  0  0  0  0  0  0  0  0  0  0  0
    5.8313    0.9666    2.0948 H   0  0  0  0  0  0  0  0  0  0  0  0
    3.4897    0.1324    2.2491 H   0  0  0  0  0  0  0  0  0  0  0  0
   -0.0857   -2.1141    0.3789 H   0  0  0  0  0  0  0  0  0  0  0  0
   -2.5449   -2.5735    0.3803 H   0  0  0  0  0  0  0  0  0  0  0  0
  1  2  2  0
  2  3  1  0
  3  4  1  0
  4  5  1  0
  5  6  1  0
  6  7  2  0
  7  8  1  0
  8  9  1  0
  9 10  1  0
 10 11  1  0
 11 12  2  0
 12 13  1  0
 13 14  2  0
 14 15  1  0
 14 16  1  0
 16 17  2  0
  8 18  2  0
 18 19  1  0
 19 20  2  0
 20  2  1  0
 20  6  1  0
 17 11  1  0
  3 21  1  0
  3 22  1  0
  4 23  1  0
  4 24  1  0
  7 25  1  0
 10 26  1  0
 10 27  1  0
 12 28  1  0
 13 29  1  0
 16 30  1  0
 17 31  1  0
 18 32  1  0
 19 33  1  0
M  END
$$$$
