@<TRIPOS>MOLECULE
*****
 44 46 0 0 0
SMALL
GASTEIGER

@<TRIPOS>ATOM
      1 C          -3.7625   -3.8571    0.4327 C.3     1  UNL1        0.0788
      2 O          -3.9451   -2.4586    0.5501 O.3     1  UNL1       -0.4951
      3 C          -2.8687   -1.6083    0.4145 C.ar    1  UNL1        0.1208
      4 C          -1.6196   -2.0982    0.1664 C.ar    1  UNL1       -0.0180
      5 C          -0.5629   -1.2138    0.0370 C.ar    1  UNL1       -0.0337
      6 C          -0.6895    0.1498    0.1454 C.ar    1  UNL1        0.0574
      7 C          -1.9799    0.6229    0.3973 C.ar    1  UNL1        0.0077
      8 C          -3.0316   -0.2448    0.5267 C.ar    1  UNL1       -0.0105
      9 C          -1.8744    1.9845    0.4325 C.ar    1  UNL1       -0.0080
     10 C          -3.0284    2.9013    0.6740 C.3     1  UNL1        0.0721
     11 C          -3.8163    2.9751   -0.5660 C.2     1  UNL1        0.3091
     12 O          -3.4793    2.3375   -1.5762 O.2     1  UNL1       -0.2507
     13 O          -4.9432    3.7652   -0.5994 O.3     1  UNL1       -0.4804
     14 C          -0.5700    2.3187    0.2115 C.ar    1  UNL1        0.0284
     15 C          -0.0635    3.7048    0.1786 C.3     1  UNL1       -0.0235
     16 N           0.1719    1.1748    0.0345 N.ar    1  UNL1       -0.2801
     17 C           1.5292    1.2061   -0.2677 C.2     1  UNL1        0.2631
     18 O           2.0042    2.3778   -0.6111 O.2     1  UNL1       -0.2667
     19 C           2.5300    0.1619   -0.2671 C.ar    1  UNL1        0.0399
     20 C           3.5048    0.2151   -1.2379 C.ar    1  UNL1       -0.0489
     21 C           4.5332   -0.6892   -1.2355 C.ar    1  UNL1       -0.0494
     22 C           4.6498   -1.6793   -0.2864 C.ar    1  UNL1        0.0549
     23 C           5.7763   -2.6605   -0.2934 C.3     1  UNL1        0.4174
     24 F           5.3870   -3.7489   -1.0615 F       1  UNL1       -0.1659
     25 F           6.0324   -3.1399    0.9763 F       1  UNL1       -0.1659
     26 F           6.9288   -2.0769   -0.7839 F       1  UNL1       -0.1659
     27 C           3.6788   -1.7395    0.6890 C.ar    1  UNL1       -0.0494
     28 C           2.6455   -0.8267    0.6824 C.ar    1  UNL1       -0.0489
     29 H          -3.0529   -4.1684    1.2207 H       1  UNL1        0.0660
     30 H          -3.2823   -4.0838   -0.5455 H       1  UNL1        0.0660
     31 H          -4.7365   -4.3747    0.4839 H       1  UNL1        0.0660
     32 H          -1.4265   -3.1745    0.0661 H       1  UNL1        0.0655
     33 H           0.3744   -1.6419   -0.1924 H       1  UNL1        0.0640
     34 H          -4.0184    0.1906    0.7254 H       1  UNL1        0.0661
     35 H          -2.6738    3.8943    0.9940 H       1  UNL1        0.0427
     36 H          -3.6375    2.4820    1.5068 H       1  UNL1        0.0427
     37 H          -5.4512    3.9201   -1.4616 H       1  UNL1        0.2951
     38 H          -0.7714    4.4377    0.5807 H       1  UNL1        0.0292
     39 H           0.8509    3.8005    0.8357 H       1  UNL1        0.0292
     40 H           0.2340    3.9602   -0.8656 H       1  UNL1        0.0292
     41 H           3.4714    0.9821   -2.0263 H       1  UNL1        0.0625
     42 H           5.3153   -0.6540   -2.0063 H       1  UNL1        0.0623
     43 H           3.7699   -2.5236    1.4414 H       1  UNL1        0.0623
     44 H           1.8977   -0.9000    1.4805 H       1  UNL1        0.0625
@<TRIPOS>BOND
     1     1     2    1
     2     2     3    1
     3     3     4   ar
     4     4     5   ar
     5     5     6   ar
     6     6     7   ar
     7     7     8   ar
     8     7     9   ar
     9     9    10    1
    10    10    11    1
    11    11    12    2
    12    11    13    1
    13     9    14   ar
    14    14    15    1
    15    14    16   ar
    16    16    17   am
    17    17    18    2
    18    17    19    1
    19    19    20   ar
    20    20    21   ar
    21    21    22   ar
    22    22    23    1
    23    23    24    1
    24    23    25    1
    25    23    26    1
    26    22    27   ar
    27    27    28   ar
    28     8     3   ar
    29    28    19   ar
    30    16     6   ar
    31     1    29    1
    32     1    30    1
    33     1    31    1
    34     4    32    1
    35     5    33    1
    36     8    34    1
    37    10    35    1
    38    10    36    1
    39    13    37    1
    40    15    38    1
    41    15    39    1
    42    15    40    1
    43    20    41    1
    44    21    42    1
    45    27    43    1
    46    28    44    1
