
     RDKit          3D

 44 46  0  0  0  0  0  0  0  0999 V2000
   -3.7625   -3.8571    0.4327 C   0  0  0  0  0  0  0  0  0  0  0  0
   -3.9451   -2.4586    0.5501 O   0  0  0  0  0  0  0  0  0  0  0  0
   -2.8687   -1.6083    0.4145 C   0  0  0  0  0  0  0  0  0  0  0  0
   -1.6196   -2.0982    0.1664 C   0  0  0  0  0  0  0  0  0  0  0  0
   -0.5629   -1.2138    0.0370 C   0  0  0  0  0  0  0  0  0  0  0  0
   -0.6895    0.1498    0.1454 C   0  0  0  0  0  0  0  0  0  0  0  0
   -1.9799    0.6229    0.3973 C   0  0  0  0  0  0  0  0  0  0  0  0
   -3.0316   -0.2448    0.5267 C   0  0  0  0  0  0  0  0  0  0  0  0
   -1.8744    1.9845    0.4325 C   0  0  0  0  0  0  0  0  0  0  0  0
   -3.0284    2.9013    0.6740 C   0  0  0  0  0  0  0  0  0  0  0  0
   -3.8163    2.9751   -0.5660 C   0  0  0  0  0  0  0  0  0  0  0  0
   -3.4793    2.3375   -1.5762 O   0  0  0  0  0  0  0  0  0  0  0  0
   -4.9432    3.7652   -0.5994 O   0  0  0  0  0  0  0  0  0  0  0  0
   -0.5700    2.3187    0.2115 C   0  0  0  0  0  0  0  0  0  0  0  0
   -0.0635    3.7048    0.1786 C   0  0  0  0  0  0  0  0  0  0  0  0
    0.1719    1.1748    0.0345 N   0  0  0  0  0  0  0  0  0  0  0  0
    1.5292    1.2061   -0.2677 C   0  0  0  0  0  0  0  0  0  0  0  0
    2.0042    2.3778   -0.6111 O   0  0  0  0  0  0  0  0  0  0  0  0
    2.5300    0.1619   -0.2671 C   0  0  0  0  0  0  0  0  0  0  0  0
    3.5048    0.2151   -1.2379 C   0  0  0  0  0  0  0  0  0  0  0  0
    4.5332   -0.6892   -1.2355 C   0  0  0  0  0  0  0  0  0  0  0  0
    4.6498   -1.6793   -0.2864 C   0  0  0  0  0  0  0  0  0  0  0  0
    5.7763   -2.6605   -0.2934 C   0  0  0  0  0  0  0  0  0  0  0  0
    5.3870   -3.7489   -1.0615 F   0  0  0  0  0  0  0  0  0  0  0  0
    6.0324   -3.1399    0.9763 F   0  0  0  0  0  0  0  0  0  0  0  0
    6.9288   -2.0769   -0.7839 F   0  0  0  0  0  0  0  0  0  0  0  0
    3.6788   -1.7395    0.6890 C   0  0  0  0  0  0  0  0  0  0  0  0
    2.6455   -0.8267    0.6824 C   0  0  0  0  0  0  0  0  0  0  0  0
   -3.0529   -4.1684    1.2207 H   0  0  0  0  0  0  0  0  0  0  0  0
   -3.2823   -4.0838   -0.5455 H   0  0  0  0  0  0  0  0  0  0  0  0
   -4.7365   -4.3747    0.4839 H   0  0  0  0  0  0  0  0  0  0  0  0
   -1.4265   -3.1745    0.0661 H   0  0  0  0  0  0  0  0  0  0  0  0
    0.3744   -1.6419   -0.1924 H   0  0  0  0  0  0  0  0  0  0  0  0
   -4.0184    0.1906    0.7254 H   0  0  0  0  0  0  0  0  0  0  0  0
   -2.6738    3.8943    0.9940 H   0  0  0  0  0  0  0  0  0  0  0  0
   -3.6375    2.4820    1.5068 H   0  0  0  0  0  0  0  0  0  0  0  0
   -5.4512    3.9201   -1.4616 H   0  0  0  0  0  0  0  0  0  0  0  0
   -0.7714    4.4377    0.5807 H   0  0  0  0  0  0  0  0  0  0  0  0
    0.8509    3.8005    0.8357 H   0  0  0  0  0  0  0  0  0  0  0  0
    0.2340    3.9602   -0.8656 H   0  0  0  0  0  0  0  0  0  0  0  0
    3.4714    0.9821   -2.0263 H   0  0  0  0  0  0  0  0  0  0  0  0
    5.3153   -0.6540   -2.0063 H   0  0  0  0  0  0  0  0  0  0  0  0
    3.7699   -2.5236    1.4414 H   0  0  0  0  0  0  0  0  0  0  0  0
    1.8977   -0.9000    1.4805 H   0  0  0  0  0  0  0  0  0  0  0  0
  1  2  1  0
  2  3  1  0
  3  4  2  0
  4  5  1  0
  5  6  2  0
  6  7  1  0
  7  8  2  0
  7  9  1  0
  9 10  1  0
 10 11  1  0
 11 12  2  0
 11 13  1  0
  9 14  2  0
 14 15  1  0
 14 16  1  0
 16 17  1  0
 17 18  2  0
 17 19  1  0
 19 20  2  0
 20 21  1  0
 21 22  2  0
 22 23  1  0
 23 24  1  0
 23 25  1  0
 23 26  1  0
 22 27  1  0
 27 28  2  0
  8  3  1  0
 28 19  1  0
 16  6  1  0
  1 29  1  0
  1 30  1  0
  1 31  1  0
  4 32  1  0
  5 33  1  0
  8 34  1  0
 10 35  1  0
 10 36  1  0
 13 37  1  0
 15 38  1  0
 15 39  1  0
 15 40  1  0
 20 41  1  0
 21 42  1  0
 27 43  1  0
 28 44  1  0
M  END
$$$$
