@<TRIPOS>MOLECULE
*****
 65 70 0 0 0
SMALL
GASTEIGER

@<TRIPOS>ATOM
      1 O           0.8328    1.8207    1.4249 O.2     1  UNL1       -0.2701
      2 C           0.5142    0.6797    0.9212 C.2     1  UNL1        0.2475
      3 N           1.6123   -0.0858    0.5380 N.am    1  UNL1       -0.3079
      4 C           2.9864    0.2821    0.6630 C.3     1  UNL1        0.0292
      5 C           3.8437   -0.9165    0.8584 C.3     1  UNL1       -0.0195
      6 C           4.0769   -1.7045   -0.4213 C.3     1  UNL1       -0.0455
      7 C           4.7960   -0.8129   -1.3877 C.3     1  UNL1       -0.0378
      8 C           3.8797    0.3549   -1.6903 C.3     1  UNL1       -0.0455
      9 C           3.5295    1.1151   -0.4644 C.3     1  UNL1       -0.0195
     10 C           4.8410    1.6693    0.0985 C.3     1  UNL1       -0.0195
     11 C           5.7914    0.5057    0.4027 C.3     1  UNL1        0.0670
     12 O           6.9185    1.0719    0.9741 O.3     1  UNL1       -0.3885
     13 C           6.0825   -0.2554   -0.8725 C.3     1  UNL1       -0.0211
     14 C           5.1841   -0.4593    1.3969 C.3     1  UNL1       -0.0195
     15 C          -0.8917    0.3969    0.8405 C.ar    1  UNL1        0.0764
     16 C          -1.7247    0.6379    1.9531 C.ar    1  UNL1        0.0450
     17 N          -3.0419    0.4338    1.9213 N.ar    1  UNL1       -0.2222
     18 C          -3.6541   -0.0238    0.7994 C.ar    1  UNL1        0.2157
     19 N          -5.0928   -0.1958    0.8120 N.pl3   1  UNL1       -0.3083
     20 C          -5.8387    0.1539    1.9961 C.3     1  UNL1        0.0487
     21 C          -5.7282    1.6847    2.1744 C.3     1  UNL1       -0.0088
     22 C          -6.9165    2.2113    1.3873 C.3     1  UNL1        0.0495
     23 O          -7.5691    1.1107    0.8315 O.3     1  UNL1       -0.3779
     24 C          -7.3098    0.0430    1.7190 C.3     1  UNL1        0.0661
     25 N          -2.8808   -0.2551   -0.2522 N.ar    1  UNL1       -0.2184
     26 C          -1.5260   -0.0669   -0.2830 C.ar    1  UNL1        0.0615
     27 C          -0.8176   -0.3778   -1.5457 C.3     1  UNL1        0.0023
     28 C          -0.5184   -1.7974   -1.8247 C.3     1  UNL1       -0.0448
     29 C          -1.9096   -2.3993   -1.7791 C.3     1  UNL1       -0.0524
     30 C          -2.6383   -1.3981   -2.6801 C.3     1  UNL1       -0.0524
     31 C          -1.8381   -0.1141   -2.6485 C.3     1  UNL1       -0.0448
     32 H           1.4318   -1.0259    0.1385 H       1  UNL1        0.1493
     33 H           3.0548    0.9464    1.5490 H       1  UNL1        0.0504
     34 H           3.3723   -1.6299    1.5807 H       1  UNL1        0.0320
     35 H           3.1212   -2.0095   -0.8642 H       1  UNL1        0.0271
     36 H           4.6477   -2.6071   -0.1172 H       1  UNL1        0.0271
     37 H           5.0240   -1.3431   -2.3429 H       1  UNL1        0.0302
     38 H           3.0133   -0.0696   -2.2336 H       1  UNL1        0.0271
     39 H           4.4042    1.0177   -2.4006 H       1  UNL1        0.0271
     40 H           2.9243    2.0037   -0.6832 H       1  UNL1        0.0320
     41 H           4.6373    2.1352    1.1014 H       1  UNL1        0.0296
     42 H           5.3513    2.3562   -0.5774 H       1  UNL1        0.0296
     43 H           6.7825    2.0139    1.2656 H       1  UNL1        0.2102
     44 H           6.5171    0.4014   -1.6418 H       1  UNL1        0.0296
     45 H           6.8553   -1.0228   -0.6518 H       1  UNL1        0.0296
     46 H           5.8222   -1.3731    1.4100 H       1  UNL1        0.0296
     47 H           5.0260   -0.0354    2.3936 H       1  UNL1        0.0296
     48 H          -1.1995    1.0073    2.8362 H       1  UNL1        0.0839
     49 H          -5.6048   -0.5517   -0.0165 H       1  UNL1        0.1493
     50 H          -5.4939   -0.3564    2.8948 H       1  UNL1        0.0522
     51 H          -4.8317    2.0105    1.6091 H       1  UNL1        0.0306
     52 H          -5.7400    1.9847    3.2214 H       1  UNL1        0.0306
     53 H          -6.6287    2.8764    0.5593 H       1  UNL1        0.0560
     54 H          -7.6104    2.6626    2.1127 H       1  UNL1        0.0560
     55 H          -7.6179   -0.8751    1.2386 H       1  UNL1        0.0578
     56 H          -7.9149    0.1969    2.6450 H       1  UNL1        0.0578
     57 H           0.0738    0.2951   -1.6839 H       1  UNL1        0.0364
     58 H          -0.2434   -1.8523   -2.9326 H       1  UNL1        0.0272
     59 H           0.2327   -2.3239   -1.2943 H       1  UNL1        0.0272
     60 H          -1.9584   -3.4154   -2.1897 H       1  UNL1        0.0265
     61 H          -2.2898   -2.4324   -0.7537 H       1  UNL1        0.0265
     62 H          -2.6929   -1.8091   -3.7150 H       1  UNL1        0.0265
     63 H          -3.6352   -1.2192   -2.2516 H       1  UNL1        0.0265
     64 H          -1.3443   -0.0293   -3.6452 H       1  UNL1        0.0272
     65 H          -2.4790    0.7643   -2.4236 H       1  UNL1        0.0272
@<TRIPOS>BOND
     1     1     2    2
     2     2     3   am
     3     3     4    1
     4     4     5    1
     5     5     6    1
     6     6     7    1
     7     7     8    1
     8     8     9    1
     9     9    10    1
    10    10    11    1
    11    11    12    1
    12    11    13    1
    13    11    14    1
    14     2    15    1
    15    15    16   ar
    16    16    17   ar
    17    17    18   ar
    18    18    19    1
    19    19    20    1
    20    20    21    1
    21    21    22    1
    22    22    23    1
    23    23    24    1
    24    18    25   ar
    25    25    26   ar
    26    26    27    1
    27    27    28    1
    28    28    29    1
    29    29    30    1
    30    30    31    1
    31     9     4    1
    32    26    15   ar
    33    31    27    1
    34    14     5    1
    35    24    20    1
    36    13     7    1
    37     3    32    1
    38     4    33    1
    39     5    34    1
    40     6    35    1
    41     6    36    1
    42     7    37    1
    43     8    38    1
    44     8    39    1
    45     9    40    1
    46    10    41    1
    47    10    42    1
    48    12    43    1
    49    13    44    1
    50    13    45    1
    51    14    46    1
    52    14    47    1
    53    16    48    1
    54    19    49    1
    55    20    50    1
    56    21    51    1
    57    21    52    1
    58    22    53    1
    59    22    54    1
    60    24    55    1
    61    24    56    1
    62    27    57    1
    63    28    58    1
    64    28    59    1
    65    29    60    1
    66    29    61    1
    67    30    62    1
    68    30    63    1
    69    31    64    1
    70    31    65    1
