
     RDKit          3D

 58 60  0  0  0  0  0  0  0  0999 V2000
   -4.4863    1.0194    2.0663 C   0  0  0  0  0  0  0  0  0  0  0  0
   -4.7710    0.2037    0.9065 N   0  0  0  0  0  0  0  0  0  0  0  0
   -3.9297   -0.9229    0.6266 C   0  0  0  0  0  0  0  0  0  0  0  0
   -2.4842   -0.4730    0.6142 C   0  0  0  0  0  0  0  0  0  0  0  0
   -1.6522   -1.6490    0.3252 N   0  0  0  0  0  0  0  0  0  0  0  0
   -0.2333   -1.5518    0.2466 C   0  0  0  0  0  0  0  0  0  0  0  0
    0.6147   -2.6115   -0.0202 C   0  0  0  0  0  0  0  0  0  0  0  0
    1.9945   -2.4209   -0.0775 C   0  0  0  0  0  0  0  0  0  0  0  0
    2.5661   -1.1718    0.1290 C   0  0  0  0  0  0  0  0  0  0  0  0
    1.7119   -0.1247    0.3938 C   0  0  0  0  0  0  0  0  0  0  0  0
    0.3465   -0.3170    0.4498 C   0  0  0  0  0  0  0  0  0  0  0  0
    4.0044   -1.0559    0.0535 C   0  0  0  0  0  0  0  0  0  0  0  0
    4.6555   -2.1039   -0.1966 O   0  0  0  0  0  0  0  0  0  0  0  0
    4.6740    0.1831    0.2507 N   0  0  0  0  0  0  0  0  0  0  0  0
    6.1072    0.4144    0.1983 C   0  0  1  0  0  0  0  0  0  0  0  0
    6.3237    1.4272   -0.9148 C   0  0  0  0  0  0  0  0  0  0  0  0
    7.7680    1.7718   -1.0936 C   0  0  0  0  0  0  0  0  0  0  0  0
    8.6255    0.6219   -1.4349 C   0  0  0  0  0  0  0  0  0  0  0  0
    9.9791    0.9036   -1.6096 O   0  0  0  0  0  0  0  0  0  0  0  0
    8.3086   -0.5826   -1.5917 O   0  0  0  0  0  0  0  0  0  0  0  0
    6.6269    0.8943    1.4959 C   0  0  0  0  0  0  0  0  0  0  0  0
    7.2052    1.3508    2.6821 O   0  0  0  0  0  0  0  0  0  0  0  0
    5.4593    0.8402    1.9860 O   0  0  0  0  0  0  0  0  0  0  0  0
   -4.2240   -1.6283   -0.6404 C   0  0  0  0  0  0  0  0  0  0  0  0
   -5.6139   -1.5872   -1.0321 N   0  0  0  0  0  0  0  0  0  0  0  0
   -6.3101   -0.3415   -0.9038 C   0  0  0  0  0  0  0  0  0  0  0  0
   -5.8539    0.5170    0.0751 C   0  0  0  0  0  0  0  0  0  0  0  0
   -6.5378    1.7096    0.1813 C   0  0  0  0  0  0  0  0  0  0  0  0
   -6.1984    2.5467    1.0356 O   0  0  0  0  0  0  0  0  0  0  0  0
   -7.5643    1.9749   -0.6271 N   0  0  0  0  0  0  0  0  0  0  0  0
   -7.9937    1.1105   -1.5842 C   0  0  0  0  0  0  0  0  0  0  0  0
   -9.0970    1.4418   -2.4239 N   0  0  0  0  0  0  0  0  0  0  0  0
   -7.3546   -0.0784   -1.7306 N   0  0  0  0  0  0  0  0  0  0  0  0
   -3.7313    0.5636    2.7391 H   0  0  0  0  0  0  0  0  0  0  0  0
   -5.3948    1.1373    2.7191 H   0  0  0  0  0  0  0  0  0  0  0  0
   -4.0462    2.0185    1.7876 H   0  0  0  0  0  0  0  0  0  0  0  0
   -4.0192   -1.6281    1.4996 H   0  0  0  0  0  0  0  0  0  0  0  0
   -2.1711    0.0167    1.5445 H   0  0  0  0  0  0  0  0  0  0  0  0
   -2.3461    0.1867   -0.2786 H   0  0  0  0  0  0  0  0  0  0  0  0
   -2.0285   -2.6086    0.1620 H   0  0  0  0  0  0  0  0  0  0  0  0
    0.1508   -3.5643   -0.1759 H   0  0  0  0  0  0  0  0  0  0  0  0
    2.5439   -3.3276   -0.2937 H   0  0  0  0  0  0  0  0  0  0  0  0
    2.1267    0.8599    0.5591 H   0  0  0  0  0  0  0  0  0  0  0  0
   -0.2881    0.5288    0.6597 H   0  0  0  0  0  0  0  0  0  0  0  0
    4.1537    1.0588    0.4581 H   0  0  0  0  0  0  0  0  0  0  0  0
    6.5748   -0.5556   -0.0236 H   0  0  0  0  0  0  0  0  0  0  0  0
    5.7848    2.3365   -0.6337 H   0  0  0  0  0  0  0  0  0  0  0  0
    5.8678    1.0228   -1.8229 H   0  0  0  0  0  0  0  0  0  0  0  0
    7.8245    2.4872   -1.9422 H   0  0  0  0  0  0  0  0  0  0  0  0
    8.1225    2.3196   -0.1947 H   0  0  0  0  0  0  0  0  0  0  0  0
   10.5675    0.2565   -2.1477 H   0  0  0  0  0  0  0  0  0  0  0  0
    7.7010    0.6665    3.2732 H   0  0  0  0  0  0  0  0  0  0  0  0
   -3.9316   -2.6961   -0.5686 H   0  0  0  0  0  0  0  0  0  0  0  0
   -3.6436   -1.2119   -1.5142 H   0  0  0  0  0  0  0  0  0  0  0  0
   -6.1198   -2.4293   -1.4017 H   0  0  0  0  0  0  0  0  0  0  0  0
   -8.8101    1.5073   -3.4255 H   0  0  0  0  0  0  0  0  0  0  0  0
   -9.9107    1.5271   -1.7640 H   0  0  0  0  0  0  0  0  0  0  0  0
   -7.6435   -0.7828   -2.4525 H   0  0  0  0  0  0  0  0  0  0  0  0
  1  2  1  0
  2  3  1  0
  3  4  1  0
  4  5  1  0
  5  6  1  0
  6  7  2  0
  7  8  1  0
  8  9  2  0
  9 10  1  0
 10 11  2  0
  9 12  1  0
 12 13  2  0
 12 14  1  0
 14 15  1  0
 15 16  1  0
 16 17  1  0
 17 18  1  0
 18 19  1  0
 18 20  2  0
 15 21  1  0
 21 22  1  0
 21 23  2  0
  3 24  1  0
 24 25  1  0
 25 26  1  0
 26 27  2  0
 27 28  1  0
 28 29  2  0
 28 30  1  0
 30 31  2  0
 31 32  1  0
 31 33  1  0
 27  2  1  0
 11  6  1  0
 33 26  1  0
  1 34  1  0
  1 35  1  0
  1 36  1  0
  3 37  1  0
  4 38  1  0
  4 39  1  0
  5 40  1  0
  7 41  1  0
  8 42  1  0
 10 43  1  0
 11 44  1  0
 14 45  1  0
 15 46  1  6
 16 47  1  0
 16 48  1  0
 17 49  1  0
 17 50  1  0
 19 51  1  0
 22 52  1  0
 24 53  1  0
 24 54  1  0
 25 55  1  0
 32 56  1  0
 32 57  1  0
 33 58  1  0
M  END
$$$$
