@<TRIPOS>MOLECULE
*****
 58 60 0 0 0
SMALL
GASTEIGER

@<TRIPOS>ATOM
      1 C          -4.4863    1.0194    2.0663 C.3     0  UNK0        0.0013
      2 N          -4.7710    0.2037    0.9065 N.pl3   0  UNK0       -0.3201
      3 C          -3.9297   -0.9229    0.6266 C.3     0  UNK0        0.0543
      4 C          -2.4842   -0.4730    0.6142 C.3     0  UNK0        0.0291
      5 N          -1.6522   -1.6490    0.3252 N.pl3   0  UNK0       -0.3420
      6 C          -0.2333   -1.5518    0.2466 C.ar    0  UNK0        0.0272
      7 C           0.6147   -2.6115   -0.0202 C.ar    0  UNK0       -0.0401
      8 C           1.9945   -2.4209   -0.0775 C.ar    0  UNK0       -0.0479
      9 C           2.5661   -1.1718    0.1290 C.ar    0  UNK0        0.0368
     10 C           1.7119   -0.1247    0.3938 C.ar    0  UNK0       -0.0479
     11 C           0.3465   -0.3170    0.4498 C.ar    0  UNK0       -0.0401
     12 C           4.0044   -1.0559    0.0535 C.2     0  UNK0        0.2447
     13 O           4.6555   -2.1039   -0.1966 O.2     0  UNK0       -0.2702
     14 N           4.6740    0.1831    0.2507 N.am    1  GLU1       -0.2983
     15 CA          6.1072    0.4144    0.1983 C.3     1  GLU1        0.1209
     16 CB          6.3237    1.4272   -0.9148 C.3     1  GLU1       -0.0140
     17 CG          7.7680    1.7718   -1.0936 C.3     1  GLU1        0.0470
     18 CD          8.6255    0.6219   -1.4349 C.2     1  GLU1        0.3048
     19 OE1         9.9791    0.9036   -1.6096 O.3     1  GLU1       -0.4806
     20 OE2         8.3086   -0.5826   -1.5917 O.2     1  GLU1       -0.2510
     21 C           6.6269    0.8943    1.4959 C.2     1  GLU1        0.3253
     22 O           7.2052    1.3508    2.6821 O.3     1  GLU1       -0.4793
     23 OXT         5.4593    0.8402    1.9860 O.2     1  GLU1       -0.2489
     24 C          -4.2240   -1.6283   -0.6404 C.3     0  UNK0        0.0304
     25 N          -5.6139   -1.5872   -1.0321 N.pl3   0  UNK0       -0.3270
     26 C          -6.3101   -0.3415   -0.9038 C.ar    0  UNK0        0.1257
     27 C          -5.8539    0.5170    0.0751 C.ar    0  UNK0        0.1354
     28 C          -6.5378    1.7096    0.1813 C.ar    0  UNK0        0.2975
     29 O          -6.1984    2.5467    1.0356 O.2     0  UNK0       -0.2636
     30 N          -7.5643    1.9749   -0.6271 N.ar    0  UNK0       -0.1759
     31 C          -7.9937    1.1105   -1.5842 C.ar    0  UNK0        0.1951
     32 N          -9.0970    1.4418   -2.4239 N.pl3   0  UNK0       -0.3289
     33 N          -7.3546   -0.0784   -1.7306 N.ar    0  UNK0       -0.3147
     34 H          -3.7313    0.5636    2.7391 H       0  UNK0        0.0428
     35 H          -5.3948    1.1373    2.7191 H       0  UNK0        0.0428
     36 H          -4.0462    2.0185    1.7876 H       0  UNK0        0.0428
     37 H          -4.0192   -1.6281    1.4996 H       0  UNK0        0.0530
     38 H          -2.1711    0.0167    1.5445 H       0  UNK0        0.0480
     39 H          -2.3461    0.1867   -0.2786 H       0  UNK0        0.0480
     40 H          -2.0285   -2.6086    0.1620 H       0  UNK0        0.1461
     41 H           0.1508   -3.5643   -0.1759 H       0  UNK0        0.0636
     42 H           2.5439   -3.3276   -0.2937 H       0  UNK0        0.0626
     43 H           2.1267    0.8599    0.5591 H       0  UNK0        0.0626
     44 H          -0.2881    0.5288    0.6597 H       0  UNK0        0.0636
     45 H           4.1537    1.0588    0.4581 H       1  GLU1        0.1498
     46 HA          6.5748   -0.5556   -0.0236 H       1  GLU1        0.0614
     47 HB1         5.7848    2.3365   -0.6337 H       1  GLU1        0.0294
     48 HB2         5.8678    1.0228   -1.8229 H       1  GLU1        0.0294
     49 HG1         7.8245    2.4872   -1.9422 H       1  GLU1        0.0378
     50 HG2         8.1225    2.3196   -0.1947 H       1  GLU1        0.0378
     51 HE1        10.5675    0.2565   -2.1477 H       1  GLU1        0.2951
     52 H           7.7010    0.6665    3.2732 H       1  GLU1        0.2951
     53 H          -3.9316   -2.6961   -0.5686 H       0  UNK0        0.0480
     54 H          -3.6436   -1.2119   -1.5142 H       0  UNK0        0.0480
     55 H          -6.1198   -2.4293   -1.4017 H       0  UNK0        0.1475
     56 H          -8.8101    1.5073   -3.4255 H       0  UNK0        0.1451
     57 H          -9.9107    1.5271   -1.7640 H       0  UNK0        0.1451
     58 H          -7.6435   -0.7828   -2.4525 H       0  UNK0        0.1698
@<TRIPOS>BOND
     1     1     2    1
     2     2     3    1
     3     3     4    1
     4     4     5    1
     5     5     6    1
     6     6     7   ar
     7     7     8   ar
     8     8     9   ar
     9     9    10   ar
    10    10    11   ar
    11     9    12    1
    12    12    13    2
    13    12    14   am
    14    14    15    1
    15    15    16    1
    16    16    17    1
    17    17    18    1
    18    18    19    1
    19    18    20    2
    20    15    21    1
    21    21    22    1
    22    21    23    2
    23     3    24    1
    24    24    25    1
    25    25    26    1
    26    26    27   ar
    27    27    28   ar
    28    28    29    2
    29    28    30   ar
    30    30    31   ar
    31    31    32    1
    32    31    33   ar
    33    27     2    1
    34    11     6   ar
    35    33    26   ar
    36     1    34    1
    37     1    35    1
    38     1    36    1
    39     3    37    1
    40     4    38    1
    41     4    39    1
    42     5    40    1
    43     7    41    1
    44     8    42    1
    45    10    43    1
    46    11    44    1
    47    14    45    1
    48    15    46    1
    49    16    47    1
    50    16    48    1
    51    17    49    1
    52    17    50    1
    53    19    51    1
    54    22    52    1
    55    24    53    1
    56    24    54    1
    57    25    55    1
    58    32    56    1
    59    32    57    1
    60    33    58    1
