
     RDKit          3D

 94 99  0  0  0  0  0  0  0  0999 V2000
   -6.7678   -1.0433    5.2483 C   0  0  0  0  0  0  0  0  0  0  0  0
   -6.9656   -1.1251    3.8561 O   0  0  0  0  0  0  0  0  0  0  0  0
   -6.2338   -0.3459    2.9745 C   0  0  0  0  0  0  0  0  0  0  0  0
   -5.2895    0.5329    3.4392 C   0  0  0  0  0  0  0  0  0  0  0  0
   -4.5791    1.2954    2.5181 C   0  0  0  0  0  0  0  0  0  0  0  0
   -4.8397    1.1479    1.1904 C   0  0  0  0  0  0  0  0  0  0  0  0
   -5.7753    0.2780    0.7297 C   0  0  0  0  0  0  0  0  0  0  0  0
   -6.5022   -0.4958    1.5977 C   0  0  0  0  0  0  0  0  0  0  0  0
   -7.4740   -1.4056    1.2073 O   0  0  0  0  0  0  0  0  0  0  0  0
   -7.8567   -1.6788   -0.1055 C   0  0  0  0  0  0  0  0  0  0  0  0
   -9.3207   -1.2962   -0.3493 C   0  0  0  0  0  0  0  0  0  0  0  0
   -7.7896   -3.1683   -0.4228 C   0  0  0  0  0  0  0  0  0  0  0  0
   -4.0158    2.0284    0.2728 C   0  0  2  0  0  0  0  0  0  0  0  0
   -4.4509    1.9942   -1.0904 C   0  0  0  0  0  0  0  0  0  0  0  0
   -4.1044    0.9413   -1.9033 C   0  0  0  0  0  0  0  0  0  0  0  0
   -4.5193    0.9058   -3.2250 C   0  0  0  0  0  0  0  0  0  0  0  0
   -5.2802    1.9020   -3.7681 C   0  0  0  0  0  0  0  0  0  0  0  0
   -5.8241    1.8881   -5.4392 Cl  0  0  0  0  0  0  0  0  0  0  0  0
   -5.6336    2.9645   -2.9575 C   0  0  0  0  0  0  0  0  0  0  0  0
   -5.2171    2.9973   -1.6360 C   0  0  0  0  0  0  0  0  0  0  0  0
   -2.6698    1.8299    0.6366 N   0  0  0  0  0  0  0  0  0  0  0  0
   -1.5430    1.4193   -0.0802 C   0  0  0  0  0  0  0  0  0  0  0  0
   -0.7812    2.3173   -0.8103 C   0  0  0  0  0  0  0  0  0  0  0  0
    0.3438    1.9583   -1.5068 C   0  0  0  0  0  0  0  0  0  0  0  0
    0.8075    0.6293   -1.5266 C   0  0  0  0  0  0  0  0  0  0  0  0
    1.9779    0.2937   -2.2529 N   0  0  0  0  0  0  0  0  0  0  0  0
    2.6423    1.3928   -2.9564 C   0  0  0  0  0  0  0  0  0  0  0  0
    2.4435   -1.0276   -2.2542 C   0  0  0  0  0  0  0  0  0  0  0  0
    3.7210   -1.3005   -1.5094 C   0  0  1  0  0  0  0  0  0  0  0  0
    4.8861   -0.5090   -2.0496 C   0  0  0  0  0  0  0  0  0  0  0  0
    6.1085   -1.0188   -1.3020 C   0  0  0  0  0  0  0  0  0  0  0  0
    5.9333   -0.4250    0.1052 C   0  0  2  0  0  0  0  0  0  0  0  0
    7.1688   -0.4739    0.7783 N   0  0  0  0  0  0  0  0  0  0  0  0
    7.7821   -1.7372    0.9676 C   0  0  0  0  0  0  0  0  0  0  0  0
    9.0408   -1.6513    1.8276 C   0  0  0  0  0  0  0  0  0  0  0  0
    9.9736   -0.8150    1.0978 N   0  0  0  0  0  0  0  0  0  0  0  0
   11.3934   -0.9928    1.1652 C   0  0  0  0  0  0  0  0  0  0  0  0
    9.3992    0.2117    0.2953 C   0  0  0  0  0  0  0  0  0  0  0  0
   10.0280    0.7068   -0.6783 O   0  0  0  0  0  0  0  0  0  0  0  0
    8.0224    0.6541    0.6818 C   0  0  0  0  0  0  0  0  0  0  0  0
    4.7485   -1.0014    0.8005 C   0  0  0  0  0  0  0  0  0  0  0  0
    3.5682   -1.2825   -0.0298 C   0  0  0  0  0  0  0  0  0  0  0  0
    0.0486   -0.2540   -0.8021 C   0  0  0  0  0  0  0  0  0  0  0  0
   -1.1009    0.1188   -0.0921 C   0  0  0  0  0  0  0  0  0  0  0  0
   -2.4153    2.1424    2.0381 C   0  0  0  0  0  0  0  0  0  0  0  0
   -1.2119    2.3089    2.4511 O   0  0  0  0  0  0  0  0  0  0  0  0
   -3.5333    2.2737    3.0167 C   0  0  0  0  0  0  0  0  0  0  0  0
   -6.6714   -0.0061    5.5650 H   0  0  0  0  0  0  0  0  0  0  0  0
   -5.8902   -1.6453    5.5950 H   0  0  0  0  0  0  0  0  0  0  0  0
   -7.6787   -1.4930    5.7244 H   0  0  0  0  0  0  0  0  0  0  0  0
   -5.0703    0.6593    4.4972 H   0  0  0  0  0  0  0  0  0  0  0  0
   -5.9493    0.1954   -0.3551 H   0  0  0  0  0  0  0  0  0  0  0  0
   -7.2865   -1.1492   -0.8689 H   0  0  0  0  0  0  0  0  0  0  0  0
   -9.6867   -1.8412   -1.2442 H   0  0  0  0  0  0  0  0  0  0  0  0
   -9.9510   -1.6179    0.5040 H   0  0  0  0  0  0  0  0  0  0  0  0
   -9.4121   -0.2146   -0.5651 H   0  0  0  0  0  0  0  0  0  0  0  0
   -7.4799   -3.3085   -1.4800 H   0  0  0  0  0  0  0  0  0  0  0  0
   -7.0408   -3.6421    0.2487 H   0  0  0  0  0  0  0  0  0  0  0  0
   -8.7994   -3.6536   -0.3328 H   0  0  0  0  0  0  0  0  0  0  0  0
   -4.3376    3.0585    0.6576 H   0  0  0  0  0  0  0  0  0  0  0  0
   -3.5156    0.0908   -1.5913 H   0  0  0  0  0  0  0  0  0  0  0  0
   -4.2465    0.0667   -3.8779 H   0  0  0  0  0  0  0  0  0  0  0  0
   -6.2408    3.7704   -3.3686 H   0  0  0  0  0  0  0  0  0  0  0  0
   -5.5416    3.8732   -1.0683 H   0  0  0  0  0  0  0  0  0  0  0  0
   -1.1480    3.3587   -0.7929 H   0  0  0  0  0  0  0  0  0  0  0  0
    0.8965    2.6931   -2.0529 H   0  0  0  0  0  0  0  0  0  0  0  0
    3.3824    0.9637   -3.6906 H   0  0  0  0  0  0  0  0  0  0  0  0
    1.8933    1.8909   -3.6113 H   0  0  0  0  0  0  0  0  0  0  0  0
    3.0532    2.1536   -2.3025 H   0  0  0  0  0  0  0  0  0  0  0  0
    2.6717   -1.2994   -3.3232 H   0  0  0  0  0  0  0  0  0  0  0  0
    1.6904   -1.7471   -1.9414 H   0  0  0  0  0  0  0  0  0  0  0  0
    3.9750   -2.3702   -1.7836 H   0  0  0  0  0  0  0  0  0  0  0  0
    4.9609   -0.7442   -3.1299 H   0  0  0  0  0  0  0  0  0  0  0  0
    4.8225    0.5668   -1.8223 H   0  0  0  0  0  0  0  0  0  0  0  0
    7.0413   -0.6260   -1.7334 H   0  0  0  0  0  0  0  0  0  0  0  0
    6.1085   -2.1316   -1.2473 H   0  0  0  0  0  0  0  0  0  0  0  0
    5.7190    0.6676   -0.1045 H   0  0  0  0  0  0  0  0  0  0  0  0
    8.1660   -2.0710   -0.0439 H   0  0  0  0  0  0  0  0  0  0  0  0
    7.1154   -2.5344    1.3031 H   0  0  0  0  0  0  0  0  0  0  0  0
    9.4268   -2.6811    1.9670 H   0  0  0  0  0  0  0  0  0  0  0  0
    8.8465   -1.1374    2.7908 H   0  0  0  0  0  0  0  0  0  0  0  0
   11.6851   -1.1592    2.2295 H   0  0  0  0  0  0  0  0  0  0  0  0
   11.8833   -0.0712    0.7613 H   0  0  0  0  0  0  0  0  0  0  0  0
   11.6615   -1.8456    0.5136 H   0  0  0  0  0  0  0  0  0  0  0  0
    7.6756    1.3336   -0.1332 H   0  0  0  0  0  0  0  0  0  0  0  0
    8.0538    1.2823    1.5960 H   0  0  0  0  0  0  0  0  0  0  0  0
    4.4478   -0.2828    1.6178 H   0  0  0  0  0  0  0  0  0  0  0  0
    5.0530   -1.9276    1.3599 H   0  0  0  0  0  0  0  0  0  0  0  0
    2.7569   -0.5183    0.1756 H   0  0  0  0  0  0  0  0  0  0  0  0
    3.0839   -2.2366    0.3467 H   0  0  0  0  0  0  0  0  0  0  0  0
    0.3158   -1.2938   -0.7459 H   0  0  0  0  0  0  0  0  0  0  0  0
   -1.6712   -0.6051    0.4660 H   0  0  0  0  0  0  0  0  0  0  0  0
   -3.1808    1.8559    3.9779 H   0  0  0  0  0  0  0  0  0  0  0  0
   -3.9308    3.2885    3.0939 H   0  0  0  0  0  0  0  0  0  0  0  0
  1  2  1  0
  2  3  1  0
  3  4  2  0
  4  5  1  0
  5  6  2  0
  6  7  1  0
  7  8  2  0
  8  9  1  0
  9 10  1  0
 10 11  1  0
 10 12  1  0
  6 13  1  0
 13 14  1  0
 14 15  2  0
 15 16  1  0
 16 17  2  0
 17 18  1  0
 17 19  1  0
 19 20  2  0
 13 21  1  0
 21 22  1  0
 22 23  2  0
 23 24  1  0
 24 25  2  0
 25 26  1  0
 26 27  1  0
 26 28  1  0
 28 29  1  0
 29 30  1  0
 30 31  1  0
 31 32  1  0
 32 33  1  0
 33 34  1  0
 34 35  1  0
 35 36  1  0
 36 37  1  0
 36 38  1  0
 38 39  2  0
 38 40  1  0
 32 41  1  0
 41 42  1  0
 25 43  1  0
 43 44  2  0
 21 45  1  0
 45 46  2  0
 45 47  1  0
  8  3  1  0
 20 14  1  0
 44 22  1  0
 47  5  1  0
 42 29  1  0
 40 33  1  0
  1 48  1  0
  1 49  1  0
  1 50  1  0
  4 51  1  0
  7 52  1  0
 10 53  1  0
 11 54  1  0
 11 55  1  0
 11 56  1  0
 12 57  1  0
 12 58  1  0
 12 59  1  0
 13 60  1  1
 15 61  1  0
 16 62  1  0
 19 63  1  0
 20 64  1  0
 23 65  1  0
 24 66  1  0
 27 67  1  0
 27 68  1  0
 27 69  1  0
 28 70  1  0
 28 71  1  0
 29 72  1  6
 30 73  1  0
 30 74  1  0
 31 75  1  0
 31 76  1  0
 32 77  1  6
 34 78  1  0
 34 79  1  0
 35 80  1  0
 35 81  1  0
 37 82  1  0
 37 83  1  0
 37 84  1  0
 40 85  1  0
 40 86  1  0
 41 87  1  0
 41 88  1  0
 42 89  1  0
 42 90  1  0
 43 91  1  0
 44 92  1  0
 47 93  1  0
 47 94  1  0
M  END
$$$$
