@<TRIPOS>MOLECULE
*****
 94 99 0 0 0
SMALL
GASTEIGER

@<TRIPOS>ATOM
      1 C          -6.7678   -1.0433    5.2483 C.3     1  UNL1        0.0790
      2 O          -6.9656   -1.1251    3.8561 O.3     1  UNL1       -0.4914
      3 C          -6.2338   -0.3459    2.9745 C.ar    1  UNL1        0.1618
      4 C          -5.2895    0.5329    3.4392 C.ar    1  UNL1       -0.0123
      5 C          -4.5791    1.2954    2.5181 C.ar    1  UNL1       -0.0297
      6 C          -4.8397    1.1479    1.1904 C.ar    1  UNL1       -0.0150
      7 C          -5.7753    0.2780    0.7297 C.ar    1  UNL1       -0.0107
      8 C          -6.5022   -0.4958    1.5977 C.ar    1  UNL1        0.1626
      9 O          -7.4740   -1.4056    1.2073 O.3     1  UNL1       -0.4857
     10 C          -7.8567   -1.6788   -0.1055 C.3     1  UNL1        0.0948
     11 C          -9.3207   -1.2962   -0.3493 C.3     1  UNL1       -0.0281
     12 C          -7.7896   -3.1683   -0.4228 C.3     1  UNL1       -0.0281
     13 C          -4.0158    2.0284    0.2728 C.3     1  UNL1        0.0815
     14 C          -4.4509    1.9942   -1.0904 C.ar    1  UNL1       -0.0222
     15 C          -4.1044    0.9413   -1.9033 C.ar    1  UNL1       -0.0551
     16 C          -4.5193    0.9058   -3.2250 C.ar    1  UNL1       -0.0431
     17 C          -5.2802    1.9020   -3.7681 C.ar    1  UNL1        0.0410
     18 CL         -5.8241    1.8881   -5.4392 Cl      1  UNL1       -0.0835
     19 C          -5.6336    2.9645   -2.9575 C.ar    1  UNL1       -0.0431
     20 C          -5.2171    2.9973   -1.6360 C.ar    1  UNL1       -0.0551
     21 N          -2.6698    1.8299    0.6366 N.am    1  UNL1       -0.2596
     22 C          -1.5430    1.4193   -0.0802 C.ar    1  UNL1        0.0374
     23 C          -0.7812    2.3173   -0.8103 C.ar    1  UNL1       -0.0385
     24 C           0.3438    1.9583   -1.5068 C.ar    1  UNL1       -0.0389
     25 C           0.8075    0.6293   -1.5266 C.ar    1  UNL1        0.0296
     26 N           1.9779    0.2937   -2.2529 N.pl3   1  UNL1       -0.3327
     27 C           2.6423    1.3928   -2.9564 C.3     1  UNL1        0.0007
     28 C           2.4435   -1.0276   -2.2542 C.3     1  UNL1        0.0147
     29 C           3.7210   -1.3005   -1.5094 C.3     1  UNL1       -0.0252
     30 C           4.8861   -0.5090   -2.0496 C.3     1  UNL1       -0.0474
     31 C           6.1085   -1.0188   -1.3020 C.3     1  UNL1       -0.0370
     32 C           5.9333   -0.4250    0.1052 C.3     1  UNL1        0.0110
     33 N           7.1688   -0.4739    0.7783 N.3     1  UNL1       -0.2895
     34 C           7.7821   -1.7372    0.9676 C.3     1  UNL1        0.0155
     35 C           9.0408   -1.6513    1.8276 C.3     1  UNL1        0.0272
     36 N           9.9736   -0.8150    1.0978 N.am    1  UNL1       -0.3023
     37 C          11.3934   -0.9928    1.1652 C.3     1  UNL1        0.0032
     38 C           9.3992    0.2117    0.2953 C.2     1  UNL1        0.2295
     39 O          10.0280    0.7068   -0.6783 O.2     1  UNL1       -0.2742
     40 C           8.0224    0.6541    0.6818 C.3     1  UNL1        0.0762
     41 C           4.7485   -1.0014    0.8005 C.3     1  UNL1       -0.0370
     42 C           3.5682   -1.2825   -0.0298 C.3     1  UNL1       -0.0474
     43 C           0.0486   -0.2540   -0.8021 C.ar    1  UNL1       -0.0389
     44 C          -1.1009    0.1188   -0.0921 C.ar    1  UNL1       -0.0385
     45 C          -2.4153    2.1424    2.0381 C.2     1  UNL1        0.2249
     46 O          -1.2119    2.3089    2.4511 O.2     1  UNL1       -0.2749
     47 C          -3.5333    2.2737    3.0167 C.3     1  UNL1        0.0501
     48 H          -6.6714   -0.0061    5.5650 H       1  UNL1        0.0660
     49 H          -5.8902   -1.6453    5.5950 H       1  UNL1        0.0660
     50 H          -7.6787   -1.4930    5.7244 H       1  UNL1        0.0660
     51 H          -5.0703    0.6593    4.4972 H       1  UNL1        0.0658
     52 H          -5.9493    0.1954   -0.3551 H       1  UNL1        0.0659
     53 H          -7.2865   -1.1492   -0.8689 H       1  UNL1        0.0727
     54 H          -9.6867   -1.8412   -1.2442 H       1  UNL1        0.0265
     55 H          -9.9510   -1.6179    0.5040 H       1  UNL1        0.0265
     56 H          -9.4121   -0.2146   -0.5651 H       1  UNL1        0.0265
     57 H          -7.4799   -3.3085   -1.4800 H       1  UNL1        0.0265
     58 H          -7.0408   -3.6421    0.2487 H       1  UNL1        0.0265
     59 H          -8.7994   -3.6536   -0.3328 H       1  UNL1        0.0265
     60 H          -4.3376    3.0585    0.6576 H       1  UNL1        0.0604
     61 H          -3.5156    0.0908   -1.5913 H       1  UNL1        0.0621
     62 H          -4.2465    0.0667   -3.8779 H       1  UNL1        0.0632
     63 H          -6.2408    3.7704   -3.3686 H       1  UNL1        0.0632
     64 H          -5.5416    3.8732   -1.0683 H       1  UNL1        0.0621
     65 H          -1.1480    3.3587   -0.7929 H       1  UNL1        0.0637
     66 H           0.8965    2.6931   -2.0529 H       1  UNL1        0.0637
     67 H           3.3824    0.9637   -3.6906 H       1  UNL1        0.0428
     68 H           1.8933    1.8909   -3.6113 H       1  UNL1        0.0428
     69 H           3.0532    2.1536   -2.3025 H       1  UNL1        0.0428
     70 H           2.6717   -1.2994   -3.3232 H       1  UNL1        0.0466
     71 H           1.6904   -1.7471   -1.9414 H       1  UNL1        0.0466
     72 H           3.9750   -2.3702   -1.7836 H       1  UNL1        0.0316
     73 H           4.9609   -0.7442   -3.1299 H       1  UNL1        0.0269
     74 H           4.8225    0.5668   -1.8223 H       1  UNL1        0.0269
     75 H           7.0413   -0.6260   -1.7334 H       1  UNL1        0.0280
     76 H           6.1085   -2.1316   -1.2473 H       1  UNL1        0.0280
     77 H           5.7190    0.6676   -0.1045 H       1  UNL1        0.0463
     78 H           8.1660   -2.0710   -0.0439 H       1  UNL1        0.0442
     79 H           7.1154   -2.5344    1.3031 H       1  UNL1        0.0442
     80 H           9.4268   -2.6811    1.9670 H       1  UNL1        0.0477
     81 H           8.8465   -1.1374    2.7908 H       1  UNL1        0.0477
     82 H          11.6851   -1.1592    2.2295 H       1  UNL1        0.0428
     83 H          11.8833   -0.0712    0.7613 H       1  UNL1        0.0428
     84 H          11.6615   -1.8456    0.5136 H       1  UNL1        0.0428
     85 H           7.6756    1.3336   -0.1332 H       1  UNL1        0.0522
     86 H           8.0538    1.2823    1.5960 H       1  UNL1        0.0522
     87 H           4.4478   -0.2828    1.6178 H       1  UNL1        0.0280
     88 H           5.0530   -1.9276    1.3599 H       1  UNL1        0.0280
     89 H           2.7569   -0.5183    0.1756 H       1  UNL1        0.0269
     90 H           3.0839   -2.2366    0.3467 H       1  UNL1        0.0269
     91 H           0.3158   -1.2938   -0.7459 H       1  UNL1        0.0637
     92 H          -1.6712   -0.6051    0.4660 H       1  UNL1        0.0637
     93 H          -3.1808    1.8559    3.9779 H       1  UNL1        0.0407
     94 H          -3.9308    3.2885    3.0939 H       1  UNL1        0.0407
@<TRIPOS>BOND
     1     1     2    1
     2     2     3    1
     3     3     4   ar
     4     4     5   ar
     5     5     6   ar
     6     6     7   ar
     7     7     8   ar
     8     8     9    1
     9     9    10    1
    10    10    11    1
    11    10    12    1
    12     6    13    1
    13    13    14    1
    14    14    15   ar
    15    15    16   ar
    16    16    17   ar
    17    17    18    1
    18    17    19   ar
    19    19    20   ar
    20    13    21    1
    21    21    22    1
    22    22    23   ar
    23    23    24   ar
    24    24    25   ar
    25    25    26    1
    26    26    27    1
    27    26    28    1
    28    28    29    1
    29    29    30    1
    30    30    31    1
    31    31    32    1
    32    32    33    1
    33    33    34    1
    34    34    35    1
    35    35    36    1
    36    36    37    1
    37    36    38   am
    38    38    39    2
    39    38    40    1
    40    32    41    1
    41    41    42    1
    42    25    43   ar
    43    43    44   ar
    44    21    45   am
    45    45    46    2
    46    45    47    1
    47     8     3   ar
    48    20    14   ar
    49    44    22   ar
    50    47     5    1
    51    42    29    1
    52    40    33    1
    53     1    48    1
    54     1    49    1
    55     1    50    1
    56     4    51    1
    57     7    52    1
    58    10    53    1
    59    11    54    1
    60    11    55    1
    61    11    56    1
    62    12    57    1
    63    12    58    1
    64    12    59    1
    65    13    60    1
    66    15    61    1
    67    16    62    1
    68    19    63    1
    69    20    64    1
    70    23    65    1
    71    24    66    1
    72    27    67    1
    73    27    68    1
    74    27    69    1
    75    28    70    1
    76    28    71    1
    77    29    72    1
    78    30    73    1
    79    30    74    1
    80    31    75    1
    81    31    76    1
    82    32    77    1
    83    34    78    1
    84    34    79    1
    85    35    80    1
    86    35    81    1
    87    37    82    1
    88    37    83    1
    89    37    84    1
    90    40    85    1
    91    40    86    1
    92    41    87    1
    93    41    88    1
    94    42    89    1
    95    42    90    1
    96    43    91    1
    97    44    92    1
    98    47    93    1
    99    47    94    1
