@<TRIPOS>MOLECULE
*****
 46 49 0 0 0
SMALL
GASTEIGER

@<TRIPOS>ATOM
      1 C           8.3611    0.4728    0.2336 C.3     1  UNL1       -0.0396
      2 C           7.0804   -0.2793   -0.0092 C.ar    1  UNL1       -0.0485
      3 C           7.0920   -1.6439   -0.2044 C.ar    1  UNL1       -0.0560
      4 C           5.8920   -2.2757   -0.4222 C.ar    1  UNL1       -0.0244
      5 C           4.6703   -1.5877   -0.4523 C.ar    1  UNL1        0.1445
      6 F           3.5600   -2.3080   -0.7130 F       1  UNL1       -0.2035
      7 C           4.6572   -0.2387   -0.2580 C.ar    1  UNL1        0.0704
      8 N           3.5071    0.5869   -0.2150 N.am    1  UNL1       -0.2667
      9 C           2.1720    0.1786   -0.0045 C.2     1  UNL1        0.3082
     10 O           1.9136   -1.0164    0.1955 O.2     1  UNL1       -0.2522
     11 N           1.1320    1.1502   -0.0247 N.am    1  UNL1       -0.2692
     12 C          -0.2221    0.8763    0.1688 C.ar    1  UNL1        0.0348
     13 C          -1.0954    1.9771    0.1114 C.ar    1  UNL1       -0.0399
     14 C          -2.4257    1.8260    0.2843 C.ar    1  UNL1       -0.0523
     15 C          -2.9606    0.5770    0.5230 C.ar    1  UNL1       -0.0170
     16 C          -4.4102    0.5371    0.7176 C.ar    1  UNL1       -0.0054
     17 C          -5.0147    1.2916    1.7177 C.ar    1  UNL1       -0.0532
     18 C          -6.3651    1.2434    1.9402 C.ar    1  UNL1       -0.0592
     19 C          -7.1599    0.4381    1.1693 C.ar    1  UNL1       -0.0362
     20 C          -6.5991   -0.3304    0.1607 C.ar    1  UNL1        0.0682
     21 N          -7.1505   -1.1838   -0.7328 N.ar    1  UNL1       -0.2752
     22 N          -6.1663   -1.6403   -1.4783 N.ar    1  UNL1       -0.1580
     23 C          -4.9783   -1.1150   -1.1055 C.ar    1  UNL1        0.1462
     24 N          -3.7023   -1.3470   -1.6706 N.pl3   1  UNL1       -0.3412
     25 C          -5.2228   -0.2644   -0.0468 C.ar    1  UNL1        0.0486
     26 C          -2.1540   -0.5016    0.5855 C.ar    1  UNL1       -0.0523
     27 C          -0.7847   -0.3561    0.4087 C.ar    1  UNL1       -0.0399
     28 C           5.9093    0.3819   -0.0371 C.ar    1  UNL1       -0.0347
     29 H           8.2754    1.1359    1.1215 H       1  UNL1        0.0278
     30 H           9.2065   -0.2473    0.3248 H       1  UNL1        0.0278
     31 H           8.6044    1.1321   -0.6260 H       1  UNL1        0.0278
     32 H           8.0083   -2.2118   -0.1893 H       1  UNL1        0.0621
     33 H           5.8809   -3.3431   -0.5770 H       1  UNL1        0.0647
     34 H           3.6511    1.6471   -0.3648 H       1  UNL1        0.1565
     35 H           1.4224    2.1632   -0.2026 H       1  UNL1        0.1564
     36 H          -0.7272    2.9900   -0.0747 H       1  UNL1        0.0636
     37 H          -3.0799    2.7129    0.2324 H       1  UNL1        0.0624
     38 H          -4.3344    1.9163    2.3023 H       1  UNL1        0.0624
     39 H          -6.7926    1.8362    2.7164 H       1  UNL1        0.0618
     40 H          -8.2291    0.3798    1.3229 H       1  UNL1        0.0639
     41 H          -8.1642   -1.3943   -0.7697 H       1  UNL1        0.1890
     42 H          -3.2147   -0.6227   -2.2230 H       1  UNL1        0.1438
     43 H          -3.2439   -2.2638   -1.5287 H       1  UNL1        0.1438
     44 H          -2.5524   -1.4901    0.7877 H       1  UNL1        0.0624
     45 H          -0.1564   -1.2443    0.4637 H       1  UNL1        0.0636
     46 H           5.9105    1.4554    0.1183 H       1  UNL1        0.0640
@<TRIPOS>BOND
     1     1     2    1
     2     2     3   ar
     3     3     4   ar
     4     4     5   ar
     5     5     6    1
     6     5     7   ar
     7     7     8    1
     8     8     9   am
     9     9    10    2
    10     9    11   am
    11    11    12    1
    12    12    13   ar
    13    13    14   ar
    14    14    15   ar
    15    15    16    1
    16    16    17   ar
    17    17    18   ar
    18    18    19   ar
    19    19    20   ar
    20    20    21   ar
    21    21    22   ar
    22    22    23   ar
    23    23    24    1
    24    23    25   ar
    25    15    26   ar
    26    26    27   ar
    27     7    28   ar
    28    28     2   ar
    29    27    12   ar
    30    25    16   ar
    31    25    20   ar
    32     1    29    1
    33     1    30    1
    34     1    31    1
    35     3    32    1
    36     4    33    1
    37     8    34    1
    38    11    35    1
    39    13    36    1
    40    14    37    1
    41    17    38    1
    42    18    39    1
    43    19    40    1
    44    21    41    1
    45    24    42    1
    46    24    43    1
    47    26    44    1
    48    27    45    1
    49    28    46    1
