
     RDKit          3D

 29 29  0  0  0  0  0  0  0  0999 V2000
    1.8193   -1.5071   -0.6798 N   0  0  0  0  0  0  0  0  0  0  0  0
    2.0147   -0.1452   -0.2182 C   0  0  1  0  0  0  0  0  0  0  0  0
    1.0695    0.2379    0.8660 C   0  0  0  0  0  0  0  0  0  0  0  0
   -0.3876    0.1703    0.5091 C   0  0  0  0  0  0  0  0  0  0  0  0
   -0.7158    1.0903   -0.6480 C   0  0  0  0  0  0  0  0  0  0  0  0
   -2.1943    1.3919   -0.5229 C   0  0  0  0  0  0  0  0  0  0  0  0
   -2.8968    0.3524    0.2908 C   0  0  0  0  0  0  0  0  0  0  0  0
   -2.4213   -1.0479    0.0571 C   0  0  0  0  0  0  0  0  0  0  0  0
   -0.9053   -1.1820    0.1695 C   0  0  0  0  0  0  0  0  0  0  0  0
    3.3885   -0.0383    0.3633 C   0  0  0  0  0  0  0  0  0  0  0  0
    3.7616    1.2216    0.8675 O   0  0  0  0  0  0  0  0  0  0  0  0
    4.2244   -0.9796    0.4339 O   0  0  0  0  0  0  0  0  0  0  0  0
    1.7223   -2.0959    0.1896 H   0  0  0  0  0  0  0  0  0  0  0  0
    2.6830   -1.8573   -1.1526 H   0  0  0  0  0  0  0  0  0  0  0  0
    1.9480    0.4967   -1.1164 H   0  0  0  0  0  0  0  0  0  0  0  0
    1.2699    1.3164    1.0991 H   0  0  0  0  0  0  0  0  0  0  0  0
    1.3018   -0.3254    1.7754 H   0  0  0  0  0  0  0  0  0  0  0  0
   -0.9367    0.5361    1.4110 H   0  0  0  0  0  0  0  0  0  0  0  0
   -0.6024    0.5031   -1.6025 H   0  0  0  0  0  0  0  0  0  0  0  0
   -0.0887    2.0025   -0.6724 H   0  0  0  0  0  0  0  0  0  0  0  0
   -2.2354    2.3860    0.0101 H   0  0  0  0  0  0  0  0  0  0  0  0
   -2.6539    1.5055   -1.5249 H   0  0  0  0  0  0  0  0  0  0  0  0
   -3.9667    0.3660   -0.0707 H   0  0  0  0  0  0  0  0  0  0  0  0
   -2.9810    0.6308    1.3646 H   0  0  0  0  0  0  0  0  0  0  0  0
   -2.9382   -1.6903    0.8071 H   0  0  0  0  0  0  0  0  0  0  0  0
   -2.8012   -1.3733   -0.9351 H   0  0  0  0  0  0  0  0  0  0  0  0
   -0.6710   -1.9307    0.9528 H   0  0  0  0  0  0  0  0  0  0  0  0
   -0.5566   -1.5464   -0.8097 H   0  0  0  0  0  0  0  0  0  0  0  0
    4.7499    1.5119    0.9167 H   0  0  0  0  0  0  0  0  0  0  0  0
  1  2  1  0
  2  3  1  0
  3  4  1  0
  4  5  1  0
  5  6  1  0
  6  7  1  0
  7  8  1  0
  8  9  1  0
  2 10  1  0
 10 11  1  0
 10 12  2  0
  9  4  1  0
  1 13  1  0
  1 14  1  0
  2 15  1  6
  3 16  1  0
  3 17  1  0
  4 18  1  0
  5 19  1  0
  5 20  1  0
  6 21  1  0
  6 22  1  0
  7 23  1  0
  7 24  1  0
  8 25  1  0
  8 26  1  0
  9 27  1  0
  9 28  1  0
 11 29  1  0
M  END
$$$$
