@<TRIPOS>MOLECULE
*****
 29 29 0 0 0
SMALL
GASTEIGER

@<TRIPOS>ATOM
      1 N           1.8193   -1.5071   -0.6798 N.3     1  PHE1       -0.3184
      2 CA          2.0147   -0.1452   -0.2182 C.3     1  PHE1        0.1035
      3 CB          1.0695    0.2379    0.8660 C.3     1  PHE1       -0.0245
      4 CG         -0.3876    0.1703    0.5091 C.3     1  PHE1       -0.0391
      5 CD1        -0.7158    1.0903   -0.6480 C.3     1  PHE1       -0.0501
      6 CE1        -2.1943    1.3919   -0.5229 C.3     1  PHE1       -0.0528
      7 CZ         -2.8968    0.3524    0.2908 C.3     1  PHE1       -0.0530
      8 CE2        -2.4213   -1.0479    0.0571 C.3     1  PHE1       -0.0528
      9 CD2        -0.9053   -1.1820    0.1695 C.3     1  PHE1       -0.0501
     10 C           3.3885   -0.0383    0.3633 C.2     1  PHE1        0.3217
     11 O           3.7616    1.2216    0.8675 O.3     1  PHE1       -0.4795
     12 OXT         4.2244   -0.9796    0.4339 O.2     1  PHE1       -0.2493
     13 H1          1.7223   -2.0959    0.1896 H       1  PHE1        0.1190
     14 H2          2.6830   -1.8573   -1.1526 H       1  PHE1        0.1190
     15 HA          1.9480    0.4967   -1.1164 H       1  PHE1        0.0574
     16 HB1         1.2699    1.3164    1.0991 H       1  PHE1        0.0288
     17 HB2         1.3018   -0.3254    1.7754 H       1  PHE1        0.0288
     18 HG         -0.9367    0.5361    1.4110 H       1  PHE1        0.0301
     19 HD11       -0.6024    0.5031   -1.6025 H       1  PHE1        0.0268
     20 HD12       -0.0887    2.0025   -0.6724 H       1  PHE1        0.0268
     21 HE11       -2.2354    2.3860    0.0101 H       1  PHE1        0.0265
     22 HE12       -2.6539    1.5055   -1.5249 H       1  PHE1        0.0265
     23 HZ1        -3.9667    0.3660   -0.0707 H       1  PHE1        0.0265
     24 HZ2        -2.9810    0.6308    1.3646 H       1  PHE1        0.0265
     25 HE21       -2.9382   -1.6903    0.8071 H       1  PHE1        0.0265
     26 HE22       -2.8012   -1.3733   -0.9351 H       1  PHE1        0.0265
     27 HD21       -0.6710   -1.9307    0.9528 H       1  PHE1        0.0268
     28 HD22       -0.5566   -1.5464   -0.8097 H       1  PHE1        0.0268
     29 H           4.7499    1.5119    0.9167 H       1  PHE1        0.2951
@<TRIPOS>BOND
     1     1     2    1
     2     2     3    1
     3     3     4    1
     4     4     5    1
     5     5     6    1
     6     6     7    1
     7     7     8    1
     8     8     9    1
     9     2    10    1
    10    10    11    1
    11    10    12    2
    12     9     4    1
    13     1    13    1
    14     1    14    1
    15     2    15    1
    16     3    16    1
    17     3    17    1
    18     4    18    1
    19     5    19    1
    20     5    20    1
    21     6    21    1
    22     6    22    1
    23     7    23    1
    24     7    24    1
    25     8    25    1
    26     8    26    1
    27     9    27    1
    28     9    28    1
    29    11    29    1
