
     RDKit          3D

 45 45  0  0  0  0  0  0  0  0999 V2000
   -2.5146    1.2997    1.3731 C   0  0  0  0  0  0  0  0  0  0  0  0
   -3.1066    0.2745    0.5448 N   0  0  0  0  0  4  0  0  0  0  0  0
   -3.7202   -0.6901    1.4375 C   0  0  0  0  0  0  0  0  0  0  0  0
   -4.2525    0.9359   -0.1147 C   0  0  0  0  0  0  0  0  0  0  0  0
   -2.2952   -0.2764   -0.4608 C   0  0  1  0  0  0  0  0  0  0  0  0
   -1.4424   -1.4441   -0.2006 C   0  0  0  0  0  0  0  0  0  0  0  0
   -0.3685   -1.3890    0.8050 C   0  0  0  0  0  0  0  0  0  0  0  0
    0.7060   -0.4053    0.5277 C   0  0  0  0  0  0  0  0  0  0  0  0
    1.8050   -0.7492   -0.2125 N   0  0  0  0  0  0  0  0  0  0  0  0
    2.6466    0.2720   -0.3327 C   0  0  0  0  0  0  0  0  0  0  0  0
    3.9411    0.2756   -1.0628 C   0  0  0  0  0  0  0  0  0  0  0  0
    5.0496   -0.1371   -0.1169 C   0  0  2  0  0  0  0  0  0  0  0  0
    5.0769    0.8358    0.9841 N   0  0  0  0  0  0  0  0  0  0  0  0
    6.3559   -0.1739   -0.8111 C   0  0  0  0  0  0  0  0  0  0  0  0
    7.3713    0.6603   -0.3693 O   0  0  0  0  0  0  0  0  0  0  0  0
    6.5220   -0.9521   -1.7793 O   0  0  0  0  0  0  0  0  0  0  0  0
    2.1061    1.3396    0.3439 C   0  0  0  0  0  0  0  0  0  0  0  0
    0.9526    0.8645    0.8304 N   0  0  0  0  0  0  0  0  0  0  0  0
   -3.0542   -0.6623   -1.7096 C   0  0  0  0  0  0  0  0  0  0  0  0
   -4.3646   -0.6691   -2.2541 N   0  0  0  0  0  0  0  0  0  0  0  0
   -2.4012   -1.1546   -2.6489 O   0  0  0  0  0  0  0  0  0  0  0  0
   -1.9307    2.0369    0.7722 H   0  0  0  0  0  0  0  0  0  0  0  0
   -3.2761    1.9212    1.8884 H   0  0  0  0  0  0  0  0  0  0  0  0
   -1.8930    0.8646    2.1981 H   0  0  0  0  0  0  0  0  0  0  0  0
   -4.5963   -0.2386    1.9739 H   0  0  0  0  0  0  0  0  0  0  0  0
   -3.0501   -1.0195    2.2565 H   0  0  0  0  0  0  0  0  0  0  0  0
   -4.1084   -1.5694    0.9385 H   0  0  0  0  0  0  0  0  0  0  0  0
   -5.1224    0.2738   -0.2129 H   0  0  0  0  0  0  0  0  0  0  0  0
   -4.0165    1.3657   -1.0803 H   0  0  0  0  0  0  0  0  0  0  0  0
   -4.6119    1.8084    0.5080 H   0  0  0  0  0  0  0  0  0  0  0  0
   -1.6069    0.5543   -0.8152 H   0  0  0  0  0  0  0  0  0  0  0  0
   -2.0274   -2.4149   -0.1290 H   0  0  0  0  0  0  0  0  0  0  0  0
   -0.9032   -1.6257   -1.1884 H   0  0  0  0  0  0  0  0  0  0  0  0
    0.1152   -2.4002    0.8278 H   0  0  0  0  0  0  0  0  0  0  0  0
   -0.7075   -1.2215    1.8470 H   0  0  0  0  0  0  0  0  0  0  0  0
    4.1140    1.2945   -1.4424 H   0  0  0  0  0  0  0  0  0  0  0  0
    3.8917   -0.4536   -1.8736 H   0  0  0  0  0  0  0  0  0  0  0  0
    4.8280   -1.1446    0.2905 H   0  0  0  0  0  0  0  0  0  0  0  0
    4.3538    0.5276    1.6728 H   0  0  0  0  0  0  0  0  0  0  0  0
    4.8084    1.7484    0.5516 H   0  0  0  0  0  0  0  0  0  0  0  0
    8.3374    0.3890   -0.5035 H   0  0  0  0  0  0  0  0  0  0  0  0
    2.4854    2.3370    0.4760 H   0  0  0  0  0  0  0  0  0  0  0  0
    0.3062    1.4421    1.4037 H   0  0  0  0  0  0  0  0  0  0  0  0
   -5.2043   -1.2643   -2.0979 H   0  0  0  0  0  0  0  0  0  0  0  0
   -5.1988   -1.2659   -2.0943 H   0  0  0  0  0  0  0  0  0  0  0  0
  1  2  1  0
  2  3  1  0
  2  4  1  0
  2  5  1  0
  5  6  1  0
  6  7  1  0
  7  8  1  0
  8  9  2  0
  9 10  1  0
 10 11  1  0
 11 12  1  0
 12 13  1  0
 12 14  1  0
 14 15  1  0
 14 16  2  0
 10 17  2  0
 17 18  1  0
  5 19  1  0
 19 20  1  0
 19 21  2  0
 18  8  1  0
  1 22  1  0
  1 23  1  0
  1 24  1  0
  3 25  1  0
  3 26  1  0
  3 27  1  0
  4 28  1  0
  4 29  1  0
  4 30  1  0
  5 31  1  6
  6 32  1  0
  6 33  1  0
  7 34  1  0
  7 35  1  0
 11 36  1  0
 11 37  1  0
 12 38  1  1
 13 39  1  0
 13 40  1  0
 15 41  1  0
 17 42  1  0
 18 43  1  0
 20 44  1  0
 20 45  1  0
M  CHG  1   2   1
M  END
$$$$
