
     RDKit          3D

 38 40  0  0  0  0  0  0  0  0999 V2000
   -6.2148    0.2925    0.3718 C   0  0  0  0  0  0  0  0  0  0  0  0
   -5.0650   -0.1148   -0.4102 N   0  0  0  0  0  0  0  0  0  0  0  0
   -5.2994   -0.7425   -1.6914 C   0  0  0  0  0  0  0  0  0  0  0  0
   -3.7770    0.1158    0.1062 C   0  0  0  0  0  0  0  0  0  0  0  0
   -3.5418    0.7131    1.3259 C   0  0  0  0  0  0  0  0  0  0  0  0
   -2.2681    0.9233    1.8006 C   0  0  0  0  0  0  0  0  0  0  0  0
   -1.1499    0.5301    1.0461 C   0  0  0  0  0  0  0  0  0  0  0  0
    0.0390    0.7669    1.5713 N   0  0  0  0  0  0  0  0  0  0  0  0
    1.2423    0.4991    1.0744 C   0  0  0  0  0  0  0  0  0  0  0  0
    2.3939    0.8309    1.7907 C   0  0  0  0  0  0  0  0  0  0  0  0
    3.6223    0.5500    1.2680 C   0  0  0  0  0  0  0  0  0  0  0  0
    3.8506   -0.0515    0.0574 C   0  0  0  0  0  0  0  0  0  0  0  0
    5.0083   -0.3093   -0.4215 N   0  0  0  0  0  4  0  0  0  0  0  0
    6.1902    0.0383    0.3273 C   0  0  0  0  0  0  0  0  0  0  0  0
    5.1395   -0.9446   -1.7043 C   0  0  0  0  0  0  0  0  0  0  0  0
    2.7319   -0.3902   -0.6718 C   0  0  0  0  0  0  0  0  0  0  0  0
    1.4564   -0.1416   -0.2164 C   0  0  0  0  0  0  0  0  0  0  0  0
    0.0139   -0.5204   -1.0391 S   0  0  0  0  0  0  0  0  0  0  0  0
   -1.4058   -0.0653   -0.1706 C   0  0  0  0  0  0  0  0  0  0  0  0
   -2.6841   -0.2722   -0.6387 C   0  0  0  0  0  0  0  0  0  0  0  0
   -6.1652   -0.3052    1.3222 H   0  0  0  0  0  0  0  0  0  0  0  0
   -6.2181    1.3722    0.5890 H   0  0  0  0  0  0  0  0  0  0  0  0
   -7.1693   -0.0162   -0.1103 H   0  0  0  0  0  0  0  0  0  0  0  0
   -5.1634   -1.8487   -1.5251 H   0  0  0  0  0  0  0  0  0  0  0  0
   -4.5804   -0.3758   -2.4764 H   0  0  0  0  0  0  0  0  0  0  0  0
   -6.3351   -0.5492   -2.0369 H   0  0  0  0  0  0  0  0  0  0  0  0
   -4.4163    1.0075    1.8894 H   0  0  0  0  0  0  0  0  0  0  0  0
   -2.1417    1.4020    2.7757 H   0  0  0  0  0  0  0  0  0  0  0  0
    2.2722    1.3168    2.7710 H   0  0  0  0  0  0  0  0  0  0  0  0
    4.5230    0.8169    1.8435 H   0  0  0  0  0  0  0  0  0  0  0  0
    6.1769    1.1003    0.6839 H   0  0  0  0  0  0  0  0  0  0  0  0
    7.1141   -0.0375   -0.2986 H   0  0  0  0  0  0  0  0  0  0  0  0
    6.3179   -0.6022    1.2436 H   0  0  0  0  0  0  0  0  0  0  0  0
    6.1839   -1.1972   -1.8861 H   0  0  0  0  0  0  0  0  0  0  0  0
    4.5603   -1.8898   -1.7794 H   0  0  0  0  0  0  0  0  0  0  0  0
    4.7296   -0.2770   -2.5151 H   0  0  0  0  0  0  0  0  0  0  0  0
    2.7983   -0.8728   -1.6476 H   0  0  0  0  0  0  0  0  0  0  0  0
   -2.7691   -0.7517   -1.6140 H   0  0  0  0  0  0  0  0  0  0  0  0
  1  2  1  0
  2  3  1  0
  2  4  1  0
  4  5  2  0
  5  6  1  0
  6  7  2  0
  7  8  1  0
  8  9  2  0
  9 10  1  0
 10 11  2  0
 11 12  1  0
 12 13  2  3
 13 14  1  0
 13 15  1  0
 12 16  1  0
 16 17  2  0
 17 18  1  0
 18 19  1  0
 19 20  2  0
 20  4  1  0
 19  7  1  0
 17  9  1  0
  1 21  1  0
  1 22  1  0
  1 23  1  0
  3 24  1  0
  3 25  1  0
  3 26  1  0
  5 27  1  0
  6 28  1  0
 10 29  1  0
 11 30  1  0
 14 31  1  0
 14 32  1  0
 14 33  1  0
 15 34  1  0
 15 35  1  0
 15 36  1  0
 16 37  1  0
 20 38  1  0
M  CHG  1  13   1
M  END
$$$$
