@<TRIPOS>MOLECULE
*****
 38 40 0 0 0
SMALL
GASTEIGER

@<TRIPOS>ATOM
      1 C          -6.2148    0.2925    0.3718 C.3     1  UNL1        0.0004
      2 N          -5.0650   -0.1148   -0.4102 N.pl3   1  UNL1       -0.3360
      3 C          -5.2994   -0.7425   -1.6914 C.3     1  UNL1        0.0004
      4 C          -3.7770    0.1158    0.1062 C.ar    1  UNL1        0.0304
      5 C          -3.5418    0.7131    1.3259 C.ar    1  UNL1       -0.0386
      6 C          -2.2681    0.9233    1.8006 C.ar    1  UNL1       -0.0335
      7 C          -1.1499    0.5301    1.0461 C.ar    1  UNL1        0.0784
      8 N           0.0390    0.7669    1.5713 N.ar    1  UNL1       -0.2456
      9 C           1.2423    0.4991    1.0744 C.ar    1  UNL1        0.0787
     10 C           2.3939    0.8309    1.7907 C.ar    1  UNL1       -0.0290
     11 C           3.6223    0.5500    1.2680 C.ar    1  UNL1        0.0113
     12 C           3.8506   -0.0515    0.0574 C.ar    1  UNL1        0.2033
     13 N           5.0083   -0.3093   -0.4215 N.2     1  UNL1       -0.2338
     14 C           6.1902    0.0383    0.3273 C.3     1  UNL1        0.1352
     15 C           5.1395   -0.9446   -1.7043 C.3     1  UNL1        0.1352
     16 C           2.7319   -0.3902   -0.6718 C.ar    1  UNL1        0.0250
     17 C           1.4564   -0.1416   -0.2164 C.ar    1  UNL1        0.0443
     18 S           0.0139   -0.5204   -1.0391 S.2     1  UNL1       -0.0849
     19 C          -1.4058   -0.0653   -0.1706 C.ar    1  UNL1        0.0399
     20 C          -2.6841   -0.2722   -0.6387 C.ar    1  UNL1       -0.0249
     21 H          -6.1652   -0.3052    1.3222 H       1  UNL1        0.0428
     22 H          -6.2181    1.3722    0.5890 H       1  UNL1        0.0428
     23 H          -7.1693   -0.0162   -0.1103 H       1  UNL1        0.0428
     24 H          -5.1634   -1.8487   -1.5251 H       1  UNL1        0.0428
     25 H          -4.5804   -0.3758   -2.4764 H       1  UNL1        0.0428
     26 H          -6.3351   -0.5492   -2.0369 H       1  UNL1        0.0428
     27 H          -4.4163    1.0075    1.8894 H       1  UNL1        0.0637
     28 H          -2.1417    1.4020    2.7757 H       1  UNL1        0.0640
     29 H           2.2722    1.3168    2.7710 H       1  UNL1        0.0641
     30 H           4.5230    0.8169    1.8435 H       1  UNL1        0.0684
     31 H           6.1769    1.1003    0.6839 H       1  UNL1        0.0988
     32 H           7.1141   -0.0375   -0.2986 H       1  UNL1        0.0988
     33 H           6.3179   -0.6022    1.2436 H       1  UNL1        0.0988
     34 H           6.1839   -1.1972   -1.8861 H       1  UNL1        0.0988
     35 H           4.5603   -1.8898   -1.7794 H       1  UNL1        0.0988
     36 H           4.7296   -0.2770   -2.5151 H       1  UNL1        0.0988
     37 H           2.7983   -0.8728   -1.6476 H       1  UNL1        0.0695
     38 H          -2.7691   -0.7517   -1.6140 H       1  UNL1        0.0648
@<TRIPOS>UNITY_ATOM_ATTR
13 1
charge 1
@<TRIPOS>BOND
     1     1     2    1
     2     2     3    1
     3     2     4    1
     4     4     5   ar
     5     5     6   ar
     6     6     7   ar
     7     7     8   ar
     8     8     9   ar
     9     9    10   ar
    10    10    11   ar
    11    11    12   ar
    12    12    13    2
    13    13    14    1
    14    13    15    1
    15    12    16   ar
    16    16    17   ar
    17    17    18   ar
    18    18    19   ar
    19    19    20   ar
    20    20     4   ar
    21    19     7   ar
    22    17     9    1
    23     1    21    1
    24     1    22    1
    25     1    23    1
    26     3    24    1
    27     3    25    1
    28     3    26    1
    29     5    27    1
    30     6    28    1
    31    10    29    1
    32    11    30    1
    33    14    31    1
    34    14    32    1
    35    14    33    1
    36    15    34    1
    37    15    35    1
    38    15    36    1
    39    16    37    1
    40    20    38    1
