@<TRIPOS>MOLECULE
*****
 30 31 0 0 0
SMALL
GASTEIGER

@<TRIPOS>ATOM
      1 C          -3.9792   -0.4615    1.6102 C.3     1  UNL1       -0.0383
      2 C          -3.1414   -0.0496    0.4621 C.ar    1  UNL1       -0.0302
      3 C          -3.5817    0.8397   -0.5125 C.ar    1  UNL1       -0.0560
      4 C          -2.7551    1.1848   -1.5578 C.ar    1  UNL1       -0.0412
      5 C          -1.4738    0.6657   -1.6738 C.ar    1  UNL1        0.0635
      6 CL         -0.4038    1.0894   -2.9941 Cl      1  UNL1       -0.0816
      7 C          -1.0767   -0.2110   -0.6884 C.ar    1  UNL1        0.0687
      8 N           0.2459   -0.7602   -0.7892 N.pl3   1  UNL1       -0.3116
      9 C           1.3364   -0.1151   -0.1955 C.ar    1  UNL1        0.0455
     10 C           1.0701    1.0782    0.4923 C.ar    1  UNL1       -0.0397
     11 C           2.0682    1.7909    1.1110 C.ar    1  UNL1       -0.0600
     12 C           3.3807    1.3496    1.0749 C.ar    1  UNL1       -0.0609
     13 C           3.6508    0.1845    0.4053 C.ar    1  UNL1       -0.0460
     14 C           2.6274   -0.5430   -0.2272 C.ar    1  UNL1        0.0799
     15 C           3.0157   -1.7573   -0.9060 C.2     1  UNL1        0.3386
     16 O           2.2534   -2.5110   -1.5077 O.2     1  UNL1       -0.2451
     17 O           4.3726   -2.1691   -0.9160 O.3     1  UNL1       -0.4771
     18 C          -1.8693   -0.5813    0.3702 C.ar    1  UNL1        0.0664
     19 CL         -1.2927   -1.6997    1.5805 Cl      1  UNL1       -0.0813
     20 H          -3.9977   -1.5877    1.6072 H       1  UNL1        0.0278
     21 H          -5.0335   -0.1402    1.5070 H       1  UNL1        0.0278
     22 H          -3.5007   -0.1329    2.5400 H       1  UNL1        0.0278
     23 H          -4.5812    1.2428   -0.4193 H       1  UNL1        0.0621
     24 H          -3.0708    1.8694   -2.3236 H       1  UNL1        0.0633
     25 H           0.3435   -1.6461   -1.3178 H       1  UNL1        0.1523
     26 H           0.0581    1.4674    0.5503 H       1  UNL1        0.0636
     27 H           1.8462    2.7067    1.6357 H       1  UNL1        0.0618
     28 H           4.1266    1.9483    1.5781 H       1  UNL1        0.0618
     29 H           4.6645   -0.1660    0.3714 H       1  UNL1        0.0626
     30 H           4.6975   -2.8860   -1.5531 H       1  UNL1        0.2954
@<TRIPOS>BOND
     1     1     2    1
     2     2     3   ar
     3     3     4   ar
     4     4     5   ar
     5     5     6    1
     6     5     7   ar
     7     7     8    1
     8     8     9    1
     9     9    10   ar
    10    10    11   ar
    11    11    12   ar
    12    12    13   ar
    13    13    14   ar
    14    14    15    1
    15    15    16    2
    16    15    17    1
    17     7    18   ar
    18    18    19    1
    19    18     2   ar
    20    14     9   ar
    21     1    20    1
    22     1    21    1
    23     1    22    1
    24     3    23    1
    25     4    24    1
    26     8    25    1
    27    10    26    1
    28    11    27    1
    29    12    28    1
    30    13    29    1
    31    17    30    1
