
     RDKit          3D

 70 74  0  0  0  0  0  0  0  0999 V2000
   11.0245    0.0368   -1.0328 C   0  0  0  0  0  0  0  0  0  0  0  0
   10.4731    0.6928    0.2319 C   0  0  0  0  0  0  0  0  0  0  0  0
   11.1189   -0.0220    1.4018 C   0  0  0  0  0  0  0  0  0  0  0  0
    9.0013    0.6232    0.2970 C   0  0  0  0  0  0  0  0  0  0  0  0
    7.9917    1.3407    0.3252 N   0  0  0  0  0  0  0  0  0  0  0  0
    6.7688    0.9484    0.3872 C   0  0  0  0  0  0  0  0  0  0  0  0
    6.4866   -0.3778    0.4290 C   0  0  0  0  0  0  0  0  0  0  0  0
    5.3165   -1.1831    0.4990 C   0  0  1  0  0  0  0  0  0  0  0  0
    4.5917   -0.9356    1.8190 C   0  0  0  0  0  0  0  0  0  0  0  0
    3.4188   -0.0089    1.5757 C   0  0  0  0  0  0  0  0  0  0  0  0
    2.3459   -0.8003    0.8631 C   0  0  1  0  0  0  0  0  0  0  0  0
    1.4223    0.0308    0.1557 N   0  0  0  0  0  0  0  0  0  0  0  0
    0.3900   -0.7515   -0.4929 C   0  0  0  0  0  0  0  0  0  0  0  0
   -0.6691   -0.1712    0.4299 C   0  0  0  0  0  0  0  0  0  0  0  0
   -1.6972    0.4764   -0.3334 N   0  0  0  0  0  0  0  0  0  0  0  0
   -3.0664    0.1866   -0.0095 C   0  0  0  0  0  0  0  0  0  0  0  0
   -3.3186   -0.6141    0.9206 O   0  0  0  0  0  0  0  0  0  0  0  0
   -4.1844    0.8080   -0.7445 C   0  0  0  0  0  0  0  0  0  0  0  0
   -5.4377    0.3321   -0.1976 N   0  0  0  0  0  0  0  0  0  0  0  0
   -6.6963    0.7478   -0.7025 C   0  0  0  0  0  0  0  0  0  0  0  0
   -6.8954    1.6053   -1.7198 N   0  0  0  0  0  0  0  0  0  0  0  0
   -8.1983    1.7444   -1.8999 N   0  0  0  0  0  0  0  0  0  0  0  0
   -8.8423    2.5802   -2.8974 C   0  0  0  0  0  0  0  0  0  0  0  0
   -8.8912    0.9999   -1.0269 C   0  0  0  0  0  0  0  0  0  0  0  0
  -10.2306    0.7890   -0.7918 C   0  0  0  0  0  0  0  0  0  0  0  0
  -10.6712   -0.0656    0.2159 C   0  0  0  0  0  0  0  0  0  0  0  0
   -9.7238   -0.7047    0.9837 C   0  0  0  0  0  0  0  0  0  0  0  0
  -10.2038   -1.6148    2.0574 C   0  0  0  0  0  0  0  0  0  0  0  0
  -10.7945   -2.7324    1.5272 F   0  0  0  0  0  0  0  0  0  0  0  0
  -11.1038   -0.9635    2.8768 F   0  0  0  0  0  0  0  0  0  0  0  0
   -9.1470   -2.0409    2.8448 F   0  0  0  0  0  0  0  0  0  0  0  0
   -8.3907   -0.4854    0.7385 C   0  0  0  0  0  0  0  0  0  0  0  0
   -7.9393    0.3611   -0.2596 C   0  0  0  0  0  0  0  0  0  0  0  0
    0.4385    0.7461    0.9085 C   0  0  0  0  0  0  0  0  0  0  0  0
    3.0307   -1.7053   -0.1381 C   0  0  0  0  0  0  0  0  0  0  0  0
    4.3040   -0.9765   -0.5871 C   0  0  0  0  0  0  0  0  0  0  0  0
    8.1616   -1.0602    0.3709 S   0  0  0  0  0  0  0  0  0  0  0  0
   12.0662   -0.3165   -0.8718 H   0  0  0  0  0  0  0  0  0  0  0  0
   10.9032    0.6632   -1.9208 H   0  0  0  0  0  0  0  0  0  0  0  0
   10.4181   -0.8951   -1.1945 H   0  0  0  0  0  0  0  0  0  0  0  0
   10.7392    1.7495    0.2019 H   0  0  0  0  0  0  0  0  0  0  0  0
   10.5642    0.1926    2.3403 H   0  0  0  0  0  0  0  0  0  0  0  0
   12.1607    0.3170    1.5680 H   0  0  0  0  0  0  0  0  0  0  0  0
   11.0559   -1.1192    1.2559 H   0  0  0  0  0  0  0  0  0  0  0  0
    5.9164    1.6763    0.4077 H   0  0  0  0  0  0  0  0  0  0  0  0
    5.5748   -2.2686    0.4882 H   0  0  0  0  0  0  0  0  0  0  0  0
    4.2642   -1.8916    2.2781 H   0  0  0  0  0  0  0  0  0  0  0  0
    5.3213   -0.4958    2.5186 H   0  0  0  0  0  0  0  0  0  0  0  0
    3.7497    0.8846    1.0491 H   0  0  0  0  0  0  0  0  0  0  0  0
    3.0421    0.2814    2.5992 H   0  0  0  0  0  0  0  0  0  0  0  0
    1.7859   -1.3739    1.6288 H   0  0  0  0  0  0  0  0  0  0  0  0
    0.2481   -0.4841   -1.5610 H   0  0  0  0  0  0  0  0  0  0  0  0
    0.4221   -1.8417   -0.3424 H   0  0  0  0  0  0  0  0  0  0  0  0
   -1.0597   -0.8572    1.1959 H   0  0  0  0  0  0  0  0  0  0  0  0
   -1.5434    1.1381   -1.1016 H   0  0  0  0  0  0  0  0  0  0  0  0
   -4.1317    1.9178   -0.7405 H   0  0  0  0  0  0  0  0  0  0  0  0
   -4.0897    0.4874   -1.8184 H   0  0  0  0  0  0  0  0  0  0  0  0
   -5.4569   -0.3562    0.6138 H   0  0  0  0  0  0  0  0  0  0  0  0
   -9.7559    3.0067   -2.4582 H   0  0  0  0  0  0  0  0  0  0  0  0
   -8.1306    3.3674   -3.2310 H   0  0  0  0  0  0  0  0  0  0  0  0
   -9.1306    1.9015   -3.7387 H   0  0  0  0  0  0  0  0  0  0  0  0
  -10.9896    1.2818   -1.3843 H   0  0  0  0  0  0  0  0  0  0  0  0
  -11.7136   -0.2216    0.3889 H   0  0  0  0  0  0  0  0  0  0  0  0
   -7.6481   -0.9833    1.3366 H   0  0  0  0  0  0  0  0  0  0  0  0
    0.6346    0.6137    2.0056 H   0  0  0  0  0  0  0  0  0  0  0  0
    0.2968    1.8050    0.6633 H   0  0  0  0  0  0  0  0  0  0  0  0
    2.3530   -1.8814   -0.9712 H   0  0  0  0  0  0  0  0  0  0  0  0
    3.3047   -2.6924    0.3069 H   0  0  0  0  0  0  0  0  0  0  0  0
    4.6137   -1.4983   -1.5368 H   0  0  0  0  0  0  0  0  0  0  0  0
    4.0315    0.0572   -0.7886 H   0  0  0  0  0  0  0  0  0  0  0  0
  1  2  1  0
  2  3  1  0
  2  4  1  0
  4  5  2  0
  5  6  1  0
  6  7  2  0
  7  8  1  0
  8  9  1  0
  9 10  1  0
 10 11  1  0
 11 12  1  0
 12 13  1  0
 13 14  1  0
 14 15  1  0
 15 16  1  0
 16 17  2  0
 16 18  1  0
 18 19  1  0
 19 20  1  0
 20 21  2  0
 21 22  1  0
 22 23  1  0
 22 24  1  0
 24 25  2  0
 25 26  1  0
 26 27  2  0
 27 28  1  0
 28 29  1  0
 28 30  1  0
 28 31  1  0
 27 32  1  0
 32 33  2  0
 14 34  1  0
 11 35  1  0
 35 36  1  0
  7 37  1  0
 37  4  1  0
 36  8  1  0
 34 12  1  0
 33 20  1  0
 33 24  1  0
  1 38  1  0
  1 39  1  0
  1 40  1  0
  2 41  1  0
  3 42  1  0
  3 43  1  0
  3 44  1  0
  6 45  1  0
  8 46  1  1
  9 47  1  0
  9 48  1  0
 10 49  1  0
 10 50  1  0
 11 51  1  1
 13 52  1  0
 13 53  1  0
 14 54  1  0
 15 55  1  0
 18 56  1  0
 18 57  1  0
 19 58  1  0
 23 59  1  0
 23 60  1  0
 23 61  1  0
 25 62  1  0
 26 63  1  0
 32 64  1  0
 34 65  1  0
 34 66  1  0
 35 67  1  0
 35 68  1  0
 36 69  1  0
 36 70  1  0
M  END
$$$$
