@<TRIPOS>MOLECULE
*****
 47 49 0 0 0
SMALL
GASTEIGER

@<TRIPOS>ATOM
      1 C           5.0795   -3.4847    1.4217 C.3     1  UNL1       -0.0397
      2 C           4.4581   -2.2570    0.8732 C.ar    1  UNL1       -0.0503
      3 C           5.0462   -1.0174    1.0720 C.ar    1  UNL1       -0.0571
      4 C           4.4698    0.1262    0.5719 C.ar    1  UNL1       -0.0403
      5 C           3.2688    0.0753   -0.1547 C.ar    1  UNL1        0.0324
      6 N           2.7361    1.3225   -0.6534 N.pl3   1  UNL1       -0.2987
      7 C           1.3429    1.4963   -0.7920 C.ar    1  UNL1        0.1402
      8 N           0.4764    0.5122   -0.4247 N.ar    1  UNL1       -0.1987
      9 C          -0.8550    0.6101   -0.5034 C.ar    1  UNL1        0.2171
     10 N          -1.7184   -0.4474   -0.1153 N.pl3   1  UNL1       -0.3089
     11 C          -3.1410   -0.2306   -0.2427 C.3     1  UNL1        0.0427
     12 C          -3.5362    0.9156    0.6305 C.3     1  UNL1       -0.0094
     13 C          -4.7227    0.4811    1.4701 C.3     1  UNL1        0.0495
     14 O          -4.3586   -0.6312    2.2107 O.3     1  UNL1       -0.3781
     15 C          -4.1658   -1.7689    1.4422 C.3     1  UNL1        0.0645
     16 C          -3.9835   -1.4395   -0.0261 C.3     1  UNL1        0.0472
     17 N          -3.5208   -2.6105   -0.7008 N.3     1  UNL1       -0.3239
     18 N          -1.3296    1.7725   -0.9819 N.ar    1  UNL1       -0.2221
     19 C          -0.5479    2.7784   -1.3606 C.ar    1  UNL1        0.0466
     20 C           0.8312    2.6699   -1.2767 C.ar    1  UNL1        0.0946
     21 C           1.6055    3.7928   -1.7241 C.2     1  UNL1        0.2463
     22 N           0.9435    5.0151   -2.1404 N.am    1  UNL1       -0.3252
     23 O           2.8513    3.7668   -1.7716 O.2     1  UNL1       -0.2702
     24 C           2.6941   -1.1369   -0.3502 C.ar    1  UNL1       -0.0403
     25 C           3.2856   -2.3023    0.1622 C.ar    1  UNL1       -0.0571
     26 H           5.5579   -4.0494    0.6096 H       1  UNL1        0.0278
     27 H           5.8496   -3.2427    2.1954 H       1  UNL1        0.0278
     28 H           4.3236   -4.1278    1.9321 H       1  UNL1        0.0278
     29 H           5.9737   -0.9928    1.6340 H       1  UNL1        0.0621
     30 H           4.9120    1.0967    0.7165 H       1  UNL1        0.0636
     31 H           3.4171    2.0643   -0.8929 H       1  UNL1        0.1536
     32 H          -1.3179   -1.3200    0.2386 H       1  UNL1        0.1492
     33 H          -3.2984    0.1044   -1.2976 H       1  UNL1        0.0515
     34 H          -3.8126    1.8347    0.0458 H       1  UNL1        0.0306
     35 H          -2.7066    1.1813    1.3154 H       1  UNL1        0.0306
     36 H          -5.5869    0.3132    0.8054 H       1  UNL1        0.0560
     37 H          -4.9221    1.3024    2.1807 H       1  UNL1        0.0560
     38 H          -5.0526   -2.4263    1.5051 H       1  UNL1        0.0576
     39 H          -3.2632   -2.3491    1.7837 H       1  UNL1        0.0576
     40 H          -5.0050   -1.2002   -0.4211 H       1  UNL1        0.0499
     41 H          -3.5306   -3.4694   -0.1408 H       1  UNL1        0.1186
     42 H          -3.8549   -2.7119   -1.6760 H       1  UNL1        0.1186
     43 H          -0.9624    3.6980   -1.7402 H       1  UNL1        0.0839
     44 H           0.3359    5.4505   -1.4270 H       1  UNL1        0.1453
     45 H           1.1316    5.3400   -3.0934 H       1  UNL1        0.1453
     46 H           1.7948   -1.2361   -0.9055 H       1  UNL1        0.0636
     47 H           2.8075   -3.2681   -0.0038 H       1  UNL1        0.0621
@<TRIPOS>BOND
     1     1     2    1
     2     2     3   ar
     3     3     4   ar
     4     4     5   ar
     5     5     6    1
     6     6     7    1
     7     7     8   ar
     8     8     9   ar
     9     9    10    1
    10    10    11    1
    11    11    12    1
    12    12    13    1
    13    13    14    1
    14    14    15    1
    15    15    16    1
    16    16    17    1
    17     9    18   ar
    18    18    19   ar
    19    19    20   ar
    20    20    21    1
    21    21    22   am
    22    21    23    2
    23     5    24   ar
    24    24    25   ar
    25    25     2   ar
    26    20     7   ar
    27    16    11    1
    28     1    26    1
    29     1    27    1
    30     1    28    1
    31     3    29    1
    32     4    30    1
    33     6    31    1
    34    10    32    1
    35    11    33    1
    36    12    34    1
    37    12    35    1
    38    13    36    1
    39    13    37    1
    40    15    38    1
    41    15    39    1
    42    16    40    1
    43    17    41    1
    44    17    42    1
    45    19    43    1
    46    22    44    1
    47    22    45    1
    48    24    46    1
    49    25    47    1
