
     RDKit          3D

 47 49  0  0  0  0  0  0  0  0999 V2000
    5.0795   -3.4847    1.4217 C   0  0  0  0  0  0  0  0  0  0  0  0
    4.4581   -2.2570    0.8732 C   0  0  0  0  0  0  0  0  0  0  0  0
    5.0462   -1.0174    1.0720 C   0  0  0  0  0  0  0  0  0  0  0  0
    4.4698    0.1262    0.5719 C   0  0  0  0  0  0  0  0  0  0  0  0
    3.2688    0.0753   -0.1547 C   0  0  0  0  0  0  0  0  0  0  0  0
    2.7361    1.3225   -0.6534 N   0  0  0  0  0  0  0  0  0  0  0  0
    1.3429    1.4963   -0.7920 C   0  0  0  0  0  0  0  0  0  0  0  0
    0.4764    0.5122   -0.4247 N   0  0  0  0  0  0  0  0  0  0  0  0
   -0.8550    0.6101   -0.5034 C   0  0  0  0  0  0  0  0  0  0  0  0
   -1.7184   -0.4474   -0.1153 N   0  0  0  0  0  0  0  0  0  0  0  0
   -3.1410   -0.2306   -0.2427 C   0  0  2  0  0  0  0  0  0  0  0  0
   -3.5362    0.9156    0.6305 C   0  0  0  0  0  0  0  0  0  0  0  0
   -4.7227    0.4811    1.4701 C   0  0  0  0  0  0  0  0  0  0  0  0
   -4.3586   -0.6312    2.2107 O   0  0  0  0  0  0  0  0  0  0  0  0
   -4.1658   -1.7689    1.4422 C   0  0  0  0  0  0  0  0  0  0  0  0
   -3.9835   -1.4395   -0.0261 C   0  0  2  0  0  0  0  0  0  0  0  0
   -3.5208   -2.6105   -0.7008 N   0  0  0  0  0  0  0  0  0  0  0  0
   -1.3296    1.7725   -0.9819 N   0  0  0  0  0  0  0  0  0  0  0  0
   -0.5479    2.7784   -1.3606 C   0  0  0  0  0  0  0  0  0  0  0  0
    0.8312    2.6699   -1.2767 C   0  0  0  0  0  0  0  0  0  0  0  0
    1.6055    3.7928   -1.7241 C   0  0  0  0  0  0  0  0  0  0  0  0
    0.9435    5.0151   -2.1404 N   0  0  0  0  0  0  0  0  0  0  0  0
    2.8513    3.7668   -1.7716 O   0  0  0  0  0  0  0  0  0  0  0  0
    2.6941   -1.1369   -0.3502 C   0  0  0  0  0  0  0  0  0  0  0  0
    3.2856   -2.3023    0.1622 C   0  0  0  0  0  0  0  0  0  0  0  0
    5.5579   -4.0494    0.6096 H   0  0  0  0  0  0  0  0  0  0  0  0
    5.8496   -3.2427    2.1954 H   0  0  0  0  0  0  0  0  0  0  0  0
    4.3236   -4.1278    1.9321 H   0  0  0  0  0  0  0  0  0  0  0  0
    5.9737   -0.9928    1.6340 H   0  0  0  0  0  0  0  0  0  0  0  0
    4.9120    1.0967    0.7165 H   0  0  0  0  0  0  0  0  0  0  0  0
    3.4171    2.0643   -0.8929 H   0  0  0  0  0  0  0  0  0  0  0  0
   -1.3179   -1.3200    0.2386 H   0  0  0  0  0  0  0  0  0  0  0  0
   -3.2984    0.1044   -1.2976 H   0  0  0  0  0  0  0  0  0  0  0  0
   -3.8126    1.8347    0.0458 H   0  0  0  0  0  0  0  0  0  0  0  0
   -2.7066    1.1813    1.3154 H   0  0  0  0  0  0  0  0  0  0  0  0
   -5.5869    0.3132    0.8054 H   0  0  0  0  0  0  0  0  0  0  0  0
   -4.9221    1.3024    2.1807 H   0  0  0  0  0  0  0  0  0  0  0  0
   -5.0526   -2.4263    1.5051 H   0  0  0  0  0  0  0  0  0  0  0  0
   -3.2632   -2.3491    1.7837 H   0  0  0  0  0  0  0  0  0  0  0  0
   -5.0050   -1.2002   -0.4211 H   0  0  0  0  0  0  0  0  0  0  0  0
   -3.5306   -3.4694   -0.1408 H   0  0  0  0  0  0  0  0  0  0  0  0
   -3.8549   -2.7119   -1.6760 H   0  0  0  0  0  0  0  0  0  0  0  0
   -0.9624    3.6980   -1.7402 H   0  0  0  0  0  0  0  0  0  0  0  0
    0.3359    5.4505   -1.4270 H   0  0  0  0  0  0  0  0  0  0  0  0
    1.1316    5.3400   -3.0934 H   0  0  0  0  0  0  0  0  0  0  0  0
    1.7948   -1.2361   -0.9055 H   0  0  0  0  0  0  0  0  0  0  0  0
    2.8075   -3.2681   -0.0038 H   0  0  0  0  0  0  0  0  0  0  0  0
  1  2  1  0
  2  3  2  0
  3  4  1  0
  4  5  2  0
  5  6  1  0
  6  7  1  0
  7  8  2  0
  8  9  1  0
  9 10  1  0
 10 11  1  0
 11 12  1  0
 12 13  1  0
 13 14  1  0
 14 15  1  0
 15 16  1  0
 16 17  1  0
  9 18  2  0
 18 19  1  0
 19 20  2  0
 20 21  1  0
 21 22  1  0
 21 23  2  0
  5 24  1  0
 24 25  2  0
 25  2  1  0
 20  7  1  0
 16 11  1  0
  1 26  1  0
  1 27  1  0
  1 28  1  0
  3 29  1  0
  4 30  1  0
  6 31  1  0
 10 32  1  0
 11 33  1  6
 12 34  1  0
 12 35  1  0
 13 36  1  0
 13 37  1  0
 15 38  1  0
 15 39  1  0
 16 40  1  6
 17 41  1  0
 17 42  1  0
 19 43  1  0
 22 44  1  0
 22 45  1  0
 24 46  1  0
 25 47  1  0
M  END
$$$$
