@<TRIPOS>MOLECULE
*****
 44 45 0 0 0
SMALL
GASTEIGER

@<TRIPOS>ATOM
      1 C          -4.2871   -1.4694   -3.7385 C.3     1  UNL1       -0.0026
      2 C          -4.2914   -1.0283   -2.3177 C.1     1  UNL1       -0.1050
      3 C          -4.2785   -0.6582   -1.0742 C.1     1  UNL1       -0.0938
      4 C          -4.2497   -0.2740    0.2869 C.3     1  UNL1        0.0583
      5 C          -4.8462    1.0259    0.6953 C.3     1  UNL1        0.0625
      6 C          -4.3051    1.4268    1.9593 C.2     1  UNL1        0.3062
      7 O          -3.7582    1.7055    2.8897 O.2     1  UNL1       -0.2510
      8 O          -5.8850    1.8390    2.6719 O.3     1  UNL1       -0.4806
      9 C          -2.7122   -0.2145    0.3693 C.ar    1  UNL1        0.0034
     10 C          -2.1358   -1.4773    0.2031 C.ar    1  UNL1       -0.0512
     11 C          -0.7653   -1.5560    0.0849 C.ar    1  UNL1       -0.0189
     12 C           0.0497   -0.4521    0.1496 C.ar    1  UNL1        0.1314
     13 O           1.3270   -0.3990    0.0997 O.3     1  UNL1       -0.4523
     14 C           2.4760    0.2017   -0.0322 C.ar    1  UNL1        0.1701
     15 C           2.7255    1.4690   -0.4056 C.ar    1  UNL1       -0.0151
     16 C           3.9864    2.0481   -0.4563 C.ar    1  UNL1       -0.0464
     17 C           5.0955    1.3081   -0.1127 C.ar    1  UNL1        0.0585
     18 C           6.4073    1.9477   -0.0049 C.3     1  UNL1        0.4175
     19 F           7.1095    2.0735   -1.1625 F       1  UNL1       -0.1659
     20 F           7.1652    1.3467    1.0101 F       1  UNL1       -0.1659
     21 F           6.2532    3.2766    0.4726 F       1  UNL1       -0.1659
     22 C           4.8788   -0.0368    0.2569 C.ar    1  UNL1       -0.0044
     23 C           3.6376   -0.5986    0.2974 C.ar    1  UNL1        0.1694
     24 O           3.3114   -1.8904    0.6157 O.3     1  UNL1       -0.4305
     25 C           4.1245   -2.9768    0.7175 C.3     1  UNL1        0.3894
     26 F           3.4268   -4.1727    0.8382 F       1  UNL1       -0.1663
     27 F           5.0325   -2.9469    1.7712 F       1  UNL1       -0.1663
     28 C          -0.6075    0.8091    0.3422 C.ar    1  UNL1        0.0162
     29 C          -1.9998    0.9051    0.4326 C.ar    1  UNL1        0.1312
     30 F          -2.5276    2.1773    0.4428 F       1  UNL1       -0.2050
     31 H          -3.2765   -1.8312   -3.9499 H       1  UNL1        0.0362
     32 H          -5.0360   -2.3171   -3.8208 H       1  UNL1        0.0362
     33 H          -4.6445   -0.6134   -4.2726 H       1  UNL1        0.0362
     34 H          -4.5462   -1.0460    0.9824 H       1  UNL1        0.0488
     35 H          -4.8678    1.7393   -0.1371 H       1  UNL1        0.0393
     36 H          -5.9764    0.7138    0.8558 H       1  UNL1        0.0393
     37 H          -5.5997    1.6917    3.6787 H       1  UNL1        0.2951
     38 H          -2.6854   -2.3469    0.0565 H       1  UNL1        0.0623
     39 H          -0.2599   -2.5376   -0.0685 H       1  UNL1        0.0654
     40 H           1.8879    2.1223   -0.7076 H       1  UNL1        0.0656
     41 H           4.1156    3.0727   -0.7627 H       1  UNL1        0.0624
     42 H           5.7452   -0.6466    0.5310 H       1  UNL1        0.0661
     43 H           4.7958   -3.0796   -0.2008 H       1  UNL1        0.1520
     44 H          -0.0101    1.6700    0.5135 H       1  UNL1        0.0683
@<TRIPOS>BOND
     1     1     2    1
     2     2     3    3
     3     3     4    1
     4     4     5    1
     5     5     6    1
     6     6     7    2
     7     6     8    1
     8     4     9    1
     9     9    10   ar
    10    10    11   ar
    11    11    12   ar
    12    12    13    1
    13    13    14    1
    14    14    15   ar
    15    15    16   ar
    16    16    17   ar
    17    17    18    1
    18    18    19    1
    19    18    20    1
    20    18    21    1
    21    17    22   ar
    22    22    23   ar
    23    23    24    1
    24    24    25    1
    25    25    26    1
    26    25    27    1
    27    12    28   ar
    28    28    29   ar
    29    29    30    1
    30    29     9   ar
    31    23    14   ar
    32     1    31    1
    33     1    32    1
    34     1    33    1
    35     4    34    1
    36     5    35    1
    37     5    36    1
    38     8    37    1
    39    10    38    1
    40    11    39    1
    41    15    40    1
    42    16    41    1
    43    22    42    1
    44    25    43    1
    45    28    44    1
