
     RDKit          3D

 44 45  0  0  0  0  0  0  0  0999 V2000
   -4.2871   -1.4694   -3.7385 C   0  0  0  0  0  0  0  0  0  0  0  0
   -4.2914   -1.0283   -2.3177 C   0  0  0  0  0  0  0  0  0  0  0  0
   -4.2785   -0.6582   -1.0742 C   0  0  0  0  0  0  0  0  0  0  0  0
   -4.2497   -0.2740    0.2869 C   0  0  0  0  0  0  0  0  0  0  0  0
   -4.8462    1.0259    0.6953 C   0  0  0  0  0  0  0  0  0  0  0  0
   -4.3051    1.4268    1.9593 C   0  0  0  0  0  0  0  0  0  0  0  0
   -3.7582    1.7055    2.8897 O   0  0  0  0  0  0  0  0  0  0  0  0
   -5.8850    1.8390    2.6719 O   0  0  0  0  0  0  0  0  0  0  0  0
   -2.7122   -0.2145    0.3693 C   0  0  0  0  0  0  0  0  0  0  0  0
   -2.1358   -1.4773    0.2031 C   0  0  0  0  0  0  0  0  0  0  0  0
   -0.7653   -1.5560    0.0849 C   0  0  0  0  0  0  0  0  0  0  0  0
    0.0497   -0.4521    0.1496 C   0  0  0  0  0  0  0  0  0  0  0  0
    1.3270   -0.3990    0.0997 O   0  0  0  0  0  0  0  0  0  0  0  0
    2.4760    0.2017   -0.0322 C   0  0  0  0  0  0  0  0  0  0  0  0
    2.7255    1.4690   -0.4056 C   0  0  0  0  0  0  0  0  0  0  0  0
    3.9864    2.0481   -0.4563 C   0  0  0  0  0  0  0  0  0  0  0  0
    5.0955    1.3081   -0.1127 C   0  0  0  0  0  0  0  0  0  0  0  0
    6.4073    1.9477   -0.0049 C   0  0  0  0  0  0  0  0  0  0  0  0
    7.1095    2.0735   -1.1625 F   0  0  0  0  0  0  0  0  0  0  0  0
    7.1652    1.3467    1.0101 F   0  0  0  0  0  0  0  0  0  0  0  0
    6.2532    3.2766    0.4726 F   0  0  0  0  0  0  0  0  0  0  0  0
    4.8788   -0.0368    0.2569 C   0  0  0  0  0  0  0  0  0  0  0  0
    3.6376   -0.5986    0.2974 C   0  0  0  0  0  0  0  0  0  0  0  0
    3.3114   -1.8904    0.6157 O   0  0  0  0  0  0  0  0  0  0  0  0
    4.1245   -2.9768    0.7175 C   0  0  0  0  0  0  0  0  0  0  0  0
    3.4268   -4.1727    0.8382 F   0  0  0  0  0  0  0  0  0  0  0  0
    5.0325   -2.9469    1.7712 F   0  0  0  0  0  0  0  0  0  0  0  0
   -0.6075    0.8091    0.3422 C   0  0  0  0  0  0  0  0  0  0  0  0
   -1.9998    0.9051    0.4326 C   0  0  0  0  0  0  0  0  0  0  0  0
   -2.5276    2.1773    0.4428 F   0  0  0  0  0  0  0  0  0  0  0  0
   -3.2765   -1.8312   -3.9499 H   0  0  0  0  0  0  0  0  0  0  0  0
   -5.0360   -2.3171   -3.8208 H   0  0  0  0  0  0  0  0  0  0  0  0
   -4.6445   -0.6134   -4.2726 H   0  0  0  0  0  0  0  0  0  0  0  0
   -4.5462   -1.0460    0.9824 H   0  0  0  0  0  0  0  0  0  0  0  0
   -4.8678    1.7393   -0.1371 H   0  0  0  0  0  0  0  0  0  0  0  0
   -5.9764    0.7138    0.8558 H   0  0  0  0  0  0  0  0  0  0  0  0
   -5.5997    1.6917    3.6787 H   0  0  0  0  0  0  0  0  0  0  0  0
   -2.6854   -2.3469    0.0565 H   0  0  0  0  0  0  0  0  0  0  0  0
   -0.2599   -2.5376   -0.0685 H   0  0  0  0  0  0  0  0  0  0  0  0
    1.8879    2.1223   -0.7076 H   0  0  0  0  0  0  0  0  0  0  0  0
    4.1156    3.0727   -0.7627 H   0  0  0  0  0  0  0  0  0  0  0  0
    5.7452   -0.6466    0.5310 H   0  0  0  0  0  0  0  0  0  0  0  0
    4.7958   -3.0796   -0.2008 H   0  0  0  0  0  0  0  0  0  0  0  0
   -0.0101    1.6700    0.5135 H   0  0  0  0  0  0  0  0  0  0  0  0
  1  2  1  0
  2  3  3  0
  3  4  1  0
  4  5  1  0
  5  6  1  0
  6  7  2  0
  6  8  1  0
  4  9  1  0
  9 10  2  0
 10 11  1  0
 11 12  2  0
 12 13  1  0
 13 14  1  0
 14 15  2  0
 15 16  1  0
 16 17  2  0
 17 18  1  0
 18 19  1  0
 18 20  1  0
 18 21  1  0
 17 22  1  0
 22 23  2  0
 23 24  1  0
 24 25  1  0
 25 26  1  0
 25 27  1  0
 12 28  1  0
 28 29  2  0
 29 30  1  0
 29  9  1  0
 23 14  1  0
  1 31  1  0
  1 32  1  0
  1 33  1  0
  4 34  1  0
  5 35  1  0
  5 36  1  0
  8 37  1  0
 10 38  1  0
 11 39  1  0
 15 40  1  0
 16 41  1  0
 22 42  1  0
 25 43  1  0
 28 44  1  0
M  END
$$$$
