
     RDKit          3D

 36 35  0  0  0  0  0  0  0  0999 V2000
   -4.2193    2.5034   -0.4719 O   0  0  0  0  0  0  0  0  0  0  0  0
   -3.2166    1.7144    0.1298 C   0  0  0  0  0  0  0  0  0  0  0  0
   -3.3288    1.6744    1.3790 O   0  0  0  0  0  0  0  0  0  0  0  0
   -2.3149    1.1590   -0.9076 C   0  0  0  0  0  0  0  0  0  0  0  0
   -1.2432    0.3529   -0.4185 N   0  0  0  0  0  0  0  0  0  0  0  0
   -0.3180    1.1771    0.3041 C   0  0  0  0  0  0  0  0  0  0  0  0
    0.8926    0.5011    0.8437 C   0  0  0  0  0  0  0  0  0  0  0  0
    1.7539   -0.1020   -0.0723 N   0  0  0  0  0  0  0  0  0  0  0  0
    2.5191    0.6352   -0.9833 C   0  0  0  0  0  0  0  0  0  0  0  0
    3.5928    1.4496   -0.3897 C   0  0  0  0  0  0  0  0  0  0  0  0
    4.4119    2.2281   -1.1994 O   0  0  0  0  0  0  0  0  0  0  0  0
    3.9027    1.5536    0.8335 O   0  0  0  0  0  0  0  0  0  0  0  0
    1.6369   -1.4807   -0.3553 C   0  0  0  0  0  0  0  0  0  0  0  0
    2.0080   -2.3697    0.7866 C   0  0  0  0  0  0  0  0  0  0  0  0
    1.9142   -3.7514    0.5347 O   0  0  0  0  0  0  0  0  0  0  0  0
    2.3961   -2.0689    1.9531 O   0  0  0  0  0  0  0  0  0  0  0  0
   -1.7590   -0.7664    0.2915 C   0  0  0  0  0  0  0  0  0  0  0  0
   -2.4249   -1.6838   -0.6643 C   0  0  0  0  0  0  0  0  0  0  0  0
   -3.0516   -2.8706   -0.3942 O   0  0  0  0  0  0  0  0  0  0  0  0
   -2.5974   -1.6402   -1.9321 O   0  0  0  0  0  0  0  0  0  0  0  0
   -4.7844    3.1654    0.0612 H   0  0  0  0  0  0  0  0  0  0  0  0
   -2.9513    0.6159   -1.6291 H   0  0  0  0  0  0  0  0  0  0  0  0
   -1.8665    2.0092   -1.4604 H   0  0  0  0  0  0  0  0  0  0  0  0
    0.0144    1.9682   -0.4012 H   0  0  0  0  0  0  0  0  0  0  0  0
   -0.8625    1.7098    1.1098 H   0  0  0  0  0  0  0  0  0  0  0  0
    1.4530    1.2481    1.4452 H   0  0  0  0  0  0  0  0  0  0  0  0
    0.6387   -0.2972    1.6012 H   0  0  0  0  0  0  0  0  0  0  0  0
    1.9196    1.2085   -1.7443 H   0  0  0  0  0  0  0  0  0  0  0  0
    3.0437   -0.1336   -1.6291 H   0  0  0  0  0  0  0  0  0  0  0  0
    4.7182    3.1625   -0.9881 H   0  0  0  0  0  0  0  0  0  0  0  0
    2.4224   -1.7043   -1.1407 H   0  0  0  0  0  0  0  0  0  0  0  0
    0.6872   -1.8067   -0.8167 H   0  0  0  0  0  0  0  0  0  0  0  0
    2.5085   -4.3773    1.0850 H   0  0  0  0  0  0  0  0  0  0  0  0
   -2.4991   -0.4771    1.0449 H   0  0  0  0  0  0  0  0  0  0  0  0
   -1.0052   -1.3736    0.8229 H   0  0  0  0  0  0  0  0  0  0  0  0
   -3.9914   -3.1326   -0.5808 H   0  0  0  0  0  0  0  0  0  0  0  0
  1  2  1  0
  2  3  2  0
  2  4  1  0
  4  5  1  0
  5  6  1  0
  6  7  1  0
  7  8  1  0
  8  9  1  0
  9 10  1  0
 10 11  1  0
 10 12  2  0
  8 13  1  0
 13 14  1  0
 14 15  1  0
 14 16  2  0
  5 17  1  0
 17 18  1  0
 18 19  1  0
 18 20  2  0
  1 21  1  0
  4 22  1  0
  4 23  1  0
  6 24  1  0
  6 25  1  0
  7 26  1  0
  7 27  1  0
  9 28  1  0
  9 29  1  0
 11 30  1  0
 13 31  1  0
 13 32  1  0
 15 33  1  0
 17 34  1  0
 17 35  1  0
 19 36  1  0
M  END
$$$$
