
     RDKit          3D

 56 59  0  0  0  0  0  0  0  0999 V2000
    8.3608    2.1181   -2.1612 C   0  0  0  0  0  0  0  0  0  0  0  0
    8.1532    1.9712   -0.7231 C   0  0  0  0  0  0  0  0  0  0  0  0
    7.9960    1.8359    0.4946 C   0  0  0  0  0  0  0  0  0  0  0  0
    7.8165    1.7010    1.9330 C   0  0  0  0  0  0  0  0  0  0  0  0
    7.2203    0.4701    2.2164 O   0  0  0  0  0  0  0  0  0  0  0  0
    5.9820    0.0389    1.8067 C   0  0  0  0  0  0  0  0  0  0  0  0
    5.5967   -1.2335    2.2206 C   0  0  0  0  0  0  0  0  0  0  0  0
    4.4103   -1.6865    1.8491 N   0  0  0  0  0  0  0  0  0  0  0  0
    3.5360   -0.9782    1.0800 C   0  0  0  0  0  0  0  0  0  0  0  0
    2.2588   -1.5979    0.7669 C   0  0  0  0  0  0  0  0  0  0  0  0
    1.9842   -2.8453    1.2783 F   0  0  0  0  0  0  0  0  0  0  0  0
    1.3067   -1.0731    0.0351 C   0  0  0  0  0  0  0  0  0  0  0  0
    0.0417   -1.7709   -0.2337 C   0  0  0  0  0  0  0  0  0  0  0  0
    0.0317   -3.1179   -0.5044 C   0  0  0  0  0  0  0  0  0  0  0  0
   -1.1669   -3.7854   -0.7246 C   0  0  0  0  0  0  0  0  0  0  0  0
   -2.3399   -3.0729   -0.6669 C   0  0  0  0  0  0  0  0  0  0  0  0
   -3.5356   -3.6795   -0.8763 F   0  0  0  0  0  0  0  0  0  0  0  0
   -2.3679   -1.7149   -0.3973 C   0  0  0  0  0  0  0  0  0  0  0  0
   -3.7006   -1.0016   -0.3075 C   0  0  1  0  0  0  0  0  0  0  0  0
   -4.4661   -1.3315   -1.6243 C   0  0  0  0  0  0  0  0  0  0  0  0
   -4.3880   -1.6200    0.7575 N   0  0  0  0  0  0  0  0  0  0  0  0
   -5.3543   -1.1340    1.4053 C   0  0  0  0  0  0  0  0  0  0  0  0
   -5.9625   -1.8511    2.4533 N   0  0  0  0  0  0  0  0  0  0  0  0
   -5.9377    0.4939    0.9786 S   0  0  0  0  0  0  0  0  0  0  0  0
   -4.5530    1.3381    0.1832 C   0  0  1  0  0  0  0  0  0  0  0  0
   -4.9864    2.8268   -0.6740 S   0  0  0  0  0  6  0  0  0  0  0  0
   -5.6988    3.9907    0.4610 C   0  0  0  0  0  0  0  0  0  0  0  0
   -6.0790    2.4657   -1.6745 O   0  0  0  0  0  0  0  0  0  0  0  0
   -3.8026    3.4116   -1.4000 O   0  0  0  0  0  0  0  0  0  0  0  0
   -3.1918    1.3107    0.8326 C   0  0  0  0  0  0  0  0  0  0  0  0
   -3.4875    0.4519   -0.3198 C   0  0  1  0  0  0  0  0  0  0  0  0
   -1.1680   -1.0886   -0.1855 C   0  0  0  0  0  0  0  0  0  0  0  0
    3.9245    0.2611    0.6823 C   0  0  0  0  0  0  0  0  0  0  0  0
    5.1406    0.7457    1.0534 N   0  0  0  0  0  0  0  0  0  0  0  0
    9.4844    2.1865   -2.2838 H   0  0  0  0  0  0  0  0  0  0  0  0
    7.9074    3.0299   -2.5481 H   0  0  0  0  0  0  0  0  0  0  0  0
    7.9743    1.2349   -2.7323 H   0  0  0  0  0  0  0  0  0  0  0  0
    8.7904    1.7767    2.4793 H   0  0  0  0  0  0  0  0  0  0  0  0
    7.1390    2.5102    2.3038 H   0  0  0  0  0  0  0  0  0  0  0  0
    6.2568   -1.8286    2.8291 H   0  0  0  0  0  0  0  0  0  0  0  0
    1.4615   -0.0961   -0.3798 H   0  0  0  0  0  0  0  0  0  0  0  0
    0.9828   -3.6714   -0.5536 H   0  0  0  0  0  0  0  0  0  0  0  0
   -1.1435   -4.8495   -0.9361 H   0  0  0  0  0  0  0  0  0  0  0  0
   -5.1660   -2.1646   -1.4551 H   0  0  0  0  0  0  0  0  0  0  0  0
   -3.7550   -1.5041   -2.4435 H   0  0  0  0  0  0  0  0  0  0  0  0
   -5.0744   -0.4546   -1.8943 H   0  0  0  0  0  0  0  0  0  0  0  0
   -6.1800   -2.8660    2.2865 H   0  0  0  0  0  0  0  0  0  0  0  0
   -6.2086   -1.4452    3.3723 H   0  0  0  0  0  0  0  0  0  0  0  0
   -6.7347    4.2454    0.2060 H   0  0  0  0  0  0  0  0  0  0  0  0
   -5.0445    4.8873    0.5477 H   0  0  0  0  0  0  0  0  0  0  0  0
   -5.7054    3.5285    1.4679 H   0  0  0  0  0  0  0  0  0  0  0  0
   -3.1262    0.8123    1.8160 H   0  0  0  0  0  0  0  0  0  0  0  0
   -2.5326    2.2088    0.6928 H   0  0  0  0  0  0  0  0  0  0  0  0
   -3.0011    0.8063   -1.2835 H   0  0  0  0  0  0  0  0  0  0  0  0
   -1.1452   -0.0409    0.0248 H   0  0  0  0  0  0  0  0  0  0  0  0
    3.2476    0.8457    0.0669 H   0  0  0  0  0  0  0  0  0  0  0  0
  1  2  1  0
  2  3  3  0
  3  4  1  0
  4  5  1  0
  5  6  1  0
  6  7  2  0
  7  8  1  0
  8  9  2  0
  9 10  1  0
 10 11  1  0
 10 12  2  0
 12 13  1  0
 13 14  2  0
 14 15  1  0
 15 16  2  0
 16 17  1  0
 16 18  1  0
 18 19  1  0
 19 20  1  6
 19 21  1  0
 21 22  2  0
 22 23  1  0
 22 24  1  0
 24 25  1  0
 25 26  1  6
 26 27  1  0
 26 28  2  0
 26 29  2  0
 25 30  1  0
 30 31  1  0
 18 32  2  0
  9 33  1  0
 33 34  2  0
 34  6  1  0
 32 13  1  0
 31 19  1  0
 31 25  1  0
  1 35  1  0
  1 36  1  0
  1 37  1  0
  4 38  1  0
  4 39  1  0
  7 40  1  0
 12 41  1  0
 14 42  1  0
 15 43  1  0
 20 44  1  0
 20 45  1  0
 20 46  1  0
 23 47  1  0
 23 48  1  0
 27 49  1  0
 27 50  1  0
 27 51  1  0
 30 52  1  0
 30 53  1  0
 31 54  1  6
 32 55  1  0
 33 56  1  0
M  END
$$$$
