@<TRIPOS>MOLECULE
*****
 56 59 0 0 0
SMALL
GASTEIGER

@<TRIPOS>ATOM
      1 C           8.3608    2.1181   -2.1612 C.3     1  UNL1       -0.0025
      2 C           8.1532    1.9712   -0.7231 C.1     1  UNL1       -0.1022
      3 C           7.9960    1.8359    0.4946 C.1     1  UNL1       -0.0617
      4 C           7.8165    1.7010    1.9330 C.3     1  UNL1        0.1516
      5 O           7.2203    0.4701    2.2164 O.3     1  UNL1       -0.4624
      6 C           5.9820    0.0389    1.8067 C.ar    1  UNL1        0.2344
      7 C           5.5967   -1.2335    2.2206 C.ar    1  UNL1        0.0899
      8 N           4.4103   -1.6865    1.8491 N.ar    1  UNL1       -0.2459
      9 C           3.5360   -0.9782    1.0800 C.ar    1  UNL1        0.1172
     10 C           2.2588   -1.5979    0.7669 C.2     1  UNL1        0.1507
     11 F           1.9842   -2.8453    1.2783 F       1  UNL1       -0.2032
     12 C           1.3067   -1.0731    0.0351 C.2     1  UNL1       -0.0171
     13 C           0.0417   -1.7709   -0.2337 C.ar    1  UNL1       -0.0217
     14 C           0.0317   -3.1179   -0.5044 C.ar    1  UNL1       -0.0518
     15 C          -1.1669   -3.7854   -0.7246 C.ar    1  UNL1       -0.0255
     16 C          -2.3399   -3.0729   -0.6669 C.ar    1  UNL1        0.1289
     17 F          -3.5356   -3.6795   -0.8763 F       1  UNL1       -0.2051
     18 C          -2.3679   -1.7149   -0.3973 C.ar    1  UNL1        0.0158
     19 C          -3.7006   -1.0016   -0.3075 C.3     1  UNL1        0.0946
     20 C          -4.4661   -1.3315   -1.6243 C.3     1  UNL1       -0.0351
     21 N          -4.3880   -1.6200    0.7575 N.2     1  UNL1       -0.2520
     22 C          -5.3543   -1.1340    1.4053 C.2     1  UNL1        0.1495
     23 N          -5.9625   -1.8511    2.4533 N.pl3   1  UNL1       -0.3380
     24 S          -5.9377    0.4939    0.9786 S.3     1  UNL1       -0.0611
     25 C          -4.5530    1.3381    0.1832 C.3     1  UNL1        0.1451
     26 S          -4.9864    2.8268   -0.6740 S.O2    1  UNL1       -0.0183
     27 C          -5.6988    3.9907    0.4610 C.3     1  UNL1        0.0560
     28 O          -6.0790    2.4657   -1.6745 O.2     1  UNL1       -0.1733
     29 O          -3.8026    3.4116   -1.4000 O.2     1  UNL1       -0.1733
     30 C          -3.1918    1.3107    0.8326 C.3     1  UNL1       -0.0096
     31 C          -3.4875    0.4519   -0.3198 C.3     1  UNL1        0.0258
     32 C          -1.1680   -1.0886   -0.1855 C.ar    1  UNL1       -0.0463
     33 C           3.9245    0.2611    0.6823 C.ar    1  UNL1        0.0596
     34 N           5.1406    0.7457    1.0534 N.ar    1  UNL1       -0.2178
     35 H           9.4844    2.1865   -2.2838 H       1  UNL1        0.0362
     36 H           7.9074    3.0299   -2.5481 H       1  UNL1        0.0362
     37 H           7.9743    1.2349   -2.7323 H       1  UNL1        0.0362
     38 H           8.7904    1.7767    2.4793 H       1  UNL1        0.0837
     39 H           7.1390    2.5102    2.3038 H       1  UNL1        0.0837
     40 H           6.2568   -1.8286    2.8291 H       1  UNL1        0.0884
     41 H           1.4615   -0.0961   -0.3798 H       1  UNL1        0.0653
     42 H           0.9828   -3.6714   -0.5536 H       1  UNL1        0.0624
     43 H          -1.1435   -4.8495   -0.9361 H       1  UNL1        0.0646
     44 H          -5.1660   -2.1646   -1.4551 H       1  UNL1        0.0256
     45 H          -3.7550   -1.5041   -2.4435 H       1  UNL1        0.0256
     46 H          -5.0744   -0.4546   -1.8943 H       1  UNL1        0.0256
     47 H          -6.1800   -2.8660    2.2865 H       1  UNL1        0.1442
     48 H          -6.2086   -1.4452    3.3723 H       1  UNL1        0.1442
     49 H          -6.7347    4.2454    0.2060 H       1  UNL1        0.0464
     50 H          -5.0445    4.8873    0.5477 H       1  UNL1        0.0464
     51 H          -5.7054    3.5285    1.4679 H       1  UNL1        0.0464
     52 H          -3.1262    0.8123    1.8160 H       1  UNL1        0.0299
     53 H          -2.5326    2.2088    0.6928 H       1  UNL1        0.0299
     54 H          -3.0011    0.8063   -1.2835 H       1  UNL1        0.0358
     55 H          -1.1452   -0.0409    0.0248 H       1  UNL1        0.0628
     56 H           3.2476    0.8457    0.0669 H       1  UNL1        0.0853
@<TRIPOS>BOND
     1     1     2    1
     2     2     3    3
     3     3     4    1
     4     4     5    1
     5     5     6    1
     6     6     7   ar
     7     7     8   ar
     8     8     9   ar
     9     9    10    1
    10    10    11    1
    11    10    12    2
    12    12    13    1
    13    13    14   ar
    14    14    15   ar
    15    15    16   ar
    16    16    17    1
    17    16    18   ar
    18    18    19    1
    19    19    20    1
    20    19    21    1
    21    21    22    2
    22    22    23    1
    23    22    24    1
    24    24    25    1
    25    25    26    1
    26    26    27    1
    27    26    28    2
    28    26    29    2
    29    25    30    1
    30    30    31    1
    31    18    32   ar
    32     9    33   ar
    33    33    34   ar
    34    34     6   ar
    35    32    13   ar
    36    31    19    1
    37    31    25    1
    38     1    35    1
    39     1    36    1
    40     1    37    1
    41     4    38    1
    42     4    39    1
    43     7    40    1
    44    12    41    1
    45    14    42    1
    46    15    43    1
    47    20    44    1
    48    20    45    1
    49    20    46    1
    50    23    47    1
    51    23    48    1
    52    27    49    1
    53    27    50    1
    54    27    51    1
    55    30    52    1
    56    30    53    1
    57    31    54    1
    58    32    55    1
    59    33    56    1
