@<TRIPOS>MOLECULE
*****
 40 41 0 0 0
SMALL
GASTEIGER

@<TRIPOS>ATOM
      1 C          -3.0393   -3.4102   -0.4371 C.3     1  UNL1        0.0788
      2 O          -3.6835   -2.2018   -0.1818 O.3     1  UNL1       -0.4950
      3 C          -3.1024   -0.9877    0.0890 C.ar    1  UNL1        0.1225
      4 C          -1.7433   -0.7556    0.1552 C.ar    1  UNL1        0.0030
      5 C          -1.1704    0.4691    0.4281 C.ar    1  UNL1        0.0571
      6 N           0.2351    0.6416    0.4855 N.pl3   1  UNL1       -0.3395
      7 C           1.2070   -0.3839    0.2704 C.3     1  UNL1        0.0179
      8 C           1.0638   -0.9081   -1.1311 C.3     1  UNL1       -0.0467
      9 C           2.5891    0.1933    0.5168 C.3     1  UNL1       -0.0337
     10 C           3.6766   -0.8099    0.3152 C.3     1  UNL1       -0.0390
     11 C           5.0008   -0.1266    0.5868 C.3     1  UNL1       -0.0068
     12 N           6.1401   -1.0010    0.4235 N.3     1  UNL1       -0.3300
     13 C          -2.0905    1.4976    0.6411 C.ar    1  UNL1        0.0919
     14 N          -1.5543    2.7142    0.9119 N.ar    1  UNL1       -0.2531
     15 C          -2.3398    3.7768    1.1339 C.ar    1  UNL1        0.0283
     16 C          -3.6997    3.6588    1.0925 C.ar    1  UNL1       -0.0430
     17 C          -4.2362    2.4159    0.8160 C.ar    1  UNL1       -0.0510
     18 C          -3.4542    1.3056    0.5836 C.ar    1  UNL1        0.0056
     19 C          -3.9790    0.0656    0.3078 C.ar    1  UNL1       -0.0107
     20 H          -3.7366   -4.2426   -0.1565 H       1  UNL1        0.0660
     21 H          -2.8426   -3.5552   -1.5297 H       1  UNL1        0.0660
     22 H          -2.1517   -3.5503    0.1872 H       1  UNL1        0.0660
     23 H          -1.1656   -1.6272   -0.0254 H       1  UNL1        0.0673
     24 H           0.5383    1.6371    0.7112 H       1  UNL1        0.1464
     25 H           1.0156   -1.2170    0.9765 H       1  UNL1        0.0495
     26 H           0.1827   -0.4455   -1.6070 H       1  UNL1        0.0247
     27 H           1.9330   -0.6312   -1.7645 H       1  UNL1        0.0247
     28 H           0.8983   -2.0245   -1.1686 H       1  UNL1        0.0247
     29 H           2.7843    1.0610   -0.1426 H       1  UNL1        0.0283
     30 H           2.6270    0.5257    1.5734 H       1  UNL1        0.0283
     31 H           3.6137   -1.6665    1.0124 H       1  UNL1        0.0278
     32 H           3.7131   -1.2316   -0.6964 H       1  UNL1        0.0278
     33 H           5.1275    0.6760   -0.1693 H       1  UNL1        0.0422
     34 H           4.9407    0.2801    1.6346 H       1  UNL1        0.0422
     35 H           6.8100   -0.8556    1.2077 H       1  UNL1        0.1182
     36 H           6.6360   -0.8650   -0.4821 H       1  UNL1        0.1182
     37 H          -1.9759    4.7718    1.3546 H       1  UNL1        0.0830
     38 H          -4.3934    4.4637    1.2596 H       1  UNL1        0.0633
     39 H          -5.3151    2.2958    0.7774 H       1  UNL1        0.0625
     40 H          -5.0590    0.0472    0.2913 H       1  UNL1        0.0661
@<TRIPOS>BOND
     1     1     2    1
     2     2     3    1
     3     3     4   ar
     4     4     5   ar
     5     5     6    1
     6     6     7    1
     7     7     8    1
     8     7     9    1
     9     9    10    1
    10    10    11    1
    11    11    12    1
    12     5    13   ar
    13    13    14   ar
    14    14    15   ar
    15    15    16   ar
    16    16    17   ar
    17    17    18   ar
    18    18    19   ar
    19    19     3   ar
    20    18    13   ar
    21     1    20    1
    22     1    21    1
    23     1    22    1
    24     4    23    1
    25     6    24    1
    26     7    25    1
    27     8    26    1
    28     8    27    1
    29     8    28    1
    30     9    29    1
    31     9    30    1
    32    10    31    1
    33    10    32    1
    34    11    33    1
    35    11    34    1
    36    12    35    1
    37    12    36    1
    38    15    37    1
    39    16    38    1
    40    17    39    1
    41    19    40    1
