
     RDKit          3D

 28 29  0  0  0  0  0  0  0  0999 V2000
    1.2347    0.3912   -0.1526 C   0  0  1  0  0  0  0  0  0  0  0  0
    2.5708    0.2457    0.3871 N   0  0  0  0  0  0  0  0  0  0  0  0
    2.8337   -1.1309    0.5536 C   0  0  0  0  0  0  0  0  0  0  0  0
    3.9803   -1.6009    0.7571 O   0  0  0  0  0  0  0  0  0  0  0  0
    1.5124   -1.7645    0.4301 C   0  0  0  0  0  0  0  0  0  0  0  0
    1.3639   -3.0240    0.5285 O   0  0  0  0  0  0  0  0  0  0  0  0
    0.5079   -0.8058    0.2002 N   0  0  0  0  0  0  0  0  0  0  0  0
   -0.9154   -0.8709    0.2652 C   0  0  2  0  0  0  0  0  0  0  0  0
   -1.5158   -1.7689   -0.8187 C   0  0  0  0  0  0  0  0  0  0  0  0
   -1.0457   -3.0703   -0.7061 O   0  0  0  0  0  0  0  0  0  0  0  0
   -1.6128    0.4364    0.3263 C   0  0  1  0  0  0  0  0  0  0  0  0
   -2.1210    0.7280    1.6075 O   0  0  0  0  0  0  0  0  0  0  0  0
   -0.8322    1.6244   -0.1298 C   0  0  2  0  0  0  0  0  0  0  0  0
   -0.7995    1.7603   -1.4988 O   0  0  0  0  0  0  0  0  0  0  0  0
    0.5464    1.5691    0.4723 C   0  0  2  0  0  0  0  0  0  0  0  0
    1.2639    2.7344    0.3570 O   0  0  0  0  0  0  0  0  0  0  0  0
    1.2668    0.4651   -1.2609 H   0  0  0  0  0  0  0  0  0  0  0  0
    3.2060    1.0522    0.6045 H   0  0  0  0  0  0  0  0  0  0  0  0
   -1.1655   -1.4046    1.2291 H   0  0  0  0  0  0  0  0  0  0  0  0
   -1.2793   -1.3193   -1.8021 H   0  0  0  0  0  0  0  0  0  0  0  0
   -2.6105   -1.7979   -0.6447 H   0  0  0  0  0  0  0  0  0  0  0  0
   -0.5676   -3.4064   -1.4812 H   0  0  0  0  0  0  0  0  0  0  0  0
   -2.5172    0.3864   -0.3328 H   0  0  0  0  0  0  0  0  0  0  0  0
   -3.0015    1.1379    1.5735 H   0  0  0  0  0  0  0  0  0  0  0  0
   -1.3356    2.5343    0.2984 H   0  0  0  0  0  0  0  0  0  0  0  0
   -1.0219    2.7011   -1.7698 H   0  0  0  0  0  0  0  0  0  0  0  0
    0.4255    1.3286    1.5576 H   0  0  0  0  0  0  0  0  0  0  0  0
    1.6293    2.8695   -0.5507 H   0  0  0  0  0  0  0  0  0  0  0  0
  1  2  1  0
  2  3  1  0
  3  4  2  0
  3  5  1  0
  5  6  2  0
  5  7  1  0
  7  8  1  0
  8  9  1  0
  9 10  1  0
  8 11  1  0
 11 12  1  0
 11 13  1  0
 13 14  1  0
 13 15  1  0
 15 16  1  0
  7  1  1  0
 15  1  1  0
  1 17  1  6
  2 18  1  0
  8 19  1  1
  9 20  1  0
  9 21  1  0
 10 22  1  0
 11 23  1  6
 12 24  1  0
 13 25  1  1
 14 26  1  0
 15 27  1  1
 16 28  1  0
M  END
$$$$
