@<TRIPOS>MOLECULE
*****
 67 71 0 0 0
SMALL
GASTEIGER

@<TRIPOS>ATOM
      1 C          -7.0443    0.1579   -0.4177 C.3     1  UNL1       -0.0603
      2 C          -6.3688    1.3937    0.1120 C.3     1  UNL1       -0.0189
      3 C          -7.3211    2.5473    0.1129 C.3     1  UNL1       -0.0603
      4 C          -5.8948    1.1635    1.5567 C.3     1  UNL1        0.0767
      5 C          -4.9326    0.0173    1.6184 C.3     1  UNL1        0.0413
      6 N          -3.5848    0.6186    1.6830 N.am    1  UNL1       -0.2957
      7 C          -2.6998    0.4765    0.6002 C.2     1  UNL1        0.2326
      8 O          -3.2314   -0.1190   -0.4310 O.2     1  UNL1       -0.2741
      9 C          -1.2950    0.8947    0.5193 C.3     1  UNL1        0.1054
     10 C          -0.4723   -0.1535   -0.2592 C.3     1  UNL1       -0.0220
     11 C          -0.1716    0.2527    1.1445 C.3     1  UNL1        0.0134
     12 C           1.1749    0.9849    1.2322 C.3     1  UNL1        0.0935
     13 C           1.1922    1.8598    2.4348 C.3     1  UNL1       -0.0351
     14 C           2.1864   -0.1273    1.3920 C.ar    1  UNL1        0.0158
     15 C           3.0482   -0.3587    0.3042 C.ar    1  UNL1       -0.0463
     16 C           3.8855   -1.4688    0.2974 C.ar    1  UNL1       -0.0217
     17 C           4.7303   -1.8728   -0.8101 C.2     1  UNL1       -0.0172
     18 C           5.2956   -1.1423   -1.7233 C.2     1  UNL1        0.1492
     19 F           5.1066    0.1902   -1.6806 F       1  UNL1       -0.2032
     20 C           6.0907   -1.7109   -2.8093 C.ar    1  UNL1        0.0990
     21 C           6.3721   -3.0283   -2.9306 C.ar    1  UNL1       -0.0322
     22 C           7.0567   -3.5507   -4.0359 C.ar    1  UNL1       -0.0408
     23 C           7.4718   -2.7092   -5.0507 C.ar    1  UNL1        0.0699
     24 C           8.1506   -3.2912   -6.1932 C.1     1  UNL1        0.1007
     25 N           8.7029   -3.7412   -7.1170 N.1     1  UNL1       -0.1908
     26 C           7.1808   -1.3681   -4.9057 C.ar    1  UNL1        0.0457
     27 N           6.5124   -0.8727   -3.8225 N.ar    1  UNL1       -0.2514
     28 C           3.7978   -2.2877    1.4265 C.ar    1  UNL1       -0.0518
     29 C           2.9704   -2.0774    2.4912 C.ar    1  UNL1       -0.0255
     30 C           2.1436   -0.9523    2.4529 C.ar    1  UNL1        0.1289
     31 F           1.2942   -0.7601    3.5283 F       1  UNL1       -0.2051
     32 N           1.5234    1.7130    0.0609 N.2     1  UNL1       -0.2521
     33 C           0.7710    2.5062   -0.5774 C.2     1  UNL1        0.1485
     34 N           1.1558    3.1981   -1.7103 N.pl3   1  UNL1       -0.3380
     35 S          -0.9316    2.6390    0.0434 S.3     1  UNL1       -0.0746
     36 C          -3.3272    1.3283    2.9114 C.3     1  UNL1        0.0382
     37 C          -4.5607    2.1973    3.1512 C.3     1  UNL1        0.0638
     38 O          -5.3461    2.3407    2.0012 O.3     1  UNL1       -0.3732
     39 H          -7.7849   -0.2926    0.2505 H       1  UNL1        0.0233
     40 H          -7.6028    0.4829   -1.3248 H       1  UNL1        0.0233
     41 H          -6.3060   -0.6159   -0.7885 H       1  UNL1        0.0233
     42 H          -5.4596    1.5753   -0.4855 H       1  UNL1        0.0321
     43 H          -6.7961    3.5083    0.3858 H       1  UNL1        0.0233
     44 H          -7.7045    2.6905   -0.9112 H       1  UNL1        0.0233
     45 H          -8.1267    2.3637    0.8619 H       1  UNL1        0.0233
     46 H          -6.8118    0.8408    2.1287 H       1  UNL1        0.0614
     47 H          -5.0866   -0.5314    2.5897 H       1  UNL1        0.0490
     48 H          -5.0449   -0.6954    0.8078 H       1  UNL1        0.0490
     49 H          -0.9379   -1.1391   -0.4706 H       1  UNL1        0.0287
     50 H           0.1162    0.2390   -1.0803 H       1  UNL1        0.0287
     51 H          -0.3562   -0.3941    2.0109 H       1  UNL1        0.0346
     52 H           1.4358    1.3774    3.3911 H       1  UNL1        0.0256
     53 H           1.9210    2.7109    2.3521 H       1  UNL1        0.0256
     54 H           0.1791    2.3437    2.6023 H       1  UNL1        0.0256
     55 H           3.0798    0.3089   -0.5345 H       1  UNL1        0.0628
     56 H           4.9409   -2.9682   -0.9053 H       1  UNL1        0.0653
     57 H           6.0617   -3.7152   -2.1427 H       1  UNL1        0.0640
     58 H           7.2564   -4.6149   -4.0910 H       1  UNL1        0.0631
     59 H           7.5089   -0.7275   -5.6938 H       1  UNL1        0.0843
     60 H           4.4573   -3.1634    1.4155 H       1  UNL1        0.0624
     61 H           2.9204   -2.7204    3.3370 H       1  UNL1        0.0646
     62 H           0.7667    4.1733   -1.8668 H       1  UNL1        0.1442
     63 H           1.8155    2.7682   -2.4024 H       1  UNL1        0.1442
     64 H          -3.3308    0.5577    3.7100 H       1  UNL1        0.0487
     65 H          -2.4082    1.9218    2.8990 H       1  UNL1        0.0487
     66 H          -4.1676    3.2373    3.3564 H       1  UNL1        0.0575
     67 H          -5.1666    1.8738    3.9988 H       1  UNL1        0.0575
@<TRIPOS>BOND
     1     1     2    1
     2     2     3    1
     3     2     4    1
     4     4     5    1
     5     5     6    1
     6     6     7   am
     7     7     8    2
     8     9     7    1
     9     9    10    1
    10    10    11    1
    11    11    12    1
    12    12    13    1
    13    12    14    1
    14    14    15   ar
    15    15    16   ar
    16    16    17    1
    17    17    18    2
    18    18    19    1
    19    18    20    1
    20    20    21   ar
    21    21    22   ar
    22    22    23   ar
    23    23    24    1
    24    24    25    3
    25    23    26   ar
    26    26    27   ar
    27    16    28   ar
    28    28    29   ar
    29    29    30   ar
    30    30    31    1
    31    12    32    1
    32    32    33    2
    33    33    34    1
    34    33    35    1
    35     6    36    1
    36    36    37    1
    37    37    38    1
    38    38     4    1
    39    11     9    1
    40    30    14   ar
    41    35     9    1
    42    27    20   ar
    43     1    39    1
    44     1    40    1
    45     1    41    1
    46     2    42    1
    47     3    43    1
    48     3    44    1
    49     3    45    1
    50     4    46    1
    51     5    47    1
    52     5    48    1
    53    10    49    1
    54    10    50    1
    55    11    51    1
    56    13    52    1
    57    13    53    1
    58    13    54    1
    59    15    55    1
    60    17    56    1
    61    21    57    1
    62    22    58    1
    63    26    59    1
    64    28    60    1
    65    29    61    1
    66    34    62    1
    67    34    63    1
    68    36    64    1
    69    36    65    1
    70    37    66    1
    71    37    67    1
