
     RDKit          3D

 67 71  0  0  0  0  0  0  0  0999 V2000
   -7.0443    0.1579   -0.4177 C   0  0  0  0  0  0  0  0  0  0  0  0
   -6.3688    1.3937    0.1120 C   0  0  0  0  0  0  0  0  0  0  0  0
   -7.3211    2.5473    0.1129 C   0  0  0  0  0  0  0  0  0  0  0  0
   -5.8948    1.1635    1.5567 C   0  0  1  0  0  0  0  0  0  0  0  0
   -4.9326    0.0173    1.6184 C   0  0  0  0  0  0  0  0  0  0  0  0
   -3.5848    0.6186    1.6830 N   0  0  0  0  0  0  0  0  0  0  0  0
   -2.6998    0.4765    0.6002 C   0  0  0  0  0  0  0  0  0  0  0  0
   -3.2314   -0.1190   -0.4310 O   0  0  0  0  0  0  0  0  0  0  0  0
   -1.2950    0.8947    0.5193 C   0  0  2  0  0  0  0  0  0  0  0  0
   -0.4723   -0.1535   -0.2592 C   0  0  0  0  0  0  0  0  0  0  0  0
   -0.1716    0.2527    1.1445 C   0  0  1  0  0  0  0  0  0  0  0  0
    1.1749    0.9849    1.2322 C   0  0  1  0  0  0  0  0  0  0  0  0
    1.1922    1.8598    2.4348 C   0  0  0  0  0  0  0  0  0  0  0  0
    2.1864   -0.1273    1.3920 C   0  0  0  0  0  0  0  0  0  0  0  0
    3.0482   -0.3587    0.3042 C   0  0  0  0  0  0  0  0  0  0  0  0
    3.8855   -1.4688    0.2974 C   0  0  0  0  0  0  0  0  0  0  0  0
    4.7303   -1.8728   -0.8101 C   0  0  0  0  0  0  0  0  0  0  0  0
    5.2956   -1.1423   -1.7233 C   0  0  0  0  0  0  0  0  0  0  0  0
    5.1066    0.1902   -1.6806 F   0  0  0  0  0  0  0  0  0  0  0  0
    6.0907   -1.7109   -2.8093 C   0  0  0  0  0  0  0  0  0  0  0  0
    6.3721   -3.0283   -2.9306 C   0  0  0  0  0  0  0  0  0  0  0  0
    7.0567   -3.5507   -4.0359 C   0  0  0  0  0  0  0  0  0  0  0  0
    7.4718   -2.7092   -5.0507 C   0  0  0  0  0  0  0  0  0  0  0  0
    8.1506   -3.2912   -6.1932 C   0  0  0  0  0  0  0  0  0  0  0  0
    8.7029   -3.7412   -7.1170 N   0  0  0  0  0  0  0  0  0  0  0  0
    7.1808   -1.3681   -4.9057 C   0  0  0  0  0  0  0  0  0  0  0  0
    6.5124   -0.8727   -3.8225 N   0  0  0  0  0  0  0  0  0  0  0  0
    3.7978   -2.2877    1.4265 C   0  0  0  0  0  0  0  0  0  0  0  0
    2.9704   -2.0774    2.4912 C   0  0  0  0  0  0  0  0  0  0  0  0
    2.1436   -0.9523    2.4529 C   0  0  0  0  0  0  0  0  0  0  0  0
    1.2942   -0.7601    3.5283 F   0  0  0  0  0  0  0  0  0  0  0  0
    1.5234    1.7130    0.0609 N   0  0  0  0  0  0  0  0  0  0  0  0
    0.7710    2.5062   -0.5774 C   0  0  0  0  0  0  0  0  0  0  0  0
    1.1558    3.1981   -1.7103 N   0  0  0  0  0  0  0  0  0  0  0  0
   -0.9316    2.6390    0.0434 S   0  0  0  0  0  0  0  0  0  0  0  0
   -3.3272    1.3283    2.9114 C   0  0  0  0  0  0  0  0  0  0  0  0
   -4.5607    2.1973    3.1512 C   0  0  0  0  0  0  0  0  0  0  0  0
   -5.3461    2.3407    2.0012 O   0  0  0  0  0  0  0  0  0  0  0  0
   -7.7849   -0.2926    0.2505 H   0  0  0  0  0  0  0  0  0  0  0  0
   -7.6028    0.4829   -1.3248 H   0  0  0  0  0  0  0  0  0  0  0  0
   -6.3060   -0.6159   -0.7885 H   0  0  0  0  0  0  0  0  0  0  0  0
   -5.4596    1.5753   -0.4855 H   0  0  0  0  0  0  0  0  0  0  0  0
   -6.7961    3.5083    0.3858 H   0  0  0  0  0  0  0  0  0  0  0  0
   -7.7045    2.6905   -0.9112 H   0  0  0  0  0  0  0  0  0  0  0  0
   -8.1267    2.3637    0.8619 H   0  0  0  0  0  0  0  0  0  0  0  0
   -6.8118    0.8408    2.1287 H   0  0  0  0  0  0  0  0  0  0  0  0
   -5.0866   -0.5314    2.5897 H   0  0  0  0  0  0  0  0  0  0  0  0
   -5.0449   -0.6954    0.8078 H   0  0  0  0  0  0  0  0  0  0  0  0
   -0.9379   -1.1391   -0.4706 H   0  0  0  0  0  0  0  0  0  0  0  0
    0.1162    0.2390   -1.0803 H   0  0  0  0  0  0  0  0  0  0  0  0
   -0.3562   -0.3941    2.0109 H   0  0  0  0  0  0  0  0  0  0  0  0
    1.4358    1.3774    3.3911 H   0  0  0  0  0  0  0  0  0  0  0  0
    1.9210    2.7109    2.3521 H   0  0  0  0  0  0  0  0  0  0  0  0
    0.1791    2.3437    2.6023 H   0  0  0  0  0  0  0  0  0  0  0  0
    3.0798    0.3089   -0.5345 H   0  0  0  0  0  0  0  0  0  0  0  0
    4.9409   -2.9682   -0.9053 H   0  0  0  0  0  0  0  0  0  0  0  0
    6.0617   -3.7152   -2.1427 H   0  0  0  0  0  0  0  0  0  0  0  0
    7.2564   -4.6149   -4.0910 H   0  0  0  0  0  0  0  0  0  0  0  0
    7.5089   -0.7275   -5.6938 H   0  0  0  0  0  0  0  0  0  0  0  0
    4.4573   -3.1634    1.4155 H   0  0  0  0  0  0  0  0  0  0  0  0
    2.9204   -2.7204    3.3370 H   0  0  0  0  0  0  0  0  0  0  0  0
    0.7667    4.1733   -1.8668 H   0  0  0  0  0  0  0  0  0  0  0  0
    1.8155    2.7682   -2.4024 H   0  0  0  0  0  0  0  0  0  0  0  0
   -3.3308    0.5577    3.7100 H   0  0  0  0  0  0  0  0  0  0  0  0
   -2.4082    1.9218    2.8990 H   0  0  0  0  0  0  0  0  0  0  0  0
   -4.1676    3.2373    3.3564 H   0  0  0  0  0  0  0  0  0  0  0  0
   -5.1666    1.8738    3.9988 H   0  0  0  0  0  0  0  0  0  0  0  0
  1  2  1  0
  2  3  1  0
  2  4  1  0
  4  5  1  0
  5  6  1  0
  6  7  1  0
  7  8  2  0
  9  7  1  1
  9 10  1  0
 10 11  1  0
 11 12  1  0
 12 13  1  1
 12 14  1  0
 14 15  2  0
 15 16  1  0
 16 17  1  0
 17 18  2  0
 18 19  1  0
 18 20  1  0
 20 21  2  0
 21 22  1  0
 22 23  2  0
 23 24  1  0
 24 25  3  0
 23 26  1  0
 26 27  2  0
 16 28  2  0
 28 29  1  0
 29 30  2  0
 30 31  1  0
 12 32  1  0
 32 33  2  0
 33 34  1  0
 33 35  1  0
  6 36  1  0
 36 37  1  0
 37 38  1  0
 38  4  1  0
 11  9  1  0
 30 14  1  0
 35  9  1  0
 27 20  1  0
  1 39  1  0
  1 40  1  0
  1 41  1  0
  2 42  1  0
  3 43  1  0
  3 44  1  0
  3 45  1  0
  4 46  1  1
  5 47  1  0
  5 48  1  0
 10 49  1  0
 10 50  1  0
 11 51  1  1
 13 52  1  0
 13 53  1  0
 13 54  1  0
 15 55  1  0
 17 56  1  0
 21 57  1  0
 22 58  1  0
 26 59  1  0
 28 60  1  0
 29 61  1  0
 34 62  1  0
 34 63  1  0
 36 64  1  0
 36 65  1  0
 37 66  1  0
 37 67  1  0
M  END
$$$$
