
     RDKit          3D

 47 50  0  0  0  0  0  0  0  0999 V2000
   10.8373    1.8879    1.2557 Cl  0  0  0  0  0  0  0  0  0  0  0  0
    9.1408    1.2336    0.8156 C   0  0  0  0  0  0  0  0  0  0  0  0
    8.9995    0.0284    0.0686 C   0  0  0  0  0  0  0  0  0  0  0  0
    7.7193   -0.3189   -0.1730 C   0  0  0  0  0  0  0  0  0  0  0  0
    6.6861    0.4063    0.2527 C   0  0  0  0  0  0  0  0  0  0  0  0
    7.3813    1.7621    1.1045 S   0  0  0  0  0  0  0  0  0  0  0  0
    5.2328    0.2733    0.1394 C   0  0  0  0  0  0  0  0  0  0  0  0
    4.5260    1.1644    0.6744 O   0  0  0  0  0  0  0  0  0  0  0  0
    4.6046   -0.7855   -0.5277 N   0  0  0  0  0  0  0  0  0  0  0  0
    3.2082   -1.0488   -0.7229 C   0  0  0  0  0  0  0  0  0  0  0  0
    2.4560    0.0028   -1.4774 C   0  0  1  0  0  0  0  0  0  0  0  0
    0.9910   -0.3630   -1.4775 C   0  0  0  0  0  0  0  0  0  0  0  0
    0.3850    0.4584   -0.4450 N   0  0  0  0  0  0  0  0  0  0  0  0
    1.3629    1.3967   -0.0180 C   0  0  0  0  0  0  0  0  0  0  0  0
    1.0865    2.1086    0.9910 O   0  0  0  0  0  0  0  0  0  0  0  0
    2.4498    1.2709   -0.8947 O   0  0  0  0  0  0  0  0  0  0  0  0
   -0.9732    0.2008   -0.0729 C   0  0  0  0  0  0  0  0  0  0  0  0
   -1.8821    0.9269   -0.8288 C   0  0  0  0  0  0  0  0  0  0  0  0
   -3.2463    0.8539   -0.6626 C   0  0  0  0  0  0  0  0  0  0  0  0
   -3.7202   -0.0088    0.3323 C   0  0  0  0  0  0  0  0  0  0  0  0
   -2.8238   -0.7337    1.0877 C   0  0  0  0  0  0  0  0  0  0  0  0
   -1.4650   -0.6530    0.9131 C   0  0  0  0  0  0  0  0  0  0  0  0
   -5.1173   -0.1119    0.5344 N   0  0  0  0  0  0  0  0  0  0  0  0
   -5.9975    0.6626    1.4200 C   0  0  0  0  0  0  0  0  0  0  0  0
   -7.2321   -0.1986    1.6373 C   0  0  0  0  0  0  0  0  0  0  0  0
   -7.8951   -0.3689    0.4270 O   0  0  0  0  0  0  0  0  0  0  0  0
   -7.2216   -1.2149   -0.4418 C   0  0  0  0  0  0  0  0  0  0  0  0
   -5.7428   -1.1378   -0.2604 C   0  0  0  0  0  0  0  0  0  0  0  0
   -5.0965   -2.0456   -0.8617 O   0  0  0  0  0  0  0  0  0  0  0  0
    9.8680   -0.5264   -0.2553 H   0  0  0  0  0  0  0  0  0  0  0  0
    7.4476   -1.2188   -0.7344 H   0  0  0  0  0  0  0  0  0  0  0  0
    5.3097   -1.4735   -0.9351 H   0  0  0  0  0  0  0  0  0  0  0  0
    2.6664   -1.1582    0.2659 H   0  0  0  0  0  0  0  0  0  0  0  0
    3.0716   -2.0135   -1.2180 H   0  0  0  0  0  0  0  0  0  0  0  0
    2.7588    0.0462   -2.5513 H   0  0  0  0  0  0  0  0  0  0  0  0
    0.5233   -0.1839   -2.4697 H   0  0  0  0  0  0  0  0  0  0  0  0
    0.8833   -1.4150   -1.1653 H   0  0  0  0  0  0  0  0  0  0  0  0
   -1.5982    1.6234   -1.6260 H   0  0  0  0  0  0  0  0  0  0  0  0
   -3.9591    1.4165   -1.2480 H   0  0  0  0  0  0  0  0  0  0  0  0
   -3.1605   -1.4034    1.8580 H   0  0  0  0  0  0  0  0  0  0  0  0
   -0.6884   -1.1656    1.4385 H   0  0  0  0  0  0  0  0  0  0  0  0
   -6.3337    1.5503    0.8336 H   0  0  0  0  0  0  0  0  0  0  0  0
   -5.5182    0.9261    2.3687 H   0  0  0  0  0  0  0  0  0  0  0  0
   -7.9051    0.3729    2.3066 H   0  0  0  0  0  0  0  0  0  0  0  0
   -6.9718   -1.1563    2.1255 H   0  0  0  0  0  0  0  0  0  0  0  0
   -7.5385   -0.9542   -1.4724 H   0  0  0  0  0  0  0  0  0  0  0  0
   -7.5088   -2.2972   -0.3107 H   0  0  0  0  0  0  0  0  0  0  0  0
  1  2  1  0
  2  3  2  0
  3  4  1  0
  4  5  2  0
  5  6  1  0
  5  7  1  0
  7  8  2  0
  7  9  1  0
  9 10  1  0
 10 11  1  0
 11 12  1  0
 12 13  1  0
 13 14  1  0
 14 15  2  0
 14 16  1  0
 13 17  1  0
 17 18  2  0
 18 19  1  0
 19 20  2  0
 20 21  1  0
 21 22  2  0
 20 23  1  0
 23 24  1  0
 24 25  1  0
 25 26  1  0
 26 27  1  0
 27 28  1  0
 28 29  2  0
  6  2  1  0
 16 11  1  0
 22 17  1  0
 28 23  1  0
  3 30  1  0
  4 31  1  0
  9 32  1  0
 10 33  1  0
 10 34  1  0
 11 35  1  6
 12 36  1  0
 12 37  1  0
 18 38  1  0
 19 39  1  0
 21 40  1  0
 22 41  1  0
 24 42  1  0
 24 43  1  0
 25 44  1  0
 25 45  1  0
 27 46  1  0
 27 47  1  0
M  END
$$$$
