@<TRIPOS>MOLECULE
*****
 37 39 0 0 0
SMALL
GASTEIGER

@<TRIPOS>ATOM
      1 CL         -3.9829    1.8033   -2.1997 Cl      1  UNL1       -0.0820
      2 C          -3.6138    1.3794   -0.5341 C.ar    1  UNL1        0.0603
      3 C          -4.2977    1.9895    0.4858 C.ar    1  UNL1       -0.0419
      4 C          -3.9841    1.6340    1.7924 C.ar    1  UNL1       -0.0592
      5 C          -3.0046    0.6880    2.0217 C.ar    1  UNL1       -0.0465
      6 C          -2.3172    0.0747    1.0001 C.ar    1  UNL1        0.0325
      7 S          -1.0678   -1.1342    1.3448 S.3     1  UNL1       -0.0861
      8 C          -0.2913   -1.8146   -0.0686 C.ar    1  UNL1        0.0338
      9 C          -0.8405   -2.9590   -0.6478 C.ar    1  UNL1       -0.0462
     10 C          -0.2823   -3.5540   -1.7594 C.ar    1  UNL1       -0.0606
     11 C           0.8513   -2.9737   -2.2872 C.ar    1  UNL1       -0.0599
     12 C           1.4043   -1.8422   -1.7242 C.ar    1  UNL1       -0.0396
     13 C           0.8431   -1.2388   -0.6015 C.ar    1  UNL1        0.0437
     14 N           1.3730   -0.0797    0.0103 N.pl3   1  UNL1       -0.3266
     15 C           1.8300    0.0024    1.3668 C.3     1  UNL1        0.0248
     16 C           3.2390    0.5475    1.4707 C.3     1  UNL1        0.0117
     17 N           3.6482    1.2491    0.2827 N.3     1  UNL1       -0.3130
     18 C           2.5833    2.0279   -0.3143 C.3     1  UNL1        0.0117
     19 C           1.4716    1.1378   -0.7811 C.3     1  UNL1        0.0248
     20 C          -2.6243    0.4234   -0.2918 C.ar    1  UNL1        0.0729
     21 CL         -1.7792   -0.3275   -1.6259 Cl      1  UNL1       -0.0809
     22 H          -5.0641    2.7318    0.2553 H       1  UNL1        0.0633
     23 H          -4.5288    2.1199    2.6050 H       1  UNL1        0.0618
     24 H          -2.7592    0.4094    3.0558 H       1  UNL1        0.0629
     25 H          -1.7401   -3.4206   -0.2299 H       1  UNL1        0.0629
     26 H          -0.7331   -4.4481   -2.1909 H       1  UNL1        0.0618
     27 H           1.2963   -3.4284   -3.1544 H       1  UNL1        0.0618
     28 H           2.3014   -1.3734   -2.1326 H       1  UNL1        0.0636
     29 H           1.8234   -0.9684    1.8948 H       1  UNL1        0.0476
     30 H           1.1339    0.6970    1.9051 H       1  UNL1        0.0476
     31 H           3.2863    1.1645    2.3872 H       1  UNL1        0.0439
     32 H           3.9603   -0.3129    1.5895 H       1  UNL1        0.0439
     33 H           4.4917    1.7990    0.4637 H       1  UNL1        0.1220
     34 H           2.1873    2.8003    0.3824 H       1  UNL1        0.0439
     35 H           3.0220    2.5564   -1.1860 H       1  UNL1        0.0439
     36 H           0.5307    1.7294   -0.7279 H       1  UNL1        0.0476
     37 H           1.6341    0.9108   -1.8568 H       1  UNL1        0.0476
@<TRIPOS>BOND
     1     1     2    1
     2     2     3   ar
     3     3     4   ar
     4     4     5   ar
     5     5     6   ar
     6     6     7    1
     7     7     8    1
     8     8     9   ar
     9     9    10   ar
    10    10    11   ar
    11    11    12   ar
    12    12    13   ar
    13    13    14    1
    14    14    15    1
    15    15    16    1
    16    16    17    1
    17    17    18    1
    18    18    19    1
    19     6    20   ar
    20    20    21    1
    21    20     2   ar
    22    13     8   ar
    23    19    14    1
    24     3    22    1
    25     4    23    1
    26     5    24    1
    27     9    25    1
    28    10    26    1
    29    11    27    1
    30    12    28    1
    31    15    29    1
    32    15    30    1
    33    16    31    1
    34    16    32    1
    35    17    33    1
    36    18    34    1
    37    18    35    1
    38    19    36    1
    39    19    37    1
