@<TRIPOS>MOLECULE
*****
 37 39 0 0 0
SMALL
GASTEIGER

@<TRIPOS>ATOM
      1 O           1.7529    1.1788   -1.0754 O.2     1  UNL1       -0.2699
      2 C           2.2016    0.3810   -0.1950 C.2     1  UNL1        0.2483
      3 N           1.3518   -0.0035    0.8696 N.am    1  UNL1       -0.2785
      4 C           0.0265    0.5204    0.9102 C.ar    1  UNL1        0.0762
      5 C          -1.0444   -0.0894    0.3160 C.ar    1  UNL1       -0.0292
      6 C          -2.3180    0.4471    0.3761 C.ar    1  UNL1       -0.0159
      7 C          -3.4769   -0.1831   -0.2490 C.ar    1  UNL1       -0.0178
      8 C          -3.6022   -1.5544   -0.3782 C.ar    1  UNL1       -0.0540
      9 C          -4.7070   -2.1299   -0.9721 C.ar    1  UNL1       -0.0612
     10 C          -5.7418   -1.3389   -1.4655 C.ar    1  UNL1       -0.0617
     11 C          -5.6243    0.0308   -1.3403 C.ar    1  UNL1       -0.0612
     12 C          -4.5177    0.5838   -0.7465 C.ar    1  UNL1       -0.0540
     13 C          -2.4741    1.6374    1.0666 C.ar    1  UNL1       -0.0505
     14 C          -1.4160    2.2757    1.6754 C.ar    1  UNL1       -0.0178
     15 C          -0.1582    1.7052    1.5915 C.ar    1  UNL1        0.1380
     16 O           0.9009    2.3519    2.2054 O.3     1  UNL1       -0.5049
     17 C           3.5835   -0.0930   -0.3422 C.ar    1  UNL1        0.0370
     18 C           4.1441   -0.9591    0.5673 C.ar    1  UNL1       -0.0496
     19 C           5.4555   -1.4162    0.4383 C.ar    1  UNL1       -0.0610
     20 C           6.2379   -1.0158   -0.6063 C.ar    1  UNL1       -0.0617
     21 C           5.6641   -0.1358   -1.5278 C.ar    1  UNL1       -0.0610
     22 C           4.3682    0.3146   -1.3986 C.ar    1  UNL1       -0.0496
     23 H           1.7060   -0.6610    1.6049 H       1  UNL1        0.1552
     24 H          -0.8932   -1.0186   -0.2167 H       1  UNL1        0.0643
     25 H          -2.8327   -2.2025   -0.0146 H       1  UNL1        0.0624
     26 H          -4.8369   -3.1949   -1.0886 H       1  UNL1        0.0618
     27 H          -6.6060   -1.8084   -1.9312 H       1  UNL1        0.0618
     28 H          -6.4387    0.6285   -1.7293 H       1  UNL1        0.0618
     29 H          -4.4392    1.6619   -0.6551 H       1  UNL1        0.0624
     30 H          -3.4708    2.0517    1.1104 H       1  UNL1        0.0625
     31 H          -1.6070    3.2076    2.2014 H       1  UNL1        0.0655
     32 H           1.8154    2.4249    1.7516 H       1  UNL1        0.2922
     33 H           3.6090   -1.3268    1.4167 H       1  UNL1        0.0625
     34 H           5.8693   -2.1060    1.1818 H       1  UNL1        0.0618
     35 H           7.2549   -1.3489   -0.7365 H       1  UNL1        0.0618
     36 H           6.2970    0.1854   -2.3693 H       1  UNL1        0.0618
     37 H           3.9668    0.9996   -2.1428 H       1  UNL1        0.0625
@<TRIPOS>BOND
     1     1     2    2
     2     2     3   am
     3     3     4    1
     4     4     5   ar
     5     5     6   ar
     6     6     7    1
     7     7     8   ar
     8     8     9   ar
     9     9    10   ar
    10    10    11   ar
    11    11    12   ar
    12     6    13   ar
    13    13    14   ar
    14    14    15   ar
    15    15    16    1
    16     2    17    1
    17    17    18   ar
    18    18    19   ar
    19    19    20   ar
    20    20    21   ar
    21    21    22   ar
    22    15     4   ar
    23    22    17   ar
    24    12     7   ar
    25     3    23    1
    26     5    24    1
    27     8    25    1
    28     9    26    1
    29    10    27    1
    30    11    28    1
    31    12    29    1
    32    13    30    1
    33    14    31    1
    34    16    32    1
    35    18    33    1
    36    19    34    1
    37    20    35    1
    38    21    36    1
    39    22    37    1
