@<TRIPOS>MOLECULE
*****
 39 38 0 0 0
SMALL
GASTEIGER

@<TRIPOS>ATOM
      1 C          -5.9318    0.0893    0.5728 C.3     1  UNL1       -0.0653
      2 C          -5.2318   -0.2349   -0.7308 C.3     1  UNL1       -0.0559
      3 C          -3.7939    0.2132   -0.7252 C.3     1  UNL1       -0.0533
      4 C          -2.9935   -0.4538    0.3820 C.3     1  UNL1       -0.0531
      5 C          -1.5831    0.1017    0.2479 C.3     1  UNL1       -0.0531
      6 C          -0.6505   -0.4455    1.2608 C.3     1  UNL1       -0.0531
      7 C           0.7196    0.1746    1.0911 C.3     1  UNL1       -0.0531
      8 C           1.2614   -0.1284   -0.2610 C.3     1  UNL1       -0.0531
      9 C           2.6334    0.4778   -0.4396 C.3     1  UNL1       -0.0530
     10 C           3.5860   -0.0792    0.5427 C.3     1  UNL1       -0.0510
     11 C           4.9541    0.5159    0.3685 C.3     1  UNL1       -0.0297
     12 C           5.4883    0.2114   -1.0012 C.3     1  UNL1        0.0442
     13 O           5.5190   -1.1884   -1.1089 O.3     1  UNL1       -0.3950
     14 H          -5.6747    1.1084    0.9309 H       1  UNL1        0.0230
     15 H          -5.7811   -0.7059    1.3200 H       1  UNL1        0.0230
     16 H          -7.0224    0.1172    0.3494 H       1  UNL1        0.0230
     17 H          -5.7377    0.2774   -1.5533 H       1  UNL1        0.0263
     18 H          -5.2537   -1.3222   -0.8708 H       1  UNL1        0.0263
     19 H          -3.3738   -0.1002   -1.7127 H       1  UNL1        0.0265
     20 H          -3.6846    1.3145   -0.6775 H       1  UNL1        0.0265
     21 H          -3.4518   -0.2880    1.3547 H       1  UNL1        0.0265
     22 H          -2.9498   -1.5423    0.1925 H       1  UNL1        0.0265
     23 H          -1.5462    1.1843    0.1912 H       1  UNL1        0.0265
     24 H          -1.2582   -0.2901   -0.7658 H       1  UNL1        0.0265
     25 H          -1.0151   -0.2470    2.2934 H       1  UNL1        0.0265
     26 H          -0.5987   -1.5558    1.1832 H       1  UNL1        0.0265
     27 H           1.3681   -0.1219    1.9447 H       1  UNL1        0.0265
     28 H           0.6359    1.3049    1.1394 H       1  UNL1        0.0265
     29 H           0.5620    0.3276   -1.0214 H       1  UNL1        0.0265
     30 H           1.2498   -1.2093   -0.4334 H       1  UNL1        0.0265
     31 H           2.5611    1.5763   -0.2655 H       1  UNL1        0.0265
     32 H           2.9576    0.3759   -1.4902 H       1  UNL1        0.0265
     33 H           3.2541    0.0522    1.6086 H       1  UNL1        0.0266
     34 H           3.6418   -1.1868    0.3880 H       1  UNL1        0.0266
     35 H           4.9049    1.6292    0.4543 H       1  UNL1        0.0287
     36 H           5.6526    0.1975    1.1757 H       1  UNL1        0.0287
     37 H           4.8608    0.6868   -1.7659 H       1  UNL1        0.0557
     38 H           6.5583    0.5963   -1.1037 H       1  UNL1        0.0557
     39 H           5.1636   -1.4325   -2.0032 H       1  UNL1        0.2094
@<TRIPOS>BOND
     1     1     2    1
     2     2     3    1
     3     3     4    1
     4     4     5    1
     5     5     6    1
     6     6     7    1
     7     7     8    1
     8     8     9    1
     9     9    10    1
    10    10    11    1
    11    11    12    1
    12    12    13    1
    13     1    14    1
    14     1    15    1
    15     1    16    1
    16     2    17    1
    17     2    18    1
    18     3    19    1
    19     3    20    1
    20     4    21    1
    21     4    22    1
    22     5    23    1
    23     5    24    1
    24     6    25    1
    25     6    26    1
    26     7    27    1
    27     7    28    1
    28     8    29    1
    29     8    30    1
    30     9    31    1
    31     9    32    1
    32    10    33    1
    33    10    34    1
    34    11    35    1
    35    11    36    1
    36    12    37    1
    37    12    38    1
    38    13    39    1
