
     RDKit          3D

 60 64  0  0  0  0  0  0  0  0999 V2000
   -3.8911   -4.0338    1.9073 C   0  0  0  0  0  0  0  0  0  0  0  0
   -4.7839   -3.1713    1.1989 O   0  0  0  0  0  0  0  0  0  0  0  0
   -4.2605   -2.0974    0.4946 C   0  0  0  0  0  0  0  0  0  0  0  0
   -2.8978   -1.8361    0.4589 C   0  0  0  0  0  0  0  0  0  0  0  0
   -2.3824   -0.7682   -0.2421 C   0  0  0  0  0  0  0  0  0  0  0  0
   -0.9683   -0.4557   -0.3087 C   0  0  0  0  0  0  0  0  0  0  0  0
   -0.3272   -1.0017   -1.2688 O   0  0  0  0  0  0  0  0  0  0  0  0
   -0.3050    0.3902    0.6055 N   0  0  0  0  0  0  0  0  0  0  0  0
   -1.0462    0.9969    1.6838 C   0  0  0  0  0  0  0  0  0  0  0  0
   -0.8465    2.4861    1.6200 C   0  0  0  0  0  0  0  0  0  0  0  0
    0.4142    2.8593    1.2174 O   0  0  0  0  0  0  0  0  0  0  0  0
    1.3746    1.8651    1.3995 C   0  0  0  0  0  0  0  0  0  0  0  0
    1.1027    0.6711    0.4938 C   0  0  1  0  0  0  0  0  0  0  0  0
    1.9550   -0.4796    0.9831 C   0  0  0  0  0  0  0  0  0  0  0  0
    3.4086   -0.1482    0.8498 C   0  0  0  0  0  0  0  0  0  0  0  0
    4.0629    0.4637    1.8940 C   0  0  0  0  0  0  0  0  0  0  0  0
    5.3990    0.7580    1.7431 C   0  0  0  0  0  0  0  0  0  0  0  0
    6.0911    0.4635    0.5966 C   0  0  0  0  0  0  0  0  0  0  0  0
    5.4465   -0.1525   -0.4635 C   0  0  0  0  0  0  0  0  0  0  0  0
    6.1584   -0.4622   -1.6593 N   0  0  0  0  0  0  0  0  0  0  0  0
    7.4699   -0.4389   -1.8204 N   0  0  0  0  0  0  0  0  0  0  0  0
    7.7920   -0.7910   -3.0902 C   0  0  0  0  0  0  0  0  0  0  0  0
    6.5942   -1.0393   -3.7236 C   0  0  0  0  0  0  0  0  0  0  0  0
    5.6204   -0.8254   -2.8094 N   0  0  0  0  0  0  0  0  0  0  0  0
    4.1191   -0.4356   -0.2914 C   0  0  0  0  0  0  0  0  0  0  0  0
   -3.2747    0.0336   -0.9089 C   0  0  0  0  0  0  0  0  0  0  0  0
   -2.7738    1.1592   -1.6519 N   0  0  0  0  0  0  0  0  0  0  0  0
   -1.8688    1.1849   -2.5855 N   0  0  0  0  0  0  0  0  0  0  0  0
   -1.7065    2.4472   -3.0085 C   0  0  0  0  0  0  0  0  0  0  0  0
   -2.5765    3.2149   -2.2721 C   0  0  0  0  0  0  0  0  0  0  0  0
   -3.2101    2.3886   -1.4543 N   0  0  0  0  0  0  0  0  0  0  0  0
   -4.6365   -0.1998   -0.8928 C   0  0  0  0  0  0  0  0  0  0  0  0
   -5.1441   -1.2814   -0.1813 C   0  0  0  0  0  0  0  0  0  0  0  0
   -6.5058   -1.5341   -0.1516 O   0  0  0  0  0  0  0  0  0  0  0  0
   -7.3570   -0.6601   -0.8655 C   0  0  0  0  0  0  0  0  0  0  0  0
   -3.3295   -3.4860    2.6952 H   0  0  0  0  0  0  0  0  0  0  0  0
   -3.1257   -4.4275    1.2035 H   0  0  0  0  0  0  0  0  0  0  0  0
   -4.4471   -4.8360    2.4305 H   0  0  0  0  0  0  0  0  0  0  0  0
   -2.2582   -2.5110    1.0079 H   0  0  0  0  0  0  0  0  0  0  0  0
   -0.7065    0.5915    2.6813 H   0  0  0  0  0  0  0  0  0  0  0  0
   -2.1306    0.7744    1.6323 H   0  0  0  0  0  0  0  0  0  0  0  0
   -1.5665    2.8629    0.8358 H   0  0  0  0  0  0  0  0  0  0  0  0
   -1.0881    2.9531    2.6176 H   0  0  0  0  0  0  0  0  0  0  0  0
    1.3183    1.5657    2.4588 H   0  0  0  0  0  0  0  0  0  0  0  0
    2.3484    2.2888    1.1148 H   0  0  0  0  0  0  0  0  0  0  0  0
    1.4323    0.9424   -0.5152 H   0  0  0  0  0  0  0  0  0  0  0  0
    1.7698   -1.4009    0.3964 H   0  0  0  0  0  0  0  0  0  0  0  0
    1.7213   -0.7174    2.0466 H   0  0  0  0  0  0  0  0  0  0  0  0
    3.5280    0.7090    2.8227 H   0  0  0  0  0  0  0  0  0  0  0  0
    5.9308    1.2471    2.5719 H   0  0  0  0  0  0  0  0  0  0  0  0
    7.1532    0.7038    0.4912 H   0  0  0  0  0  0  0  0  0  0  0  0
    8.7968   -0.8640   -3.5254 H   0  0  0  0  0  0  0  0  0  0  0  0
    6.5203   -1.3437   -4.7567 H   0  0  0  0  0  0  0  0  0  0  0  0
    3.6122   -0.9214   -1.1284 H   0  0  0  0  0  0  0  0  0  0  0  0
   -1.0189    2.7742   -3.7801 H   0  0  0  0  0  0  0  0  0  0  0  0
   -2.7043    4.3006   -2.3615 H   0  0  0  0  0  0  0  0  0  0  0  0
   -5.3212    0.4547   -1.4322 H   0  0  0  0  0  0  0  0  0  0  0  0
   -8.3999   -1.0199   -0.8960 H   0  0  0  0  0  0  0  0  0  0  0  0
   -7.2472    0.3390   -0.3895 H   0  0  0  0  0  0  0  0  0  0  0  0
   -7.0334   -0.5494   -1.9317 H   0  0  0  0  0  0  0  0  0  0  0  0
  1  2  1  0
  2  3  1  0
  3  4  2  0
  4  5  1  0
  5  6  1  0
  6  7  2  0
  6  8  1  0
  8  9  1  0
  9 10  1  0
 10 11  1  0
 11 12  1  0
 12 13  1  0
 13 14  1  0
 14 15  1  0
 15 16  2  0
 16 17  1  0
 17 18  2  0
 18 19  1  0
 19 20  1  0
 20 21  1  0
 21 22  2  0
 22 23  1  0
 23 24  2  0
 19 25  2  0
  5 26  2  0
 26 27  1  0
 27 28  1  0
 28 29  2  0
 29 30  1  0
 30 31  2  0
 26 32  1  0
 32 33  2  0
 33 34  1  0
 34 35  1  0
 33  3  1  0
 13  8  1  0
 25 15  1  0
 31 27  1  0
 24 20  1  0
  1 36  1  0
  1 37  1  0
  1 38  1  0
  4 39  1  0
  9 40  1  0
  9 41  1  0
 10 42  1  0
 10 43  1  0
 12 44  1  0
 12 45  1  0
 13 46  1  6
 14 47  1  0
 14 48  1  0
 16 49  1  0
 17 50  1  0
 18 51  1  0
 22 52  1  0
 23 53  1  0
 25 54  1  0
 29 55  1  0
 30 56  1  0
 32 57  1  0
 35 58  1  0
 35 59  1  0
 35 60  1  0
M  END
$$$$
