@<TRIPOS>MOLECULE
*****
 60 64 0 0 0
SMALL
GASTEIGER

@<TRIPOS>ATOM
      1 C          -3.8911   -4.0338    1.9073 C.3     1  UNL1        0.0790
      2 O          -4.7839   -3.1713    1.1989 O.3     1  UNL1       -0.4914
      3 C          -4.2605   -2.0974    0.4946 C.ar    1  UNL1        0.1623
      4 C          -2.8978   -1.8361    0.4589 C.ar    1  UNL1       -0.0021
      5 C          -2.3824   -0.7682   -0.2421 C.ar    1  UNL1        0.0677
      6 C          -0.9683   -0.4557   -0.3087 C.2     1  UNL1        0.2492
      7 O          -0.3272   -1.0017   -1.2688 O.2     1  UNL1       -0.2699
      8 N          -0.3050    0.3902    0.6055 N.am    1  UNL1       -0.2897
      9 C          -1.0462    0.9969    1.6838 C.3     1  UNL1        0.0388
     10 C          -0.8465    2.4861    1.6200 C.3     1  UNL1        0.0635
     11 O           0.4142    2.8593    1.2174 O.3     1  UNL1       -0.3764
     12 C           1.3746    1.8651    1.3995 C.3     1  UNL1        0.0666
     13 C           1.1027    0.6711    0.4938 C.3     1  UNL1        0.0537
     14 C           1.9550   -0.4796    0.9831 C.3     1  UNL1       -0.0068
     15 C           3.4086   -0.1482    0.8498 C.ar    1  UNL1       -0.0435
     16 C           4.0629    0.4637    1.8940 C.ar    1  UNL1       -0.0584
     17 C           5.3990    0.7580    1.7431 C.ar    1  UNL1       -0.0594
     18 C           6.0911    0.4635    0.5966 C.ar    1  UNL1       -0.0345
     19 C           5.4465   -0.1525   -0.4635 C.ar    1  UNL1        0.0864
     20 N           6.1584   -0.4622   -1.6593 N.ar    1  UNL1       -0.1503
     21 N           7.4699   -0.4389   -1.8204 N.ar    1  UNL1       -0.1556
     22 C           7.7920   -0.7910   -3.0902 C.ar    1  UNL1        0.0697
     23 C           6.5942   -1.0393   -3.7236 C.ar    1  UNL1        0.0697
     24 N           5.6204   -0.8254   -2.8094 N.ar    1  UNL1       -0.1556
     25 C           4.1191   -0.4356   -0.2914 C.ar    1  UNL1       -0.0313
     26 C          -3.2747    0.0336   -0.9089 C.ar    1  UNL1        0.1019
     27 N          -2.7738    1.1592   -1.6519 N.ar    1  UNL1       -0.1495
     28 N          -1.8688    1.1849   -2.5855 N.ar    1  UNL1       -0.1556
     29 C          -1.7065    2.4472   -3.0085 C.ar    1  UNL1        0.0697
     30 C          -2.5765    3.2149   -2.2721 C.ar    1  UNL1        0.0697
     31 N          -3.2101    2.3886   -1.4543 N.ar    1  UNL1       -0.1556
     32 C          -4.6365   -0.1998   -0.8928 C.ar    1  UNL1        0.0116
     33 C          -5.1441   -1.2814   -0.1813 C.ar    1  UNL1        0.1636
     34 O          -6.5058   -1.5341   -0.1516 O.3     1  UNL1       -0.4914
     35 C          -7.3570   -0.6601   -0.8655 C.3     1  UNL1        0.0790
     36 H          -3.3295   -3.4860    2.6952 H       1  UNL1        0.0660
     37 H          -3.1257   -4.4275    1.2035 H       1  UNL1        0.0660
     38 H          -4.4471   -4.8360    2.4305 H       1  UNL1        0.0660
     39 H          -2.2582   -2.5110    1.0079 H       1  UNL1        0.0663
     40 H          -0.7065    0.5915    2.6813 H       1  UNL1        0.0487
     41 H          -2.1306    0.7744    1.6323 H       1  UNL1        0.0487
     42 H          -1.5665    2.8629    0.8358 H       1  UNL1        0.0575
     43 H          -1.0881    2.9531    2.6176 H       1  UNL1        0.0575
     44 H           1.3183    1.5657    2.4588 H       1  UNL1        0.0578
     45 H           2.3484    2.2888    1.1148 H       1  UNL1        0.0578
     46 H           1.4323    0.9424   -0.5152 H       1  UNL1        0.0526
     47 H           1.7698   -1.4009    0.3964 H       1  UNL1        0.0332
     48 H           1.7213   -0.7174    2.0466 H       1  UNL1        0.0332
     49 H           3.5280    0.7090    2.8227 H       1  UNL1        0.0620
     50 H           5.9308    1.2471    2.5719 H       1  UNL1        0.0618
     51 H           7.1532    0.7038    0.4912 H       1  UNL1        0.0639
     52 H           8.7968   -0.8640   -3.5254 H       1  UNL1        0.0864
     53 H           6.5203   -1.3437   -4.7567 H       1  UNL1        0.0864
     54 H           3.6122   -0.9214   -1.1284 H       1  UNL1        0.0642
     55 H          -1.0189    2.7742   -3.7801 H       1  UNL1        0.0864
     56 H          -2.7043    4.3006   -2.3615 H       1  UNL1        0.0864
     57 H          -5.3212    0.4547   -1.4322 H       1  UNL1        0.0677
     58 H          -8.3999   -1.0199   -0.8960 H       1  UNL1        0.0660
     59 H          -7.2472    0.3390   -0.3895 H       1  UNL1        0.0660
     60 H          -7.0334   -0.5494   -1.9317 H       1  UNL1        0.0660
@<TRIPOS>BOND
     1     1     2    1
     2     2     3    1
     3     3     4   ar
     4     4     5   ar
     5     5     6    1
     6     6     7    2
     7     6     8   am
     8     8     9    1
     9     9    10    1
    10    10    11    1
    11    11    12    1
    12    12    13    1
    13    13    14    1
    14    14    15    1
    15    15    16   ar
    16    16    17   ar
    17    17    18   ar
    18    18    19   ar
    19    19    20    1
    20    20    21   ar
    21    21    22   ar
    22    22    23   ar
    23    23    24   ar
    24    19    25   ar
    25     5    26   ar
    26    26    27    1
    27    27    28   ar
    28    28    29   ar
    29    29    30   ar
    30    30    31   ar
    31    26    32   ar
    32    32    33   ar
    33    33    34    1
    34    34    35    1
    35    33     3   ar
    36    13     8    1
    37    25    15   ar
    38    31    27   ar
    39    24    20   ar
    40     1    36    1
    41     1    37    1
    42     1    38    1
    43     4    39    1
    44     9    40    1
    45     9    41    1
    46    10    42    1
    47    10    43    1
    48    12    44    1
    49    12    45    1
    50    13    46    1
    51    14    47    1
    52    14    48    1
    53    16    49    1
    54    17    50    1
    55    18    51    1
    56    22    52    1
    57    23    53    1
    58    25    54    1
    59    29    55    1
    60    30    56    1
    61    32    57    1
    62    35    58    1
    63    35    59    1
    64    35    60    1
