@<TRIPOS>MOLECULE
*****
 61 65 0 0 0
SMALL
GASTEIGER

@<TRIPOS>ATOM
      1 C           4.1079   -1.7697   -3.5704 C.3     1  UNL1        0.0050
      2 N           5.4482   -1.1979   -3.5447 N.3     1  UNL1       -0.3272
      3 C           3.4872   -1.6836   -2.2139 C.3     1  UNL1       -0.0361
      4 C           2.7873   -0.3529   -2.0608 C.3     1  UNL1       -0.0331
      5 C           1.5668   -0.3010   -2.9541 C.3     1  UNL1        0.0234
      6 C           1.8246   -0.9863   -4.2708 C.3     1  UNL1       -0.0331
      7 C           3.2910   -1.0897   -4.6182 C.3     1  UNL1       -0.0361
      8 N           0.4009   -0.8869   -2.3569 N.pl3   1  UNL1       -0.3105
      9 C          -0.1569   -0.3808   -1.1261 C.ar    1  UNL1        0.2191
     10 N          -1.2373   -0.9189   -0.5705 N.ar    1  UNL1       -0.1974
     11 C          -1.7991   -0.4866    0.5752 C.ar    1  UNL1        0.1519
     12 N          -2.9606   -1.0897    1.1368 N.pl3   1  UNL1       -0.3231
     13 C          -3.5353   -2.2244    0.4131 C.3     1  UNL1        0.0357
     14 C          -4.7243   -2.7896    1.0480 C.ar    1  UNL1       -0.0304
     15 C          -4.5089   -3.8159    1.9769 C.ar    1  UNL1       -0.0571
     16 C          -5.6204   -4.3631    2.5869 C.ar    1  UNL1       -0.0615
     17 C          -6.9270   -3.9772    2.3525 C.ar    1  UNL1       -0.0617
     18 C          -7.1266   -2.9551    1.4263 C.ar    1  UNL1       -0.0615
     19 C          -6.0251   -2.3926    0.8029 C.ar    1  UNL1       -0.0571
     20 C          -1.1792    0.5878    1.1775 C.ar    1  UNL1        0.1476
     21 N          -1.4365    1.2944    2.3155 N.ar    1  UNL1       -0.2306
     22 C          -0.5067    2.2693    2.4536 C.ar    1  UNL1        0.0986
     23 N           0.3565    2.2160    1.4270 N.ar    1  UNL1       -0.3118
     24 C           1.5201    3.0710    1.1576 C.3     1  UNL1        0.0373
     25 C           1.0109    4.4582    0.9039 C.3     1  UNL1       -0.0320
     26 C           1.2799    5.2724    2.1477 C.3     1  UNL1       -0.0511
     27 C           2.5818    4.6666    2.6269 C.3     1  UNL1       -0.0511
     28 C           2.4540    3.1922    2.3067 C.3     1  UNL1       -0.0320
     29 C          -0.0551    1.1937    0.6546 C.ar    1  UNL1        0.1675
     30 N           0.3904    0.6496   -0.4960 N.ar    1  UNL1       -0.1947
     31 H           4.2665   -2.8681   -3.7753 H       1  UNL1        0.0458
     32 H           5.9511   -1.5450   -2.6965 H       1  UNL1        0.1185
     33 H           5.4008   -0.1563   -3.4557 H       1  UNL1        0.1185
     34 H           2.7842   -2.5031   -2.0040 H       1  UNL1        0.0281
     35 H           4.3133   -1.7170   -1.4679 H       1  UNL1        0.0281
     36 H           3.4866    0.4618   -2.3547 H       1  UNL1        0.0284
     37 H           2.5414   -0.2389   -0.9898 H       1  UNL1        0.0284
     38 H           1.3220    0.7853   -3.1169 H       1  UNL1        0.0498
     39 H           1.3629   -1.9772   -4.3110 H       1  UNL1        0.0284
     40 H           1.3680   -0.3563   -5.0649 H       1  UNL1        0.0284
     41 H           3.3261   -1.7519   -5.5257 H       1  UNL1        0.0281
     42 H           3.7113   -0.1026   -4.9199 H       1  UNL1        0.0281
     43 H          -0.0975   -1.7162   -2.7970 H       1  UNL1        0.1492
     44 H          -3.3408   -0.7072    2.0144 H       1  UNL1        0.1479
     45 H          -3.7467   -1.8132   -0.6143 H       1  UNL1        0.0511
     46 H          -2.7436   -2.9894    0.3356 H       1  UNL1        0.0511
     47 H          -3.5400   -4.2125    2.2523 H       1  UNL1        0.0621
     48 H          -5.4918   -5.1613    3.3130 H       1  UNL1        0.0618
     49 H          -7.7597   -4.4438    2.8615 H       1  UNL1        0.0618
     50 H          -8.1294   -2.6155    1.2063 H       1  UNL1        0.0618
     51 H          -6.1732   -1.5854    0.0700 H       1  UNL1        0.0621
     52 H          -0.4571    2.9859    3.2624 H       1  UNL1        0.1029
     53 H           2.0302    2.7106    0.2189 H       1  UNL1        0.0529
     54 H          -0.0876    4.4963    0.7548 H       1  UNL1        0.0285
     55 H           1.4422    4.9030   -0.0200 H       1  UNL1        0.0285
     56 H           1.3812    6.3346    1.8361 H       1  UNL1        0.0266
     57 H           0.4576    5.1685    2.8822 H       1  UNL1        0.0266
     58 H           3.3823    5.1530    2.0394 H       1  UNL1        0.0266
     59 H           2.7319    4.8077    3.6991 H       1  UNL1        0.0266
     60 H           3.4524    2.8221    2.0055 H       1  UNL1        0.0285
     61 H           2.1471    2.6230    3.2049 H       1  UNL1        0.0285
@<TRIPOS>BOND
     1     1     2    1
     2     1     3    1
     3     3     4    1
     4     4     5    1
     5     5     6    1
     6     6     7    1
     7     5     8    1
     8     8     9    1
     9     9    10   ar
    10    10    11   ar
    11    11    12    1
    12    12    13    1
    13    13    14    1
    14    14    15   ar
    15    15    16   ar
    16    16    17   ar
    17    17    18   ar
    18    18    19   ar
    19    11    20   ar
    20    20    21   ar
    21    21    22   ar
    22    22    23   ar
    23    23    24    1
    24    24    25    1
    25    25    26    1
    26    26    27    1
    27    27    28    1
    28    23    29   ar
    29    29    30   ar
    30     7     1    1
    31    30     9   ar
    32    19    14   ar
    33    29    20   ar
    34    28    24    1
    35     1    31    1
    36     2    32    1
    37     2    33    1
    38     3    34    1
    39     3    35    1
    40     4    36    1
    41     4    37    1
    42     5    38    1
    43     6    39    1
    44     6    40    1
    45     7    41    1
    46     7    42    1
    47     8    43    1
    48    12    44    1
    49    13    45    1
    50    13    46    1
    51    15    47    1
    52    16    48    1
    53    17    49    1
    54    18    50    1
    55    19    51    1
    56    22    52    1
    57    24    53    1
    58    25    54    1
    59    25    55    1
    60    26    56    1
    61    26    57    1
    62    27    58    1
    63    27    59    1
    64    28    60    1
    65    28    61    1
