
     RDKit          3D

 61 65  0  0  0  0  0  0  0  0999 V2000
    4.1079   -1.7697   -3.5704 C   0  0  1  0  0  0  0  0  0  0  0  0
    5.4482   -1.1979   -3.5447 N   0  0  0  0  0  0  0  0  0  0  0  0
    3.4872   -1.6836   -2.2139 C   0  0  0  0  0  0  0  0  0  0  0  0
    2.7873   -0.3529   -2.0608 C   0  0  0  0  0  0  0  0  0  0  0  0
    1.5668   -0.3010   -2.9541 C   0  0  1  0  0  0  0  0  0  0  0  0
    1.8246   -0.9863   -4.2708 C   0  0  0  0  0  0  0  0  0  0  0  0
    3.2910   -1.0897   -4.6182 C   0  0  0  0  0  0  0  0  0  0  0  0
    0.4009   -0.8869   -2.3569 N   0  0  0  0  0  0  0  0  0  0  0  0
   -0.1569   -0.3808   -1.1261 C   0  0  0  0  0  0  0  0  0  0  0  0
   -1.2373   -0.9189   -0.5705 N   0  0  0  0  0  0  0  0  0  0  0  0
   -1.7991   -0.4866    0.5752 C   0  0  0  0  0  0  0  0  0  0  0  0
   -2.9606   -1.0897    1.1368 N   0  0  0  0  0  0  0  0  0  0  0  0
   -3.5353   -2.2244    0.4131 C   0  0  0  0  0  0  0  0  0  0  0  0
   -4.7243   -2.7896    1.0480 C   0  0  0  0  0  0  0  0  0  0  0  0
   -4.5089   -3.8159    1.9769 C   0  0  0  0  0  0  0  0  0  0  0  0
   -5.6204   -4.3631    2.5869 C   0  0  0  0  0  0  0  0  0  0  0  0
   -6.9270   -3.9772    2.3525 C   0  0  0  0  0  0  0  0  0  0  0  0
   -7.1266   -2.9551    1.4263 C   0  0  0  0  0  0  0  0  0  0  0  0
   -6.0251   -2.3926    0.8029 C   0  0  0  0  0  0  0  0  0  0  0  0
   -1.1792    0.5878    1.1775 C   0  0  0  0  0  0  0  0  0  0  0  0
   -1.4365    1.2944    2.3155 N   0  0  0  0  0  0  0  0  0  0  0  0
   -0.5067    2.2693    2.4536 C   0  0  0  0  0  0  0  0  0  0  0  0
    0.3565    2.2160    1.4270 N   0  0  0  0  0  0  0  0  0  0  0  0
    1.5201    3.0710    1.1576 C   0  0  0  0  0  0  0  0  0  0  0  0
    1.0109    4.4582    0.9039 C   0  0  0  0  0  0  0  0  0  0  0  0
    1.2799    5.2724    2.1477 C   0  0  0  0  0  0  0  0  0  0  0  0
    2.5818    4.6666    2.6269 C   0  0  0  0  0  0  0  0  0  0  0  0
    2.4540    3.1922    2.3067 C   0  0  0  0  0  0  0  0  0  0  0  0
   -0.0551    1.1937    0.6546 C   0  0  0  0  0  0  0  0  0  0  0  0
    0.3904    0.6496   -0.4960 N   0  0  0  0  0  0  0  0  0  0  0  0
    4.2665   -2.8681   -3.7753 H   0  0  0  0  0  0  0  0  0  0  0  0
    5.9511   -1.5450   -2.6965 H   0  0  0  0  0  0  0  0  0  0  0  0
    5.4008   -0.1563   -3.4557 H   0  0  0  0  0  0  0  0  0  0  0  0
    2.7842   -2.5031   -2.0040 H   0  0  0  0  0  0  0  0  0  0  0  0
    4.3133   -1.7170   -1.4679 H   0  0  0  0  0  0  0  0  0  0  0  0
    3.4866    0.4618   -2.3547 H   0  0  0  0  0  0  0  0  0  0  0  0
    2.5414   -0.2389   -0.9898 H   0  0  0  0  0  0  0  0  0  0  0  0
    1.3220    0.7853   -3.1169 H   0  0  0  0  0  0  0  0  0  0  0  0
    1.3629   -1.9772   -4.3110 H   0  0  0  0  0  0  0  0  0  0  0  0
    1.3680   -0.3563   -5.0649 H   0  0  0  0  0  0  0  0  0  0  0  0
    3.3261   -1.7519   -5.5257 H   0  0  0  0  0  0  0  0  0  0  0  0
    3.7113   -0.1026   -4.9199 H   0  0  0  0  0  0  0  0  0  0  0  0
   -0.0975   -1.7162   -2.7970 H   0  0  0  0  0  0  0  0  0  0  0  0
   -3.3408   -0.7072    2.0144 H   0  0  0  0  0  0  0  0  0  0  0  0
   -3.7467   -1.8132   -0.6143 H   0  0  0  0  0  0  0  0  0  0  0  0
   -2.7436   -2.9894    0.3356 H   0  0  0  0  0  0  0  0  0  0  0  0
   -3.5400   -4.2125    2.2523 H   0  0  0  0  0  0  0  0  0  0  0  0
   -5.4918   -5.1613    3.3130 H   0  0  0  0  0  0  0  0  0  0  0  0
   -7.7597   -4.4438    2.8615 H   0  0  0  0  0  0  0  0  0  0  0  0
   -8.1294   -2.6155    1.2063 H   0  0  0  0  0  0  0  0  0  0  0  0
   -6.1732   -1.5854    0.0700 H   0  0  0  0  0  0  0  0  0  0  0  0
   -0.4571    2.9859    3.2624 H   0  0  0  0  0  0  0  0  0  0  0  0
    2.0302    2.7106    0.2189 H   0  0  0  0  0  0  0  0  0  0  0  0
   -0.0876    4.4963    0.7548 H   0  0  0  0  0  0  0  0  0  0  0  0
    1.4422    4.9030   -0.0200 H   0  0  0  0  0  0  0  0  0  0  0  0
    1.3812    6.3346    1.8361 H   0  0  0  0  0  0  0  0  0  0  0  0
    0.4576    5.1685    2.8822 H   0  0  0  0  0  0  0  0  0  0  0  0
    3.3823    5.1530    2.0394 H   0  0  0  0  0  0  0  0  0  0  0  0
    2.7319    4.8077    3.6991 H   0  0  0  0  0  0  0  0  0  0  0  0
    3.4524    2.8221    2.0055 H   0  0  0  0  0  0  0  0  0  0  0  0
    2.1471    2.6230    3.2049 H   0  0  0  0  0  0  0  0  0  0  0  0
  1  2  1  0
  1  3  1  0
  3  4  1  0
  4  5  1  0
  5  6  1  0
  6  7  1  0
  5  8  1  0
  8  9  1  0
  9 10  2  0
 10 11  1  0
 11 12  1  0
 12 13  1  0
 13 14  1  0
 14 15  2  0
 15 16  1  0
 16 17  2  0
 17 18  1  0
 18 19  2  0
 11 20  2  0
 20 21  1  0
 21 22  2  0
 22 23  1  0
 23 24  1  0
 24 25  1  0
 25 26  1  0
 26 27  1  0
 27 28  1  0
 23 29  1  0
 29 30  2  0
  7  1  1  0
 30  9  1  0
 19 14  1  0
 29 20  1  0
 28 24  1  0
  1 31  1  6
  2 32  1  0
  2 33  1  0
  3 34  1  0
  3 35  1  0
  4 36  1  0
  4 37  1  0
  5 38  1  6
  6 39  1  0
  6 40  1  0
  7 41  1  0
  7 42  1  0
  8 43  1  0
 12 44  1  0
 13 45  1  0
 13 46  1  0
 15 47  1  0
 16 48  1  0
 17 49  1  0
 18 50  1  0
 19 51  1  0
 22 52  1  0
 24 53  1  0
 25 54  1  0
 25 55  1  0
 26 56  1  0
 26 57  1  0
 27 58  1  0
 27 59  1  0
 28 60  1  0
 28 61  1  0
M  END
$$$$
