@<TRIPOS>MOLECULE
*****
 50 52 0 0 0
SMALL
GASTEIGER

@<TRIPOS>ATOM
      1 C           1.3034   -1.2810   -3.5166 C.3     1  UNL1       -0.0226
      2 C           0.5241   -0.8922   -2.2926 C.ar    1  UNL1        0.0350
      3 N          -0.7707   -1.1695   -2.1503 N.ar    1  UNL1       -0.3569
      4 C          -1.2068   -0.6942   -0.9390 C.ar    1  UNL1        0.0449
      5 C          -2.5735   -0.8872   -0.4614 C.2     1  UNL1       -0.0253
      6 C          -3.3349    0.1443   -0.2374 C.2     1  UNL1        0.0479
      7 C          -3.1027    1.5587   -0.3774 C.2     1  UNL1        0.2490
      8 O          -2.0478    2.0921   -0.8036 O.2     1  UNL1       -0.2698
      9 N          -4.3016    2.2299    0.0573 N.am    1  UNL1       -0.2809
     10 C          -5.2377    1.2448    0.4498 C.ar    1  UNL1        0.0417
     11 C          -6.5288    1.3627    0.9386 C.ar    1  UNL1       -0.0372
     12 C          -7.2519    0.2378    1.2545 C.ar    1  UNL1       -0.0247
     13 C          -6.7349   -1.0297    1.1020 C.ar    1  UNL1        0.1241
     14 F          -7.4836   -2.1318    1.4269 F       1  UNL1       -0.2055
     15 C          -5.4602   -1.1388    0.6192 C.ar    1  UNL1       -0.0168
     16 C          -4.7112   -0.0158    0.2934 C.ar    1  UNL1        0.0111
     17 C          -0.1203   -0.1080   -0.3309 C.ar    1  UNL1       -0.0043
     18 C          -0.1124    0.4981    1.0007 C.3     1  UNL1       -0.0359
     19 C           0.9717   -0.2268   -1.1749 C.ar    1  UNL1        0.0574
     20 N           2.2986    0.2329   -0.9616 N.am    1  UNL1       -0.2825
     21 C           3.3283   -0.5208   -0.3456 C.2     1  UNL1        0.2343
     22 O           3.0147   -1.6805    0.0303 O.2     1  UNL1       -0.2738
     23 C           4.6909   -0.0690   -0.1184 C.3     1  UNL1        0.0851
     24 C           4.8541    1.1853    0.6546 C.3     1  UNL1       -0.0279
     25 C           5.6207    0.7904    1.8840 C.3     1  UNL1       -0.0386
     26 C           6.4089   -0.4165    1.3986 C.3     1  UNL1       -0.0034
     27 N           5.4701   -1.1036    0.5326 N.3     1  UNL1       -0.3056
     28 CL          0.6873    0.0000    0.0000 Cl      2  UNL2       -0.1454
     29 H           0.7460   -1.0098   -4.4478 H       1  UNL1        0.0292
     30 H           1.3635   -2.3932   -3.5124 H       1  UNL1        0.0292
     31 H           2.2890   -0.8187   -3.5516 H       1  UNL1        0.0292
     32 H          -1.3801   -1.6689   -2.8387 H       1  UNL1        0.1656
     33 H          -2.9111   -1.9224   -0.3068 H       1  UNL1        0.0646
     34 H          -4.4188    3.2740    0.0652 H       1  UNL1        0.1552
     35 H          -6.9357    2.3367    1.0594 H       1  UNL1        0.0637
     36 H          -8.2631    0.3028    1.6383 H       1  UNL1        0.0647
     37 H          -5.0538   -2.1357    0.4993 H       1  UNL1        0.0653
     38 H           0.6784   -0.0430    1.5988 H       1  UNL1        0.0279
     39 H          -1.0817    0.3062    1.5004 H       1  UNL1        0.0279
     40 H           0.1383    1.5759    0.9994 H       1  UNL1        0.0279
     41 H           2.5409    1.1881   -1.2760 H       1  UNL1        0.1549
     42 H           5.1636    0.0416   -1.1406 H       1  UNL1        0.0556
     43 H           5.4939    1.8891    0.0827 H       1  UNL1        0.0285
     44 H           3.9198    1.7252    0.8779 H       1  UNL1        0.0285
     45 H           4.9392    0.4951    2.6976 H       1  UNL1        0.0278
     46 H           6.3572    1.5573    2.2096 H       1  UNL1        0.0278
     47 H           6.7656   -1.0532    2.2184 H       1  UNL1        0.0424
     48 H           7.2652   -0.0959    0.7776 H       1  UNL1        0.0424
     49 H           4.8773   -1.7628    1.0844 H       1  UNL1        0.1226
     50 H          -0.6873    0.0000    0.0000 H       1  UNL1        0.1454
@<TRIPOS>BOND
     1     1     2    1
     2     2     3   ar
     3     3     4   ar
     4     4     5    1
     5     5     6    2
     6     6     7    1
     7     7     8    2
     8     7     9   am
     9     9    10    1
    10    10    11   ar
    11    11    12   ar
    12    12    13   ar
    13    13    14    1
    14    13    15   ar
    15    15    16   ar
    16     4    17   ar
    17    17    18    1
    18    17    19   ar
    19    19    20    1
    20    20    21   am
    21    21    22    2
    22    21    23    1
    23    23    24    1
    24    24    25    1
    25    25    26    1
    26    26    27    1
    27    19     2   ar
    28    27    23    1
    29    16     6    1
    30    16    10   ar
    31     1    29    1
    32     1    30    1
    33     1    31    1
    34     3    32    1
    35     5    33    1
    36     9    34    1
    37    11    35    1
    38    12    36    1
    39    15    37    1
    40    18    38    1
    41    18    39    1
    42    18    40    1
    43    20    41    1
    44    23    42    1
    45    24    43    1
    46    24    44    1
    47    25    45    1
    48    25    46    1
    49    26    47    1
    50    26    48    1
    51    27    49    1
    52    28    50    1
