
     RDKit          3D

 50 52  0  0  0  0  0  0  0  0999 V2000
    1.3034   -1.2810   -3.5166 C   0  0  0  0  0  0  0  0  0  0  0  0
    0.5241   -0.8922   -2.2926 C   0  0  0  0  0  0  0  0  0  0  0  0
   -0.7707   -1.1695   -2.1503 N   0  0  0  0  0  0  0  0  0  0  0  0
   -1.2068   -0.6942   -0.9390 C   0  0  0  0  0  0  0  0  0  0  0  0
   -2.5735   -0.8872   -0.4614 C   0  0  0  0  0  0  0  0  0  0  0  0
   -3.3349    0.1443   -0.2374 C   0  0  0  0  0  0  0  0  0  0  0  0
   -3.1027    1.5587   -0.3774 C   0  0  0  0  0  0  0  0  0  0  0  0
   -2.0478    2.0921   -0.8036 O   0  0  0  0  0  0  0  0  0  0  0  0
   -4.3016    2.2299    0.0573 N   0  0  0  0  0  0  0  0  0  0  0  0
   -5.2377    1.2448    0.4498 C   0  0  0  0  0  0  0  0  0  0  0  0
   -6.5288    1.3627    0.9386 C   0  0  0  0  0  0  0  0  0  0  0  0
   -7.2519    0.2378    1.2545 C   0  0  0  0  0  0  0  0  0  0  0  0
   -6.7349   -1.0297    1.1020 C   0  0  0  0  0  0  0  0  0  0  0  0
   -7.4836   -2.1318    1.4269 F   0  0  0  0  0  0  0  0  0  0  0  0
   -5.4602   -1.1388    0.6192 C   0  0  0  0  0  0  0  0  0  0  0  0
   -4.7112   -0.0158    0.2934 C   0  0  0  0  0  0  0  0  0  0  0  0
   -0.1203   -0.1080   -0.3309 C   0  0  0  0  0  0  0  0  0  0  0  0
   -0.1124    0.4981    1.0007 C   0  0  0  0  0  0  0  0  0  0  0  0
    0.9717   -0.2268   -1.1749 C   0  0  0  0  0  0  0  0  0  0  0  0
    2.2986    0.2329   -0.9616 N   0  0  0  0  0  0  0  0  0  0  0  0
    3.3283   -0.5208   -0.3456 C   0  0  0  0  0  0  0  0  0  0  0  0
    3.0147   -1.6805    0.0303 O   0  0  0  0  0  0  0  0  0  0  0  0
    4.6909   -0.0690   -0.1184 C   0  0  1  0  0  0  0  0  0  0  0  0
    4.8541    1.1853    0.6546 C   0  0  0  0  0  0  0  0  0  0  0  0
    5.6207    0.7904    1.8840 C   0  0  0  0  0  0  0  0  0  0  0  0
    6.4089   -0.4165    1.3986 C   0  0  0  0  0  0  0  0  0  0  0  0
    5.4701   -1.1036    0.5326 N   0  0  0  0  0  0  0  0  0  0  0  0
    0.6873    0.0000    0.0000 Cl  0  0  0  0  0  0  0  0  0  0  0  0
    0.7460   -1.0098   -4.4478 H   0  0  0  0  0  0  0  0  0  0  0  0
    1.3635   -2.3932   -3.5124 H   0  0  0  0  0  0  0  0  0  0  0  0
    2.2890   -0.8187   -3.5516 H   0  0  0  0  0  0  0  0  0  0  0  0
   -1.3801   -1.6689   -2.8387 H   0  0  0  0  0  0  0  0  0  0  0  0
   -2.9111   -1.9224   -0.3068 H   0  0  0  0  0  0  0  0  0  0  0  0
   -4.4188    3.2740    0.0652 H   0  0  0  0  0  0  0  0  0  0  0  0
   -6.9357    2.3367    1.0594 H   0  0  0  0  0  0  0  0  0  0  0  0
   -8.2631    0.3028    1.6383 H   0  0  0  0  0  0  0  0  0  0  0  0
   -5.0538   -2.1357    0.4993 H   0  0  0  0  0  0  0  0  0  0  0  0
    0.6784   -0.0430    1.5988 H   0  0  0  0  0  0  0  0  0  0  0  0
   -1.0817    0.3062    1.5004 H   0  0  0  0  0  0  0  0  0  0  0  0
    0.1383    1.5759    0.9994 H   0  0  0  0  0  0  0  0  0  0  0  0
    2.5409    1.1881   -1.2760 H   0  0  0  0  0  0  0  0  0  0  0  0
    5.1636    0.0416   -1.1406 H   0  0  0  0  0  0  0  0  0  0  0  0
    5.4939    1.8891    0.0827 H   0  0  0  0  0  0  0  0  0  0  0  0
    3.9198    1.7252    0.8779 H   0  0  0  0  0  0  0  0  0  0  0  0
    4.9392    0.4951    2.6976 H   0  0  0  0  0  0  0  0  0  0  0  0
    6.3572    1.5573    2.2096 H   0  0  0  0  0  0  0  0  0  0  0  0
    6.7656   -1.0532    2.2184 H   0  0  0  0  0  0  0  0  0  0  0  0
    7.2652   -0.0959    0.7776 H   0  0  0  0  0  0  0  0  0  0  0  0
    4.8773   -1.7628    1.0844 H   0  0  0  0  0  0  0  0  0  0  0  0
   -0.6873    0.0000    0.0000 H   0  0  0  0  0  0  0  0  0  0  0  0
  1  2  1  0
  2  3  1  0
  3  4  1  0
  4  5  1  0
  5  6  2  0
  6  7  1  0
  7  8  2  0
  7  9  1  0
  9 10  1  0
 10 11  2  0
 11 12  1  0
 12 13  2  0
 13 14  1  0
 13 15  1  0
 15 16  2  0
  4 17  2  0
 17 18  1  0
 17 19  1  0
 19 20  1  0
 20 21  1  0
 21 22  2  0
 21 23  1  0
 23 24  1  0
 24 25  1  0
 25 26  1  0
 26 27  1  0
 19  2  2  0
 27 23  1  0
 16  6  1  0
 16 10  1  0
  1 29  1  0
  1 30  1  0
  1 31  1  0
  3 32  1  0
  5 33  1  0
  9 34  1  0
 11 35  1  0
 12 36  1  0
 15 37  1  0
 18 38  1  0
 18 39  1  0
 18 40  1  0
 20 41  1  0
 23 42  1  6
 24 43  1  0
 24 44  1  0
 25 45  1  0
 25 46  1  0
 26 47  1  0
 26 48  1  0
 27 49  1  0
 28 50  1  0
M  END
$$$$
