@<TRIPOS>MOLECULE
*****
 41 42 0 0 0
SMALL
GASTEIGER

@<TRIPOS>ATOM
      1 C          -1.7569   -3.7041   -1.3033 C.3     1  UNL1        0.0790
      2 O          -1.5572   -2.4311   -0.7499 O.3     1  UNL1       -0.4915
      3 C          -0.3434   -1.7669   -0.7119 C.ar    1  UNL1        0.1615
      4 C           0.8130   -2.3042   -1.2258 C.ar    1  UNL1       -0.0157
      5 C           1.9740   -1.5633   -1.1399 C.ar    1  UNL1       -0.0491
      6 C           1.9713   -0.3154   -0.5526 C.ar    1  UNL1        0.0028
      7 C           0.7642    0.1827   -0.0457 C.ar    1  UNL1       -0.0073
      8 C          -0.4450   -0.5343   -0.1095 C.ar    1  UNL1        0.1629
      9 O          -1.4366    0.1914    0.4558 O.3     1  UNL1       -0.4851
     10 C          -2.7750   -0.0660    0.6371 C.3     1  UNL1        0.1004
     11 C          -3.1637    0.0402    2.1247 C.3     1  UNL1       -0.0158
     12 C          -4.6751    0.1251    2.0036 C.3     1  UNL1       -0.0496
     13 C          -4.8382    1.1951    0.9515 C.3     1  UNL1       -0.0496
     14 C          -3.6745    1.0009    0.0082 C.3     1  UNL1       -0.0158
     15 C           3.2170    0.4359   -0.4809 C.2     1  UNL1        0.0850
     16 C           4.4700   -0.1376   -1.0336 C.3     1  UNL1       -0.0186
     17 N           3.2320    1.5920    0.0593 N.2     1  UNL1       -0.0774
     18 O           4.4393    2.2783    0.1091 O.3     1  UNL1       -0.2990
     19 C           4.4616    3.6578    0.0936 C.2     1  UNL1        0.4234
     20 N           5.7755    4.1922    0.1504 N.am    1  UNL1       -0.2932
     21 O           3.4948    4.4599    0.0374 O.2     1  UNL1       -0.2244
     22 H          -1.1710   -4.5041   -0.8354 H       1  UNL1        0.0660
     23 H          -2.8397   -3.9096   -1.3215 H       1  UNL1        0.0660
     24 H          -1.4017   -3.6544   -2.3713 H       1  UNL1        0.0660
     25 H           0.7076   -3.2918   -1.6663 H       1  UNL1        0.0655
     26 H           2.8460   -2.0422   -1.5620 H       1  UNL1        0.0625
     27 H           0.9020    1.1779    0.3911 H       1  UNL1        0.0662
     28 H          -3.0495   -1.0483    0.2375 H       1  UNL1        0.0733
     29 H          -2.8212   -0.8361    2.7001 H       1  UNL1        0.0301
     30 H          -2.7704    1.0045    2.4742 H       1  UNL1        0.0301
     31 H          -5.0510   -0.8367    1.6436 H       1  UNL1        0.0266
     32 H          -5.1429    0.4813    2.9416 H       1  UNL1        0.0266
     33 H          -5.8242    1.0855    0.4394 H       1  UNL1        0.0266
     34 H          -4.8553    2.2122    1.3938 H       1  UNL1        0.0266
     35 H          -3.0576    1.8997   -0.1291 H       1  UNL1        0.0301
     36 H          -4.1123    0.6355   -0.9577 H       1  UNL1        0.0301
     37 H           4.4847   -1.2095   -0.6773 H       1  UNL1        0.0294
     38 H           4.4676   -0.1702   -2.1222 H       1  UNL1        0.0294
     39 H           5.3710    0.3059   -0.5774 H       1  UNL1        0.0294
     40 H           6.6269    3.7247    0.5258 H       1  UNL1        0.1483
     41 H           6.7438    4.5779    0.1956 H       1  UNL1        0.1483
@<TRIPOS>BOND
     1     1     2    1
     2     2     3    1
     3     3     4   ar
     4     4     5   ar
     5     5     6   ar
     6     6     7   ar
     7     7     8   ar
     8     8     9    1
     9     9    10    1
    10    10    11    1
    11    11    12    1
    12    12    13    1
    13    13    14    1
    14     6    15    1
    15    15    16    1
    16    15    17    2
    17    17    18    1
    18    18    19    1
    19    19    20   am
    20    19    21    2
    21     8     3   ar
    22    14    10    1
    23     1    22    1
    24     1    23    1
    25     1    24    1
    26     4    25    1
    27     5    26    1
    28     7    27    1
    29    10    28    1
    30    11    29    1
    31    11    30    1
    32    12    31    1
    33    12    32    1
    34    13    33    1
    35    13    34    1
    36    14    35    1
    37    14    36    1
    38    16    37    1
    39    16    38    1
    40    16    39    1
    41    20    40    1
    42    20    41    1
