
     RDKit          3D

 43 46  0  0  0  0  0  0  0  0999 V2000
   -5.2670    0.8617    2.2610 N   0  0  0  0  0  0  0  0  0  0  0  0
   -4.7138    0.5299    0.9721 C   0  0  0  0  0  0  0  0  0  0  0  0
   -3.5053    0.1211    0.9635 N   0  0  0  0  0  0  0  0  0  0  0  0
   -2.7533   -0.2645   -0.2067 C   0  0  1  0  0  0  0  0  0  0  0  0
   -1.5500    0.6033   -0.2937 C   0  0  0  0  0  0  0  0  0  0  0  0
   -0.2774    0.0919   -0.2557 C   0  0  0  0  0  0  0  0  0  0  0  0
    0.8429    0.9299   -0.3326 C   0  0  0  0  0  0  0  0  0  0  0  0
    2.1645    0.4073   -0.2940 N   0  0  0  0  0  0  0  0  0  0  0  0
    2.8760    0.2320    0.9382 C   0  0  0  0  0  0  0  0  0  0  0  0
    2.2580    0.5689    1.9792 O   0  0  0  0  0  0  0  0  0  0  0  0
    4.2313   -0.3045    0.9708 C   0  0  0  0  0  0  0  0  0  0  0  0
    4.9819   -0.6945   -0.0734 N   0  0  0  0  0  0  0  0  0  0  0  0
    6.1504   -1.1182    0.3980 N   0  0  0  0  0  0  0  0  0  0  0  0
    7.2224   -1.6196   -0.4567 C   0  0  0  0  0  0  0  0  0  0  0  0
    7.3663   -2.9740   -0.2357 F   0  0  0  0  0  0  0  0  0  0  0  0
    6.9830   -1.3282   -1.7693 F   0  0  0  0  0  0  0  0  0  0  0  0
    6.1636   -1.0070    1.7296 C   0  0  0  0  0  0  0  0  0  0  0  0
    4.9424   -0.4855    2.1362 C   0  0  0  0  0  0  0  0  0  0  0  0
    4.4728   -0.1542    3.7861 Cl  0  0  0  0  0  0  0  0  0  0  0  0
    0.6220    2.2885   -0.4477 C   0  0  0  0  0  0  0  0  0  0  0  0
   -0.6500    2.8419   -0.4891 C   0  0  0  0  0  0  0  0  0  0  0  0
   -0.8470    4.1880   -0.6031 F   0  0  0  0  0  0  0  0  0  0  0  0
   -1.7216    1.9576   -0.4086 C   0  0  0  0  0  0  0  0  0  0  0  0
   -2.9810    2.4457   -0.4445 F   0  0  0  0  0  0  0  0  0  0  0  0
   -2.3753   -1.7341    0.0158 C   0  0  0  0  0  0  0  0  0  0  0  0
   -1.6613   -2.2608   -1.0180 F   0  0  0  0  0  0  0  0  0  0  0  0
   -1.6551   -1.8611    1.1975 F   0  0  0  0  0  0  0  0  0  0  0  0
   -3.5013   -0.1428   -1.4946 C   0  0  1  0  0  0  0  0  0  0  0  0
   -4.6429   -1.0213   -1.8263 C   0  0  0  0  0  0  0  0  0  0  0  0
   -4.8341    0.4536   -1.4522 C   0  0  1  0  0  0  0  0  0  0  0  0
   -5.4199    0.6375   -0.1891 O   0  0  0  0  0  0  0  0  0  0  0  0
   -5.8856    0.1942    2.7787 H   0  0  0  0  0  0  0  0  0  0  0  0
   -5.0560    1.7726    2.6920 H   0  0  0  0  0  0  0  0  0  0  0  0
   -0.0485   -0.9513   -0.1635 H   0  0  0  0  0  0  0  0  0  0  0  0
    2.6255    0.1471   -1.1726 H   0  0  0  0  0  0  0  0  0  0  0  0
    8.1503   -1.0600   -0.1409 H   0  0  0  0  0  0  0  0  0  0  0  0
    6.9749   -1.2734    2.3737 H   0  0  0  0  0  0  0  0  0  0  0  0
    1.4871    2.9448   -0.5078 H   0  0  0  0  0  0  0  0  0  0  0  0
   -3.3263   -2.2812    0.1847 H   0  0  0  0  0  0  0  0  0  0  0  0
   -2.8584    0.1683   -2.3652 H   0  0  0  0  0  0  0  0  0  0  0  0
   -4.8242   -1.2257   -2.8941 H   0  0  0  0  0  0  0  0  0  0  0  0
   -5.0269   -1.7789   -1.1378 H   0  0  0  0  0  0  0  0  0  0  0  0
   -5.1333    1.1550   -2.2621 H   0  0  0  0  0  0  0  0  0  0  0  0
  1  2  1  0
  2  3  2  0
  3  4  1  0
  4  5  1  0
  5  6  2  0
  6  7  1  0
  7  8  1  0
  8  9  1  0
  9 10  2  0
  9 11  1  0
 11 12  2  0
 12 13  1  0
 13 14  1  0
 14 15  1  0
 14 16  1  0
 13 17  1  0
 17 18  2  0
 18 19  1  0
  7 20  2  0
 20 21  1  0
 21 22  1  0
 21 23  2  0
 23 24  1  0
  4 25  1  1
 25 26  1  0
 25 27  1  0
  4 28  1  0
 28 29  1  0
 29 30  1  0
 30 31  1  0
 31  2  1  0
 23  5  1  0
 30 28  1  0
 18 11  1  0
  1 32  1  0
  1 33  1  0
  6 34  1  0
  8 35  1  0
 14 36  1  0
 17 37  1  0
 20 38  1  0
 25 39  1  0
 28 40  1  6
 29 41  1  0
 29 42  1  0
 30 43  1  6
M  END
$$$$
