@<TRIPOS>MOLECULE
*****
 43 46 0 0 0
SMALL
GASTEIGER

@<TRIPOS>ATOM
      1 N          -5.2670    0.8617    2.2610 N.pl3   1  UNL1       -0.3134
      2 C          -4.7138    0.5299    0.9721 C.2     1  UNL1        0.2764
      3 N          -3.5053    0.1211    0.9635 N.2     1  UNL1       -0.2194
      4 C          -2.7533   -0.2645   -0.2067 C.3     1  UNL1        0.1604
      5 C          -1.5500    0.6033   -0.2937 C.ar    1  UNL1        0.0256
      6 C          -0.2774    0.0919   -0.2557 C.ar    1  UNL1       -0.0319
      7 C           0.8429    0.9299   -0.3326 C.ar    1  UNL1        0.0369
      8 N           2.1645    0.4073   -0.2940 N.am    1  UNL1       -0.2801
      9 C           2.8760    0.2320    0.9382 C.2     1  UNL1        0.2698
     10 O           2.2580    0.5689    1.9792 O.2     1  UNL1       -0.2681
     11 C           4.2313   -0.3045    0.9708 C.ar    1  UNL1        0.1657
     12 N           4.9819   -0.6945   -0.0734 N.ar    1  UNL1       -0.1604
     13 N           6.1504   -1.1182    0.3980 N.ar    1  UNL1       -0.2091
     14 C           7.2224   -1.6196   -0.4567 C.3     1  UNL1        0.3342
     15 F           7.3663   -2.9740   -0.2357 F       1  UNL1       -0.1832
     16 F           6.9830   -1.3282   -1.7693 F       1  UNL1       -0.1832
     17 C           6.1636   -1.0070    1.7296 C.ar    1  UNL1        0.0503
     18 C           4.9424   -0.4855    2.1362 C.ar    1  UNL1        0.0909
     19 CL          4.4728   -0.1542    3.7861 Cl      1  UNL1       -0.0795
     20 C           0.6220    2.2885   -0.4477 C.ar    1  UNL1       -0.0023
     21 C          -0.6500    2.8419   -0.4891 C.ar    1  UNL1        0.1605
     22 F          -0.8470    4.1880   -0.6031 F       1  UNL1       -0.2024
     23 C          -1.7216    1.9576   -0.4086 C.ar    1  UNL1        0.1642
     24 F          -2.9810    2.4457   -0.4445 F       1  UNL1       -0.2021
     25 C          -2.3753   -1.7341    0.0158 C.3     1  UNL1        0.2686
     26 F          -1.6613   -2.2608   -1.0180 F       1  UNL1       -0.2062
     27 F          -1.6551   -1.8611    1.1975 F       1  UNL1       -0.2062
     28 C          -3.5013   -0.1428   -1.4946 C.3     1  UNL1        0.0344
     29 C          -4.6429   -1.0213   -1.8263 C.3     1  UNL1       -0.0064
     30 C          -4.8341    0.4536   -1.4522 C.3     1  UNL1        0.1091
     31 O          -5.4199    0.6375   -0.1891 O.2     1  UNL1       -0.4622
     32 H          -5.8856    0.1942    2.7787 H       1  UNL1        0.1466
     33 H          -5.0560    1.7726    2.6920 H       1  UNL1        0.1466
     34 H          -0.0485   -0.9513   -0.1635 H       1  UNL1        0.0640
     35 H           2.6255    0.1471   -1.1726 H       1  UNL1        0.1552
     36 H           8.1503   -1.0600   -0.1409 H       1  UNL1        0.1295
     37 H           6.9749   -1.2734    2.3737 H       1  UNL1        0.0843
     38 H           1.4871    2.9448   -0.5078 H       1  UNL1        0.0666
     39 H          -3.3263   -2.2812    0.1847 H       1  UNL1        0.1047
     40 H          -2.8584    0.1683   -2.3652 H       1  UNL1        0.0366
     41 H          -4.8242   -1.2257   -2.8941 H       1  UNL1        0.0306
     42 H          -5.0269   -1.7789   -1.1378 H       1  UNL1        0.0306
     43 H          -5.1333    1.1550   -2.2621 H       1  UNL1        0.0737
@<TRIPOS>BOND
     1     1     2    1
     2     2     3    2
     3     3     4    1
     4     4     5    1
     5     5     6   ar
     6     6     7   ar
     7     7     8    1
     8     8     9   am
     9     9    10    2
    10     9    11    1
    11    11    12   ar
    12    12    13   ar
    13    13    14    1
    14    14    15    1
    15    14    16    1
    16    13    17   ar
    17    17    18   ar
    18    18    19    1
    19     7    20   ar
    20    20    21   ar
    21    21    22    1
    22    21    23   ar
    23    23    24    1
    24     4    25    1
    25    25    26    1
    26    25    27    1
    27     4    28    1
    28    28    29    1
    29    29    30    1
    30    30    31    1
    31    31     2    1
    32    23     5   ar
    33    30    28    1
    34    18    11   ar
    35     1    32    1
    36     1    33    1
    37     6    34    1
    38     8    35    1
    39    14    36    1
    40    17    37    1
    41    20    38    1
    42    25    39    1
    43    28    40    1
    44    29    41    1
    45    29    42    1
    46    30    43    1
