@<TRIPOS>MOLECULE
*****
 59 62 0 0 0
SMALL
GASTEIGER

@<TRIPOS>ATOM
      1 C           5.6122    0.2440    4.7384 C.3     1  UNL1       -0.0127
      2 N           4.2784    0.1323    4.1564 N.3     1  UNL1       -0.3047
      3 C           4.0299   -1.2461    3.8732 C.3     1  UNL1       -0.0127
      4 C           4.2746    0.9706    2.9767 C.3     1  UNL1        0.0170
      5 C           2.9785    0.9724    2.2545 C.2     1  UNL1       -0.0652
      6 C           2.9257    0.5704    1.0118 C.2     1  UNL1       -0.0023
      7 C           1.7137    0.5267    0.1992 C.2     1  UNL1        0.2409
      8 O           1.6854    0.1361   -0.9962 O.2     1  UNL1       -0.2705
      9 N           0.4257    0.9204    0.6644 N.am    1  UNL1       -0.2790
     10 C          -0.5281    0.7491   -0.3896 C.ar    1  UNL1        0.0766
     11 C          -0.7719    1.8063   -1.2709 C.ar    1  UNL1        0.1442
     12 O          -0.0656    2.9670   -1.0636 O.3     1  UNL1       -0.4845
     13 C          -0.1274    4.1454   -1.7992 C.3     1  UNL1        0.1255
     14 C          -0.5453    5.3464   -0.9865 C.3     1  UNL1        0.0099
     15 C           0.7701    5.8968   -0.5362 C.3     1  UNL1        0.0512
     16 O           1.5873    5.7340   -1.6269 O.3     1  UNL1       -0.3760
     17 C           1.2185    4.5958   -2.3142 C.3     1  UNL1        0.0846
     18 C          -1.6956    1.6096   -2.2757 C.ar    1  UNL1        0.0081
     19 C          -2.3518    0.4055   -2.3982 C.ar    1  UNL1        0.0796
     20 N          -3.2408    0.2855   -3.4014 N.ar    1  UNL1       -0.2352
     21 C          -3.9334   -0.8651   -3.5955 C.ar    1  UNL1        0.1187
     22 N          -3.6843   -1.8526   -2.7470 N.ar    1  UNL1       -0.2200
     23 C          -2.8313   -1.8533   -1.7202 C.ar    1  UNL1        0.1339
     24 N          -2.5845   -2.9207   -0.8294 N.pl3   1  UNL1       -0.2988
     25 C          -3.2052   -4.1919   -0.8168 C.ar    1  UNL1        0.0339
     26 C          -4.2864   -4.5217   -1.5969 C.ar    1  UNL1       -0.0194
     27 C          -4.9204   -5.7388   -1.6295 C.ar    1  UNL1        0.0778
     28 CL         -6.2945   -6.1056   -2.6420 Cl      1  UNL1       -0.0805
     29 C          -4.4477   -6.7539   -0.8074 C.ar    1  UNL1        0.1417
     30 F          -5.0024   -7.9797   -0.7688 F       1  UNL1       -0.2040
     31 C          -3.3742   -6.4876   -0.0075 C.ar    1  UNL1       -0.0232
     32 C          -2.7906   -5.2516   -0.0254 C.ar    1  UNL1       -0.0377
     33 C          -2.1486   -0.6710   -1.5552 C.ar    1  UNL1        0.0424
     34 C          -1.2202   -0.4304   -0.5691 C.ar    1  UNL1       -0.0244
     35 H           6.3937   -0.0622    3.9945 H       1  UNL1        0.0391
     36 H           5.7283   -0.4057    5.6087 H       1  UNL1        0.0391
     37 H           5.8419    1.2923    5.0489 H       1  UNL1        0.0391
     38 H           4.2719   -1.5291    2.8284 H       1  UNL1        0.0391
     39 H           4.6698   -1.8701    4.5305 H       1  UNL1        0.0391
     40 H           2.9813   -1.5132    4.1552 H       1  UNL1        0.0391
     41 H           5.0931    0.6500    2.3004 H       1  UNL1        0.0470
     42 H           4.5664    1.9917    3.3286 H       1  UNL1        0.0470
     43 H           2.0715    1.3013    2.7372 H       1  UNL1        0.0586
     44 H           3.8311    0.2397    0.5227 H       1  UNL1        0.0667
     45 H           0.3364    1.2682    1.6658 H       1  UNL1        0.1552
     46 H          -0.8207    4.1238   -2.6727 H       1  UNL1        0.0757
     47 H          -1.0105    6.1289   -1.6408 H       1  UNL1        0.0324
     48 H          -1.2666    5.1179   -0.2010 H       1  UNL1        0.0324
     49 H           1.1485    5.4663    0.4117 H       1  UNL1        0.0561
     50 H           0.6152    6.9877   -0.3190 H       1  UNL1        0.0561
     51 H           1.9855    3.7807   -2.1659 H       1  UNL1        0.0597
     52 H           1.2335    4.8207   -3.3985 H       1  UNL1        0.0597
     53 H          -1.8933    2.4188   -2.9634 H       1  UNL1        0.0676
     54 H          -4.6586   -1.0928   -4.3416 H       1  UNL1        0.1048
     55 H          -1.8922   -2.8583   -0.0708 H       1  UNL1        0.1536
     56 H          -4.7505   -3.8293   -2.2726 H       1  UNL1        0.0652
     57 H          -2.9913   -7.2640    0.6389 H       1  UNL1        0.0647
     58 H          -1.9415   -5.1087    0.6357 H       1  UNL1        0.0637
     59 H          -0.9927   -1.1986    0.1342 H       1  UNL1        0.0645
@<TRIPOS>BOND
     1     1     2    1
     2     2     3    1
     3     2     4    1
     4     4     5    1
     5     5     6    2
     6     6     7    1
     7     7     8    2
     8     7     9   am
     9     9    10    1
    10    10    11   ar
    11    11    12    1
    12    12    13    1
    13    13    14    1
    14    14    15    1
    15    15    16    1
    16    16    17    1
    17    11    18   ar
    18    18    19   ar
    19    19    20   ar
    20    20    21   ar
    21    21    22   ar
    22    22    23   ar
    23    23    24    1
    24    24    25    1
    25    25    26   ar
    26    26    27   ar
    27    27    28    1
    28    27    29   ar
    29    29    30    1
    30    29    31   ar
    31    31    32   ar
    32    23    33   ar
    33    33    34   ar
    34    34    10   ar
    35    17    13    1
    36    33    19   ar
    37    32    25   ar
    38     1    35    1
    39     1    36    1
    40     1    37    1
    41     3    38    1
    42     3    39    1
    43     3    40    1
    44     4    41    1
    45     4    42    1
    46     5    43    1
    47     6    44    1
    48     9    45    1
    49    13    46    1
    50    14    47    1
    51    14    48    1
    52    15    49    1
    53    15    50    1
    54    17    51    1
    55    17    52    1
    56    18    53    1
    57    21    54    1
    58    24    55    1
    59    26    56    1
    60    31    57    1
    61    32    58    1
    62    34    59    1
