@<TRIPOS>MOLECULE
*****
 54 56 0 0 0
SMALL
GASTEIGER

@<TRIPOS>ATOM
      1 C           5.5716   -2.2415    0.2324 C.3     1  UNL1        0.0790
      2 O           4.9865   -0.9895    0.4182 O.3     1  UNL1       -0.4913
      3 C           3.6174   -0.7734    0.2613 C.ar    1  UNL1        0.1655
      4 C           2.7484   -1.7781   -0.0874 C.ar    1  UNL1       -0.0123
      5 C           1.4094   -1.5303   -0.2357 C.ar    1  UNL1       -0.0324
      6 C           0.9693   -0.2080   -0.0175 C.ar    1  UNL1        0.0312
      7 C           1.7945    0.8114    0.3342 C.ar    1  UNL1        0.1731
      8 O           1.2883    2.0799    0.5578 O.3     1  UNL1       -0.4907
      9 C           0.9004    2.4848    1.8778 C.3     1  UNL1        0.0790
     10 C           3.1404    0.5217    0.4726 C.ar    1  UNL1        0.2041
     11 O           4.0165    1.5181    0.8213 O.3     1  UNL1       -0.4885
     12 C           4.6997    2.3481   -0.0797 C.3     1  UNL1        0.0791
     13 C          -0.3860    0.2828   -0.2131 C.ar    1  UNL1       -0.0088
     14 C          -0.1633    1.5308   -0.7436 C.ar    1  UNL1       -0.0500
     15 C          -1.1023    2.5330   -0.7214 C.ar    1  UNL1       -0.0155
     16 C          -2.4348    2.5166   -0.3402 C.ar    1  UNL1        0.1665
     17 O          -3.1393    3.7031   -0.4470 O.3     1  UNL1       -0.4913
     18 C          -2.5934    4.9118   -0.9131 C.3     1  UNL1        0.0790
     19 C          -3.1661    1.4668    0.1374 C.ar    1  UNL1        0.2206
     20 O          -4.3460    1.6968    0.5401 O.2     1  UNL1       -0.2840
     21 C          -2.8114    0.1152    0.2615 C.ar    1  UNL1       -0.0057
     22 C          -1.5847   -0.4076    0.0472 C.ar    1  UNL1       -0.0157
     23 C          -1.7046   -1.9038    0.1044 C.3     1  UNL1        0.0493
     24 N          -3.0577   -2.2325   -0.2996 N.am    1  UNL1       -0.3087
     25 C          -3.9145   -3.0289    0.5298 C.2     1  UNL1        0.2104
     26 C          -5.2887   -3.3809    0.1531 C.3     1  UNL1        0.0122
     27 O          -3.4008   -3.4171    1.6293 O.2     1  UNL1       -0.2761
     28 C          -0.7943   -2.4963   -0.9873 C.3     1  UNL1       -0.0263
     29 C           0.6010   -2.7226   -0.5598 C.3     1  UNL1       -0.0249
     30 H           5.1279   -2.7184   -0.6733 H       1  UNL1        0.0660
     31 H           6.6584   -2.0926    0.0547 H       1  UNL1        0.0660
     32 H           5.4782   -2.9067    1.1166 H       1  UNL1        0.0660
     33 H           3.1083   -2.7794   -0.2499 H       1  UNL1        0.0658
     34 H           0.6165    3.5479    1.8918 H       1  UNL1        0.0660
     35 H           0.0002    1.8904    2.1285 H       1  UNL1        0.0660
     36 H           1.6847    2.2215    2.5923 H       1  UNL1        0.0660
     37 H           5.2842    3.0833    0.5330 H       1  UNL1        0.0660
     38 H           3.9268    2.9676   -0.6059 H       1  UNL1        0.0660
     39 H           5.3657    1.8128   -0.7685 H       1  UNL1        0.0660
     40 H           0.7854    1.6375   -1.2027 H       1  UNL1        0.0625
     41 H          -0.7588    3.4821   -1.0498 H       1  UNL1        0.0655
     42 H          -2.3686    4.7862   -1.9914 H       1  UNL1        0.0660
     43 H          -1.6638    5.1887   -0.3505 H       1  UNL1        0.0660
     44 H          -3.3428    5.7103   -0.7400 H       1  UNL1        0.0660
     45 H          -3.5667   -0.5910    0.5497 H       1  UNL1        0.0660
     46 H          -1.4183   -2.3086    1.0743 H       1  UNL1        0.0548
     47 H          -3.3958   -1.8782   -1.2053 H       1  UNL1        0.1493
     48 H          -5.9326   -2.4714    0.0271 H       1  UNL1        0.0322
     49 H          -5.6991   -4.0484    0.9125 H       1  UNL1        0.0322
     50 H          -5.3426   -3.9130   -0.8216 H       1  UNL1        0.0322
     51 H          -1.2338   -3.4780   -1.2568 H       1  UNL1        0.0289
     52 H          -0.8831   -1.8435   -1.8875 H       1  UNL1        0.0289
     53 H           0.5486   -3.3037    0.4180 H       1  UNL1        0.0314
     54 H           1.1658   -3.4057   -1.2284 H       1  UNL1        0.0314
@<TRIPOS>BOND
     1     1     2    1
     2     2     3    1
     3     3     4   ar
     4     4     5   ar
     5     5     6   ar
     6     6     7   ar
     7     7     8    1
     8     8     9    1
     9     7    10   ar
    10    10    11    1
    11    11    12    1
    12     6    13    1
    13    13    14   ar
    14    14    15   ar
    15    15    16   ar
    16    16    17    1
    17    17    18    1
    18    16    19   ar
    19    19    20    2
    20    19    21   ar
    21    21    22   ar
    22    22    23    1
    23    23    24    1
    24    24    25   am
    25    25    26    1
    26    25    27    2
    27    23    28    1
    28    28    29    1
    29    10     3   ar
    30    22    13   ar
    31    29     5    1
    32     1    30    1
    33     1    31    1
    34     1    32    1
    35     4    33    1
    36     9    34    1
    37     9    35    1
    38     9    36    1
    39    12    37    1
    40    12    38    1
    41    12    39    1
    42    14    40    1
    43    15    41    1
    44    18    42    1
    45    18    43    1
    46    18    44    1
    47    21    45    1
    48    23    46    1
    49    24    47    1
    50    26    48    1
    51    26    49    1
    52    26    50    1
    53    28    51    1
    54    28    52    1
    55    29    53    1
    56    29    54    1
