
     RDKit          3D

 54 56  0  0  0  0  0  0  0  0999 V2000
    5.5716   -2.2415    0.2324 C   0  0  0  0  0  0  0  0  0  0  0  0
    4.9865   -0.9895    0.4182 O   0  0  0  0  0  0  0  0  0  0  0  0
    3.6174   -0.7734    0.2613 C   0  0  0  0  0  0  0  0  0  0  0  0
    2.7484   -1.7781   -0.0874 C   0  0  0  0  0  0  0  0  0  0  0  0
    1.4094   -1.5303   -0.2357 C   0  0  0  0  0  0  0  0  0  0  0  0
    0.9693   -0.2080   -0.0175 C   0  0  0  0  0  0  0  0  0  0  0  0
    1.7945    0.8114    0.3342 C   0  0  0  0  0  0  0  0  0  0  0  0
    1.2883    2.0799    0.5578 O   0  0  0  0  0  0  0  0  0  0  0  0
    0.9004    2.4848    1.8778 C   0  0  0  0  0  0  0  0  0  0  0  0
    3.1404    0.5217    0.4726 C   0  0  0  0  0  0  0  0  0  0  0  0
    4.0165    1.5181    0.8213 O   0  0  0  0  0  0  0  0  0  0  0  0
    4.6997    2.3481   -0.0797 C   0  0  0  0  0  0  0  0  0  0  0  0
   -0.3860    0.2828   -0.2131 C   0  0  0  0  0  0  0  0  0  0  0  0
   -0.1633    1.5308   -0.7436 C   0  0  0  0  0  0  0  0  0  0  0  0
   -1.1023    2.5330   -0.7214 C   0  0  0  0  0  0  0  0  0  0  0  0
   -2.4348    2.5166   -0.3402 C   0  0  0  0  0  0  0  0  0  0  0  0
   -3.1393    3.7031   -0.4470 O   0  0  0  0  0  0  0  0  0  0  0  0
   -2.5934    4.9118   -0.9131 C   0  0  0  0  0  0  0  0  0  0  0  0
   -3.1661    1.4668    0.1374 C   0  0  0  0  0  0  0  0  0  0  0  0
   -4.3460    1.6968    0.5401 O   0  0  0  0  0  0  0  0  0  0  0  0
   -2.8114    0.1152    0.2615 C   0  0  0  0  0  0  0  0  0  0  0  0
   -1.5847   -0.4076    0.0472 C   0  0  0  0  0  0  0  0  0  0  0  0
   -1.7046   -1.9038    0.1044 C   0  0  1  0  0  0  0  0  0  0  0  0
   -3.0577   -2.2325   -0.2996 N   0  0  0  0  0  0  0  0  0  0  0  0
   -3.9145   -3.0289    0.5298 C   0  0  0  0  0  0  0  0  0  0  0  0
   -5.2887   -3.3809    0.1531 C   0  0  0  0  0  0  0  0  0  0  0  0
   -3.4008   -3.4171    1.6293 O   0  0  0  0  0  0  0  0  0  0  0  0
   -0.7943   -2.4963   -0.9873 C   0  0  0  0  0  0  0  0  0  0  0  0
    0.6010   -2.7226   -0.5598 C   0  0  0  0  0  0  0  0  0  0  0  0
    5.1279   -2.7184   -0.6733 H   0  0  0  0  0  0  0  0  0  0  0  0
    6.6584   -2.0926    0.0547 H   0  0  0  0  0  0  0  0  0  0  0  0
    5.4782   -2.9067    1.1166 H   0  0  0  0  0  0  0  0  0  0  0  0
    3.1083   -2.7794   -0.2499 H   0  0  0  0  0  0  0  0  0  0  0  0
    0.6165    3.5479    1.8918 H   0  0  0  0  0  0  0  0  0  0  0  0
    0.0002    1.8904    2.1285 H   0  0  0  0  0  0  0  0  0  0  0  0
    1.6847    2.2215    2.5923 H   0  0  0  0  0  0  0  0  0  0  0  0
    5.2842    3.0833    0.5330 H   0  0  0  0  0  0  0  0  0  0  0  0
    3.9268    2.9676   -0.6059 H   0  0  0  0  0  0  0  0  0  0  0  0
    5.3657    1.8128   -0.7685 H   0  0  0  0  0  0  0  0  0  0  0  0
    0.7854    1.6375   -1.2027 H   0  0  0  0  0  0  0  0  0  0  0  0
   -0.7588    3.4821   -1.0498 H   0  0  0  0  0  0  0  0  0  0  0  0
   -2.3686    4.7862   -1.9914 H   0  0  0  0  0  0  0  0  0  0  0  0
   -1.6638    5.1887   -0.3505 H   0  0  0  0  0  0  0  0  0  0  0  0
   -3.3428    5.7103   -0.7400 H   0  0  0  0  0  0  0  0  0  0  0  0
   -3.5667   -0.5910    0.5497 H   0  0  0  0  0  0  0  0  0  0  0  0
   -1.4183   -2.3086    1.0743 H   0  0  0  0  0  0  0  0  0  0  0  0
   -3.3958   -1.8782   -1.2053 H   0  0  0  0  0  0  0  0  0  0  0  0
   -5.9326   -2.4714    0.0271 H   0  0  0  0  0  0  0  0  0  0  0  0
   -5.6991   -4.0484    0.9125 H   0  0  0  0  0  0  0  0  0  0  0  0
   -5.3426   -3.9130   -0.8216 H   0  0  0  0  0  0  0  0  0  0  0  0
   -1.2338   -3.4780   -1.2568 H   0  0  0  0  0  0  0  0  0  0  0  0
   -0.8831   -1.8435   -1.8875 H   0  0  0  0  0  0  0  0  0  0  0  0
    0.5486   -3.3037    0.4180 H   0  0  0  0  0  0  0  0  0  0  0  0
    1.1658   -3.4057   -1.2284 H   0  0  0  0  0  0  0  0  0  0  0  0
  1  2  1  0
  2  3  1  0
  3  4  2  0
  4  5  1  0
  5  6  2  0
  6  7  1  0
  7  8  1  0
  8  9  1  0
  7 10  2  0
 10 11  1  0
 11 12  1  0
  6 13  1  0
 13 14  2  0
 14 15  1  0
 15 16  2  0
 16 17  1  0
 17 18  1  0
 16 19  1  0
 19 20  2  0
 19 21  1  0
 21 22  2  0
 22 23  1  0
 23 24  1  0
 24 25  1  0
 25 26  1  0
 25 27  2  0
 23 28  1  0
 28 29  1  0
 10  3  1  0
 22 13  1  0
 29  5  1  0
  1 30  1  0
  1 31  1  0
  1 32  1  0
  4 33  1  0
  9 34  1  0
  9 35  1  0
  9 36  1  0
 12 37  1  0
 12 38  1  0
 12 39  1  0
 14 40  1  0
 15 41  1  0
 18 42  1  0
 18 43  1  0
 18 44  1  0
 21 45  1  0
 23 46  1  1
 24 47  1  0
 26 48  1  0
 26 49  1  0
 26 50  1  0
 28 51  1  0
 28 52  1  0
 29 53  1  0
 29 54  1  0
M  END
$$$$
