
     RDKit          3D

 54 58  0  0  0  0  0  0  0  0999 V2000
   -6.4588   -0.4967   -1.0757 C   0  0  0  0  0  0  0  0  0  0  0  0
   -5.5138   -1.3257   -0.2873 C   0  0  0  0  0  0  0  0  0  0  0  0
   -5.7738   -2.5160    0.3017 N   0  0  0  0  0  0  0  0  0  0  0  0
   -4.7067   -2.9820    0.9248 N   0  0  0  0  0  0  0  0  0  0  0  0
   -4.6014   -4.2429    1.6766 C   0  0  0  0  0  0  0  0  0  0  0  0
   -3.7376   -2.0701    0.7321 C   0  0  0  0  0  0  0  0  0  0  0  0
   -4.1993   -1.0161   -0.0218 C   0  0  0  0  0  0  0  0  0  0  0  0
   -3.5067    0.1854   -0.4719 C   0  0  0  0  0  0  0  0  0  0  0  0
   -3.9636    1.1963   -1.1997 N   0  0  0  0  0  0  0  0  0  0  0  0
   -3.0112    2.1421   -1.4172 C   0  0  0  0  0  0  0  0  0  0  0  0
   -3.0588    3.3093   -2.0855 N   0  0  0  0  0  0  0  0  0  0  0  0
   -1.9562    4.0475   -2.1250 C   0  0  0  0  0  0  0  0  0  0  0  0
   -0.7687    3.6769   -1.5167 C   0  0  0  0  0  0  0  0  0  0  0  0
    0.6290    4.7077   -1.6824 Cl  0  0  0  0  0  0  0  0  0  0  0  0
   -0.7116    2.4890   -0.8325 C   0  0  0  0  0  0  0  0  0  0  0  0
    0.4081    2.0535   -0.1398 N   0  0  0  0  0  0  0  0  0  0  0  0
    1.5863    2.8310    0.1033 C   0  0  0  0  0  0  0  0  0  0  0  0
    2.6580    2.2896   -0.8422 C   0  0  0  0  0  0  0  0  0  0  0  0
    2.9504    0.9446   -0.3993 N   0  0  0  0  0  0  0  0  0  0  0  0
    4.3463    0.8388   -0.1254 C   0  0  0  0  0  0  0  0  0  0  0  0
    4.7192   -0.5193    0.3309 C   0  0  0  0  0  0  0  0  0  0  0  0
    4.7308   -0.9166    1.6455 C   0  0  0  0  0  0  0  0  0  0  0  0
    5.0875   -2.2072    2.0406 C   0  0  0  0  0  0  0  0  0  0  0  0
    5.4345   -3.0825    1.0325 C   0  0  0  0  0  0  0  0  0  0  0  0
    5.8954   -4.7168    1.4217 Cl  0  0  0  0  0  0  0  0  0  0  0  0
    5.4325   -2.7124   -0.2991 C   0  0  0  0  0  0  0  0  0  0  0  0
    5.0738   -1.4293   -0.6432 C   0  0  0  0  0  0  0  0  0  0  0  0
    2.1465    0.5108    0.6794 C   0  0  0  0  0  0  0  0  0  0  0  0
    0.6314    0.6992    0.4035 C   0  0  0  0  0  0  0  0  0  0  0  0
   -1.8815    1.6732   -0.7722 C   0  0  0  0  0  0  0  0  0  0  0  0
   -2.1984    0.5092   -0.2165 N   0  0  0  0  0  0  0  0  0  0  0  0
   -6.0640   -0.4577   -2.1120 H   0  0  0  0  0  0  0  0  0  0  0  0
   -7.4507   -0.9936   -1.1097 H   0  0  0  0  0  0  0  0  0  0  0  0
   -6.5890    0.5177   -0.6542 H   0  0  0  0  0  0  0  0  0  0  0  0
   -4.5757   -3.9854    2.7711 H   0  0  0  0  0  0  0  0  0  0  0  0
   -5.5365   -4.7978    1.5203 H   0  0  0  0  0  0  0  0  0  0  0  0
   -3.7150   -4.8191    1.3869 H   0  0  0  0  0  0  0  0  0  0  0  0
   -2.7146   -2.1576    1.1254 H   0  0  0  0  0  0  0  0  0  0  0  0
   -1.9387    5.0104   -2.6564 H   0  0  0  0  0  0  0  0  0  0  0  0
    1.9509    2.6461    1.1823 H   0  0  0  0  0  0  0  0  0  0  0  0
    1.5745    3.8876    0.0372 H   0  0  0  0  0  0  0  0  0  0  0  0
    3.5258    2.9740   -0.7544 H   0  0  0  0  0  0  0  0  0  0  0  0
    2.2124    2.2779   -1.8642 H   0  0  0  0  0  0  0  0  0  0  0  0
    4.9075    1.0838   -1.0742 H   0  0  0  0  0  0  0  0  0  0  0  0
    4.6920    1.6271    0.5986 H   0  0  0  0  0  0  0  0  0  0  0  0
    4.4570   -0.2154    2.4089 H   0  0  0  0  0  0  0  0  0  0  0  0
    5.0930   -2.5085    3.0782 H   0  0  0  0  0  0  0  0  0  0  0  0
    5.7027   -3.3934   -1.0868 H   0  0  0  0  0  0  0  0  0  0  0  0
    5.0754   -1.1524   -1.6771 H   0  0  0  0  0  0  0  0  0  0  0  0
    2.2607   -0.6271    0.7038 H   0  0  0  0  0  0  0  0  0  0  0  0
    2.4247    0.8302    1.6882 H   0  0  0  0  0  0  0  0  0  0  0  0
    0.1929    0.5537    1.3838 H   0  0  0  0  0  0  0  0  0  0  0  0
    0.4506   -0.0588   -0.3773 H   0  0  0  0  0  0  0  0  0  0  0  0
   -1.6178   -0.1121    0.3422 H   0  0  0  0  0  0  0  0  0  0  0  0
  1  2  1  0
  2  3  2  0
  3  4  1  0
  4  5  1  0
  4  6  1  0
  6  7  2  0
  7  8  1  0
  8  9  2  0
  9 10  1  0
 10 11  2  0
 11 12  1  0
 12 13  2  0
 13 14  1  0
 13 15  1  0
 15 16  1  0
 16 17  1  0
 17 18  1  0
 18 19  1  0
 19 20  1  0
 20 21  1  0
 21 22  2  0
 22 23  1  0
 23 24  2  0
 24 25  1  0
 24 26  1  0
 26 27  2  0
 19 28  1  0
 28 29  1  0
 15 30  2  0
 30 31  1  0
  7  2  1  0
 31  8  1  0
 30 10  1  0
 29 16  1  0
 27 21  1  0
  1 32  1  0
  1 33  1  0
  1 34  1  0
  5 35  1  0
  5 36  1  0
  5 37  1  0
  6 38  1  0
 12 39  1  0
 17 40  1  0
 17 41  1  0
 18 42  1  0
 18 43  1  0
 20 44  1  0
 20 45  1  0
 22 46  1  0
 23 47  1  0
 26 48  1  0
 27 49  1  0
 28 50  1  0
 28 51  1  0
 29 52  1  0
 29 53  1  0
 31 54  1  0
M  END
$$$$
