@<TRIPOS>MOLECULE
*****
 54 58 0 0 0
SMALL
GASTEIGER

@<TRIPOS>ATOM
      1 C          -6.4588   -0.4967   -1.0757 C.3     1  UNL1       -0.0199
      2 C          -5.5138   -1.3257   -0.2873 C.ar    1  UNL1        0.0706
      3 N          -5.7738   -2.5160    0.3017 N.ar    1  UNL1       -0.1760
      4 N          -4.7067   -2.9820    0.9248 N.ar    1  UNL1       -0.2735
      5 C          -4.6014   -4.2429    1.6766 C.3     1  UNL1        0.0302
      6 C          -3.7376   -2.0701    0.7321 C.ar    1  UNL1        0.0361
      7 C          -4.1993   -1.0161   -0.0218 C.ar    1  UNL1        0.0576
      8 C          -3.5067    0.1854   -0.4719 C.ar    1  UNL1        0.1443
      9 N          -3.9636    1.1963   -1.1997 N.ar    1  UNL1       -0.2082
     10 C          -3.0112    2.1421   -1.4172 C.ar    1  UNL1        0.1802
     11 N          -3.0588    3.3093   -2.0855 N.ar    1  UNL1       -0.2329
     12 C          -1.9562    4.0475   -2.1250 C.ar    1  UNL1        0.0502
     13 C          -0.7687    3.6769   -1.5167 C.ar    1  UNL1        0.0821
     14 CL          0.6290    4.7077   -1.6824 Cl      1  UNL1       -0.0800
     15 C          -0.7116    2.4890   -0.8325 C.ar    1  UNL1        0.0772
     16 N           0.4081    2.0535   -0.1398 N.pl3   1  UNL1       -0.3246
     17 C           1.5863    2.8310    0.1033 C.3     1  UNL1        0.0251
     18 C           2.6580    2.2896   -0.8422 C.3     1  UNL1        0.0150
     19 N           2.9504    0.9446   -0.3993 N.3     1  UNL1       -0.2952
     20 C           4.3463    0.8388   -0.1254 C.3     1  UNL1        0.0241
     21 C           4.7192   -0.5193    0.3309 C.ar    1  UNL1       -0.0333
     22 C           4.7308   -0.9166    1.6455 C.ar    1  UNL1       -0.0560
     23 C           5.0875   -2.2072    2.0406 C.ar    1  UNL1       -0.0431
     24 C           5.4345   -3.0825    1.0325 C.ar    1  UNL1        0.0410
     25 CL          5.8954   -4.7168    1.4217 Cl      1  UNL1       -0.0835
     26 C           5.4325   -2.7124   -0.2991 C.ar    1  UNL1       -0.0431
     27 C           5.0738   -1.4293   -0.6432 C.ar    1  UNL1       -0.0560
     28 C           2.1465    0.5108    0.6794 C.3     1  UNL1        0.0150
     29 C           0.6314    0.6992    0.4035 C.3     1  UNL1        0.0251
     30 C          -1.8815    1.6732   -0.7722 C.ar    1  UNL1        0.1083
     31 N          -2.1984    0.5092   -0.2165 N.ar    1  UNL1       -0.3350
     32 H          -6.0640   -0.4577   -2.1120 H       1  UNL1        0.0293
     33 H          -7.4507   -0.9936   -1.1097 H       1  UNL1        0.0293
     34 H          -6.5890    0.5177   -0.6542 H       1  UNL1        0.0293
     35 H          -4.5757   -3.9854    2.7711 H       1  UNL1        0.0473
     36 H          -5.5365   -4.7978    1.5203 H       1  UNL1        0.0473
     37 H          -3.7150   -4.8191    1.3869 H       1  UNL1        0.0473
     38 H          -2.7146   -2.1576    1.1254 H       1  UNL1        0.0833
     39 H          -1.9387    5.0104   -2.6564 H       1  UNL1        0.0846
     40 H           1.9509    2.6461    1.1823 H       1  UNL1        0.0476
     41 H           1.5745    3.8876    0.0372 H       1  UNL1        0.0476
     42 H           3.5258    2.9740   -0.7544 H       1  UNL1        0.0442
     43 H           2.2124    2.2779   -1.8642 H       1  UNL1        0.0442
     44 H           4.9075    1.0838   -1.0742 H       1  UNL1        0.0476
     45 H           4.6920    1.6271    0.5986 H       1  UNL1        0.0476
     46 H           4.4570   -0.2154    2.4089 H       1  UNL1        0.0621
     47 H           5.0930   -2.5085    3.0782 H       1  UNL1        0.0632
     48 H           5.7027   -3.3934   -1.0868 H       1  UNL1        0.0632
     49 H           5.0754   -1.1524   -1.6771 H       1  UNL1        0.0621
     50 H           2.2607   -0.6271    0.7038 H       1  UNL1        0.0442
     51 H           2.4247    0.8302    1.6882 H       1  UNL1        0.0442
     52 H           0.1929    0.5537    1.3838 H       1  UNL1        0.0476
     53 H           0.4506   -0.0588   -0.3773 H       1  UNL1        0.0476
     54 H          -1.6178   -0.1121    0.3422 H       1  UNL1        0.1675
@<TRIPOS>BOND
     1     1     2    1
     2     2     3   ar
     3     3     4   ar
     4     4     5    1
     5     4     6   ar
     6     6     7   ar
     7     7     8    1
     8     8     9   ar
     9     9    10   ar
    10    10    11   ar
    11    11    12   ar
    12    12    13   ar
    13    13    14    1
    14    13    15   ar
    15    15    16    1
    16    16    17    1
    17    17    18    1
    18    18    19    1
    19    19    20    1
    20    20    21    1
    21    21    22   ar
    22    22    23   ar
    23    23    24   ar
    24    24    25    1
    25    24    26   ar
    26    26    27   ar
    27    19    28    1
    28    28    29    1
    29    15    30   ar
    30    30    31   ar
    31     7     2   ar
    32    31     8   ar
    33    30    10   ar
    34    29    16    1
    35    27    21   ar
    36     1    32    1
    37     1    33    1
    38     1    34    1
    39     5    35    1
    40     5    36    1
    41     5    37    1
    42     6    38    1
    43    12    39    1
    44    17    40    1
    45    17    41    1
    46    18    42    1
    47    18    43    1
    48    20    44    1
    49    20    45    1
    50    22    46    1
    51    23    47    1
    52    26    48    1
    53    27    49    1
    54    28    50    1
    55    28    51    1
    56    29    52    1
    57    29    53    1
    58    31    54    1
