
     RDKit          3D

 51 54  0  0  0  0  0  0  0  0999 V2000
   -6.0036   -2.5353   -0.5894 N   0  0  0  0  0  0  0  0  0  0  0  0
   -6.4960   -1.5522   -0.2218 C   0  0  0  0  0  0  0  0  0  0  0  0
   -7.1175   -0.3588    0.2198 C   0  0  0  0  0  0  0  0  0  0  0  0
   -8.4810   -0.1241   -0.0143 C   0  0  0  0  0  0  0  0  0  0  0  0
   -9.0599    1.0106    0.4092 N   0  0  0  0  0  0  0  0  0  0  0  0
   -8.3588    1.9452    1.0628 C   0  0  0  0  0  0  0  0  0  0  0  0
   -7.0198    1.7223    1.2966 C   0  0  0  0  0  0  0  0  0  0  0  0
   -6.3658    0.5816    0.8895 C   0  0  0  0  0  0  0  0  0  0  0  0
   -4.9259    0.3732    1.1573 C   0  0  0  0  0  0  0  0  0  0  0  0
   -4.2201    0.5971   -0.0379 O   0  0  0  0  0  0  0  0  0  0  0  0
   -2.8339    0.4839   -0.1261 C   0  0  0  0  0  0  0  0  0  0  0  0
   -2.0657    0.1401    0.9701 C   0  0  0  0  0  0  0  0  0  0  0  0
   -0.7302    0.0390    0.8534 N   0  0  0  0  0  0  0  0  0  0  0  0
   -0.0759    0.2578   -0.2965 C   0  0  0  0  0  0  0  0  0  0  0  0
    1.3606    0.1387   -0.3645 N   0  0  0  0  0  0  0  0  0  0  0  0
    2.1392   -0.2000    0.7991 C   0  0  0  0  0  0  0  0  0  0  0  0
    3.2635   -1.1369    0.4887 C   0  0  0  0  0  0  0  0  0  0  0  0
    2.6976   -2.4363   -0.0367 C   0  0  0  0  0  0  0  0  0  0  0  0
    2.2948   -2.0577   -1.4440 C   0  0  0  0  0  0  0  0  0  0  0  0
    3.0676   -0.7774   -1.7662 C   0  0  0  0  0  0  0  0  0  0  0  0
    2.0541    0.3625   -1.6149 C   0  0  0  0  0  0  0  0  0  0  0  0
    4.0029   -0.6528   -0.6623 N   0  0  0  0  0  0  0  0  0  0  0  0
    5.3412   -0.1749   -0.6582 C   0  0  0  0  0  0  0  0  0  0  0  0
    5.8837    0.2177   -1.7072 O   0  0  0  0  0  0  0  0  0  0  0  0
    6.0400   -0.1457    0.5071 O   0  0  0  0  0  0  0  0  0  0  0  0
    7.3253    0.2719    0.7744 C   0  0  0  0  0  0  0  0  0  0  0  0
    7.5029    1.7313    0.5018 C   0  0  0  0  0  0  0  0  0  0  0  0
    8.8182    2.0703    0.8019 F   0  0  0  0  0  0  0  0  0  0  0  0
    7.2005    2.1231   -0.7752 F   0  0  0  0  0  0  0  0  0  0  0  0
    6.6252    2.4113    1.3496 F   0  0  0  0  0  0  0  0  0  0  0  0
   -0.8005    0.5929   -1.3752 N   0  0  0  0  0  0  0  0  0  0  0  0
   -2.1560    0.7069   -1.3023 C   0  0  0  0  0  0  0  0  0  0  0  0
   -9.0575   -0.8873   -0.5494 H   0  0  0  0  0  0  0  0  0  0  0  0
   -8.7899    2.8774    1.4224 H   0  0  0  0  0  0  0  0  0  0  0  0
   -6.4125    2.4706    1.8310 H   0  0  0  0  0  0  0  0  0  0  0  0
   -4.5610    1.0189    1.9931 H   0  0  0  0  0  0  0  0  0  0  0  0
   -4.7813   -0.6758    1.5408 H   0  0  0  0  0  0  0  0  0  0  0  0
   -2.5774   -0.0445    1.9214 H   0  0  0  0  0  0  0  0  0  0  0  0
    1.4700   -0.5863    1.6070 H   0  0  0  0  0  0  0  0  0  0  0  0
    2.5474    0.7701    1.1950 H   0  0  0  0  0  0  0  0  0  0  0  0
    3.9347   -1.3037    1.3604 H   0  0  0  0  0  0  0  0  0  0  0  0
    1.8376   -2.8028    0.5533 H   0  0  0  0  0  0  0  0  0  0  0  0
    3.5284   -3.1938   -0.0648 H   0  0  0  0  0  0  0  0  0  0  0  0
    1.1982   -1.8889   -1.4283 H   0  0  0  0  0  0  0  0  0  0  0  0
    2.5417   -2.8541   -2.1759 H   0  0  0  0  0  0  0  0  0  0  0  0
    3.5381   -0.7952   -2.7486 H   0  0  0  0  0  0  0  0  0  0  0  0
    2.5642    1.3412   -1.6696 H   0  0  0  0  0  0  0  0  0  0  0  0
    1.2847    0.2846   -2.4252 H   0  0  0  0  0  0  0  0  0  0  0  0
    8.0622   -0.3603    0.2246 H   0  0  0  0  0  0  0  0  0  0  0  0
    7.5209    0.0264    1.8597 H   0  0  0  0  0  0  0  0  0  0  0  0
   -2.7550    0.9783   -2.1721 H   0  0  0  0  0  0  0  0  0  0  0  0
  1  2  3  0
  2  3  1  0
  3  4  2  0
  4  5  1  0
  5  6  2  0
  6  7  1  0
  7  8  2  0
  8  9  1  0
  9 10  1  0
 10 11  1  0
 11 12  2  0
 12 13  1  0
 13 14  2  0
 14 15  1  0
 15 16  1  0
 16 17  1  0
 17 18  1  0
 18 19  1  0
 19 20  1  0
 20 21  1  0
 20 22  1  0
 22 23  1  0
 23 24  2  0
 23 25  1  0
 25 26  1  0
 26 27  1  0
 27 28  1  0
 27 29  1  0
 27 30  1  0
 14 31  1  0
 31 32  2  0
  8  3  1  0
 32 11  1  0
 21 15  1  0
 22 17  1  0
  4 33  1  0
  6 34  1  0
  7 35  1  0
  9 36  1  0
  9 37  1  0
 12 38  1  0
 16 39  1  0
 16 40  1  0
 17 41  1  0
 18 42  1  0
 18 43  1  0
 19 44  1  0
 19 45  1  0
 20 46  1  0
 21 47  1  0
 21 48  1  0
 26 49  1  0
 26 50  1  0
 32 51  1  0
M  END
$$$$
