@<TRIPOS>MOLECULE
*****
 51 54 0 0 0
SMALL
GASTEIGER

@<TRIPOS>ATOM
      1 N          -6.0036   -2.5353   -0.5894 N.1     1  UNL1       -0.1908
      2 C          -6.4960   -1.5522   -0.2218 C.1     1  UNL1        0.1011
      3 C          -7.1175   -0.3588    0.2198 C.ar    1  UNL1        0.0762
      4 C          -8.4810   -0.1241   -0.0143 C.ar    1  UNL1        0.0453
      5 N          -9.0599    1.0106    0.4092 N.ar    1  UNL1       -0.2620
      6 C          -8.3588    1.9452    1.0628 C.ar    1  UNL1        0.0280
      7 C          -7.0198    1.7223    1.2966 C.ar    1  UNL1       -0.0360
      8 C          -6.3658    0.5816    0.8895 C.ar    1  UNL1        0.0099
      9 C          -4.9259    0.3732    1.1573 C.3     1  UNL1        0.1161
     10 O          -4.2201    0.5971   -0.0379 O.3     1  UNL1       -0.4843
     11 C          -2.8339    0.4839   -0.1261 C.ar    1  UNL1        0.1571
     12 C          -2.0657    0.1401    0.9701 C.ar    1  UNL1        0.0743
     13 N          -0.7302    0.0390    0.8534 N.ar    1  UNL1       -0.2191
     14 C          -0.0759    0.2578   -0.2965 C.ar    1  UNL1        0.2181
     15 N           1.3606    0.1387   -0.3645 N.pl3   1  UNL1       -0.2961
     16 C           2.1392   -0.2000    0.7991 C.3     1  UNL1        0.0337
     17 C           3.2635   -1.1369    0.4887 C.3     1  UNL1        0.0453
     18 C           2.6976   -2.4363   -0.0367 C.3     1  UNL1       -0.0310
     19 C           2.2948   -2.0577   -1.4440 C.3     1  UNL1       -0.0310
     20 C           3.0676   -0.7774   -1.7662 C.3     1  UNL1        0.0453
     21 C           2.0541    0.3625   -1.6149 C.3     1  UNL1        0.0337
     22 N           4.0029   -0.6528   -0.6623 N.am    1  UNL1       -0.2584
     23 C           5.3412   -0.1749   -0.6582 C.2     1  UNL1        0.4037
     24 O           5.8837    0.2177   -1.7072 O.2     1  UNL1       -0.2262
     25 O           6.0400   -0.1457    0.5071 O.3     1  UNL1       -0.4412
     26 C           7.3253    0.2719    0.7744 C.3     1  UNL1        0.1886
     27 C           7.5029    1.7313    0.5018 C.3     1  UNL1        0.4237
     28 F           8.8182    2.0703    0.8019 F       1  UNL1       -0.1671
     29 F           7.2005    2.1231   -0.7752 F       1  UNL1       -0.1671
     30 F           6.6252    2.4113    1.3496 F       1  UNL1       -0.1671
     31 N          -0.8005    0.5929   -1.3752 N.ar    1  UNL1       -0.2191
     32 C          -2.1560    0.7069   -1.3023 C.ar    1  UNL1        0.0743
     33 H          -9.0575   -0.8873   -0.5494 H       1  UNL1        0.0843
     34 H          -8.7899    2.8774    1.4224 H       1  UNL1        0.0829
     35 H          -6.4125    2.4706    1.8310 H       1  UNL1        0.0637
     36 H          -4.5610    1.0189    1.9931 H       1  UNL1        0.0748
     37 H          -4.7813   -0.6758    1.5408 H       1  UNL1        0.0748
     38 H          -2.5774   -0.0445    1.9214 H       1  UNL1        0.0869
     39 H           1.4700   -0.5863    1.6070 H       1  UNL1        0.0483
     40 H           2.5474    0.7701    1.1950 H       1  UNL1        0.0483
     41 H           3.9347   -1.3037    1.3604 H       1  UNL1        0.0517
     42 H           1.8376   -2.8028    0.5533 H       1  UNL1        0.0284
     43 H           3.5284   -3.1938   -0.0648 H       1  UNL1        0.0284
     44 H           1.1982   -1.8889   -1.4283 H       1  UNL1        0.0284
     45 H           2.5417   -2.8541   -2.1759 H       1  UNL1        0.0284
     46 H           3.5381   -0.7952   -2.7486 H       1  UNL1        0.0517
     47 H           2.5642    1.3412   -1.6696 H       1  UNL1        0.0483
     48 H           1.2847    0.2846   -2.4252 H       1  UNL1        0.0483
     49 H           8.0622   -0.3603    0.2246 H       1  UNL1        0.0789
     50 H           7.5209    0.0264    1.8597 H       1  UNL1        0.0789
     51 H          -2.7550    0.9783   -2.1721 H       1  UNL1        0.0869
@<TRIPOS>BOND
     1     1     2    3
     2     2     3    1
     3     3     4   ar
     4     4     5   ar
     5     5     6   ar
     6     6     7   ar
     7     7     8   ar
     8     8     9    1
     9     9    10    1
    10    10    11    1
    11    11    12   ar
    12    12    13   ar
    13    13    14   ar
    14    14    15    1
    15    15    16    1
    16    16    17    1
    17    17    18    1
    18    18    19    1
    19    19    20    1
    20    20    21    1
    21    20    22    1
    22    22    23   am
    23    23    24    2
    24    23    25    1
    25    25    26    1
    26    26    27    1
    27    27    28    1
    28    27    29    1
    29    27    30    1
    30    14    31   ar
    31    31    32   ar
    32     8     3   ar
    33    32    11   ar
    34    21    15    1
    35    22    17    1
    36     4    33    1
    37     6    34    1
    38     7    35    1
    39     9    36    1
    40     9    37    1
    41    12    38    1
    42    16    39    1
    43    16    40    1
    44    17    41    1
    45    18    42    1
    46    18    43    1
    47    19    44    1
    48    19    45    1
    49    20    46    1
    50    21    47    1
    51    21    48    1
    52    26    49    1
    53    26    50    1
    54    32    51    1
