@<TRIPOS>MOLECULE
*****
 37 39 0 0 0
SMALL
GASTEIGER

@<TRIPOS>ATOM
      1 C          -0.8002   -0.0855    0.5793 C.3     1  UNL1        0.0795
      2 C           0.2417    0.6119   -0.3176 C.3     1  UNL1        0.0165
      3 C           1.4028   -0.2839    0.0611 C.2     1  UNL1        0.0702
      4 N           0.9028   -1.4132    0.3674 N.2     1  UNL1       -0.1808
      5 N          -0.5096   -1.4397    0.2512 N.am    1  UNL1       -0.1853
      6 C          -1.1356   -2.6673   -0.1189 C.2     1  UNL1        0.2322
      7 C          -0.4306   -3.9449   -0.3835 C.3     1  UNL1        0.0140
      8 O          -2.3499   -2.9351   -0.2951 O.2     1  UNL1       -0.2741
      9 C           2.8027    0.1228    0.0572 C.ar    1  UNL1        0.0161
     10 C           3.6483   -0.2712    1.0512 C.ar    1  UNL1        0.0499
     11 CL          3.0591   -1.2701    2.3421 Cl      1  UNL1       -0.0829
     12 C           4.9605    0.1652    0.9616 C.ar    1  UNL1       -0.0428
     13 C           5.4562    0.9609   -0.0547 C.ar    1  UNL1       -0.0603
     14 C           4.5535    1.3263   -1.0298 C.ar    1  UNL1       -0.0611
     15 C           3.2223    0.9115   -0.9826 C.ar    1  UNL1       -0.0514
     16 C          -2.1469    0.4015    0.3518 C.ar    1  UNL1       -0.0213
     17 C          -3.3395   -0.1268    0.7571 C.ar    1  UNL1       -0.0565
     18 C          -4.5774    0.4124    0.4746 C.ar    1  UNL1       -0.0580
     19 C          -4.6560    1.5698   -0.2688 C.ar    1  UNL1       -0.0202
     20 C          -3.4714    2.1396   -0.6999 C.ar    1  UNL1        0.1172
     21 O          -3.6158    3.3040   -1.4442 O.3     1  UNL1       -0.5068
     22 C          -2.2609    1.5779   -0.4018 C.ar    1  UNL1       -0.0152
     23 H          -0.4394    0.1820    1.6235 H       1  UNL1        0.0574
     24 H           0.0088    0.4824   -1.3915 H       1  UNL1        0.0351
     25 H           0.4098    1.6467   -0.0225 H       1  UNL1        0.0351
     26 H          -0.8065   -4.7778    0.2398 H       1  UNL1        0.0323
     27 H          -0.5857   -4.1938   -1.4712 H       1  UNL1        0.0323
     28 H           0.6691   -3.8453   -0.2524 H       1  UNL1        0.0323
     29 H           5.6522   -0.1378    1.7447 H       1  UNL1        0.0632
     30 H           6.4773    1.2837   -0.0983 H       1  UNL1        0.0618
     31 H           4.8913    1.9536   -1.8550 H       1  UNL1        0.0618
     32 H           2.5862    1.2473   -1.7916 H       1  UNL1        0.0624
     33 H          -3.2982   -1.0159    1.3417 H       1  UNL1        0.0621
     34 H          -5.4848   -0.0808    0.8415 H       1  UNL1        0.0619
     35 H          -5.6386    1.9583   -0.4676 H       1  UNL1        0.0654
     36 H          -3.9746    4.1033   -0.9374 H       1  UNL1        0.2921
     37 H          -1.4232    2.1283   -0.8019 H       1  UNL1        0.0657
@<TRIPOS>BOND
     1     1     2    1
     2     2     3    1
     3     3     4    2
     4     4     5    1
     5     5     6   am
     6     6     7    1
     7     6     8    2
     8     3     9    1
     9     9    10   ar
    10    10    11    1
    11    10    12   ar
    12    12    13   ar
    13    13    14   ar
    14    14    15   ar
    15     1    16    1
    16    16    17   ar
    17    17    18   ar
    18    18    19   ar
    19    19    20   ar
    20    20    21    1
    21    20    22   ar
    22     5     1    1
    23    15     9   ar
    24    22    16   ar
    25     1    23    1
    26     2    24    1
    27     2    25    1
    28     7    26    1
    29     7    27    1
    30     7    28    1
    31    12    29    1
    32    13    30    1
    33    14    31    1
    34    15    32    1
    35    17    33    1
    36    18    34    1
    37    19    35    1
    38    21    36    1
    39    22    37    1
