
     RDKit          3D

 53 57  0  0  0  0  0  0  0  0999 V2000
    5.6982   -3.2158    0.5088 C   0  0  0  0  0  0  0  0  0  0  0  0
    5.1759   -1.9352    0.0913 N   0  0  0  0  0  0  0  0  0  0  0  0
    5.9520   -0.7854   -0.1928 C   0  0  0  0  0  0  0  0  0  0  0  0
    7.2050   -0.7226   -0.1365 O   0  0  0  0  0  0  0  0  0  0  0  0
    5.0636    0.3482   -0.5707 C   0  0  0  0  0  0  0  0  0  0  0  0
    3.7532   -0.2441   -0.5008 N   0  0  0  0  0  0  0  0  0  0  0  0
    3.8101   -1.5285   -0.1208 C   0  0  0  0  0  0  0  0  0  0  0  0
    2.7027   -2.2559    0.0122 N   0  0  0  0  0  0  0  0  0  0  0  0
    1.4960   -1.6732   -0.2455 C   0  0  0  0  0  0  0  0  0  0  0  0
    0.2586   -2.1353   -0.2011 N   0  0  0  0  0  0  0  0  0  0  0  0
   -0.6134   -1.1361   -0.5584 C   0  0  0  0  0  0  0  0  0  0  0  0
   -2.0098   -1.4473   -0.5716 N   0  0  0  0  0  0  0  0  0  0  0  0
   -2.5597   -2.2303    0.5326 C   0  0  0  0  0  0  0  0  0  0  0  0
   -3.9675   -1.9396    0.8856 C   0  0  0  0  0  0  0  0  0  0  0  0
   -4.8530   -1.4583   -0.2096 C   0  0  0  0  0  0  0  0  0  0  0  0
   -4.0967   -0.3828   -1.0058 C   0  0  1  0  0  0  0  0  0  0  0  0
   -3.7025    0.5945   -0.0176 N   0  0  0  0  0  0  0  0  0  0  0  0
   -2.9298   -1.1000   -1.6201 C   0  0  0  0  0  0  0  0  0  0  0  0
    0.0833   -0.0482   -0.8244 N   0  0  0  0  0  0  0  0  0  0  0  0
   -0.3719    1.2379   -1.2019 C   0  0  0  0  0  0  0  0  0  0  0  0
   -0.5745    2.1600   -0.0427 C   0  0  0  0  0  0  0  0  0  0  0  0
   -0.7833    1.7071    1.2178 C   0  0  0  0  0  0  0  0  0  0  0  0
   -0.9635    2.6259    2.2253 C   0  0  0  0  0  0  0  0  0  0  0  0
   -0.9430    3.9958    2.0285 C   0  0  0  0  0  0  0  0  0  0  0  0
   -0.7286    4.4315    0.7392 C   0  0  0  0  0  0  0  0  0  0  0  0
   -0.5465    3.5138   -0.2835 C   0  0  0  0  0  0  0  0  0  0  0  0
   -0.3246    4.0622   -1.6054 C   0  0  0  0  0  0  0  0  0  0  0  0
   -0.1500    4.5069   -2.6577 N   0  0  0  0  0  0  0  0  0  0  0  0
    1.4028   -0.3507   -0.6404 C   0  0  0  0  0  0  0  0  0  0  0  0
    2.5676    0.3691   -0.7666 C   0  0  0  0  0  0  0  0  0  0  0  0
    2.5182    1.5719   -1.1222 O   0  0  0  0  0  0  0  0  0  0  0  0
    6.2109   -3.7711   -0.2981 H   0  0  0  0  0  0  0  0  0  0  0  0
    4.8744   -3.8507    0.9334 H   0  0  0  0  0  0  0  0  0  0  0  0
    6.4561   -3.0060    1.2898 H   0  0  0  0  0  0  0  0  0  0  0  0
    5.1499    1.0878    0.2682 H   0  0  0  0  0  0  0  0  0  0  0  0
    5.2941    0.7904   -1.5434 H   0  0  0  0  0  0  0  0  0  0  0  0
   -1.9110   -2.0285    1.4182 H   0  0  0  0  0  0  0  0  0  0  0  0
   -2.4010   -3.3216    0.2777 H   0  0  0  0  0  0  0  0  0  0  0  0
   -3.9888   -1.2894    1.7901 H   0  0  0  0  0  0  0  0  0  0  0  0
   -4.4013   -2.9202    1.2725 H   0  0  0  0  0  0  0  0  0  0  0  0
   -5.1466   -2.2943   -0.8767 H   0  0  0  0  0  0  0  0  0  0  0  0
   -5.7574   -0.9913    0.1818 H   0  0  0  0  0  0  0  0  0  0  0  0
   -4.7602    0.0943   -1.7444 H   0  0  0  0  0  0  0  0  0  0  0  0
   -3.4343    1.5091   -0.3811 H   0  0  0  0  0  0  0  0  0  0  0  0
   -3.1498    0.2108    0.7498 H   0  0  0  0  0  0  0  0  0  0  0  0
   -3.3427   -2.0947   -1.9818 H   0  0  0  0  0  0  0  0  0  0  0  0
   -2.4982   -0.6373   -2.5104 H   0  0  0  0  0  0  0  0  0  0  0  0
    0.3376    1.7514   -1.9208 H   0  0  0  0  0  0  0  0  0  0  0  0
   -1.3663    1.1903   -1.6871 H   0  0  0  0  0  0  0  0  0  0  0  0
   -0.8088    0.6386    1.4139 H   0  0  0  0  0  0  0  0  0  0  0  0
   -1.1325    2.2118    3.2259 H   0  0  0  0  0  0  0  0  0  0  0  0
   -1.0873    4.6876    2.8325 H   0  0  0  0  0  0  0  0  0  0  0  0
   -0.7058    5.4975    0.5576 H   0  0  0  0  0  0  0  0  0  0  0  0
  1  2  1  0
  2  3  1  0
  3  4  2  0
  3  5  1  0
  5  6  1  0
  6  7  1  0
  7  8  2  0
  8  9  1  0
  9 10  1  0
 10 11  2  0
 11 12  1  0
 12 13  1  0
 13 14  1  0
 14 15  1  0
 15 16  1  0
 16 17  1  0
 16 18  1  0
 11 19  1  0
 19 20  1  0
 20 21  1  0
 21 22  2  0
 22 23  1  0
 23 24  2  0
 24 25  1  0
 25 26  2  0
 26 27  1  0
 27 28  3  0
 19 29  1  0
 29 30  1  0
 30 31  2  0
  7  2  1  0
 29  9  2  0
 30  6  1  0
 18 12  1  0
 26 21  1  0
  1 32  1  0
  1 33  1  0
  1 34  1  0
  5 35  1  0
  5 36  1  0
 13 37  1  0
 13 38  1  0
 14 39  1  0
 14 40  1  0
 15 41  1  0
 15 42  1  0
 16 43  1  6
 17 44  1  0
 17 45  1  0
 18 46  1  0
 18 47  1  0
 20 48  1  0
 20 49  1  0
 22 50  1  0
 23 51  1  0
 24 52  1  0
 25 53  1  0
M  END
$$$$
