@<TRIPOS>MOLECULE
*****
 53 57 0 0 0
SMALL
GASTEIGER

@<TRIPOS>ATOM
      1 C           5.6982   -3.2158    0.5088 C.3     1  UNL1        0.0110
      2 N           5.1759   -1.9352    0.0913 N.am    1  UNL1       -0.2432
      3 C           5.9520   -0.7854   -0.1928 C.2     1  UNL1        0.2417
      4 O           7.2050   -0.7226   -0.1365 O.2     1  UNL1       -0.2732
      5 C           5.0636    0.3482   -0.5707 C.3     1  UNL1        0.1061
      6 N           3.7532   -0.2441   -0.5008 N.ar    1  UNL1       -0.2698
      7 C           3.8101   -1.5285   -0.1208 C.ar    1  UNL1        0.2096
      8 N           2.7027   -2.2559    0.0122 N.ar    1  UNL1       -0.1938
      9 C           1.4960   -1.6732   -0.2455 C.ar    1  UNL1        0.1883
     10 N           0.2586   -2.1353   -0.2011 N.ar    1  UNL1       -0.1942
     11 C          -0.6134   -1.1361   -0.5584 C.ar    1  UNL1        0.2011
     12 N          -2.0098   -1.4473   -0.5716 N.pl3   1  UNL1       -0.2994
     13 C          -2.5597   -2.2303    0.5326 C.3     1  UNL1        0.0149
     14 C          -3.9675   -1.9396    0.8856 C.3     1  UNL1       -0.0357
     15 C          -4.8530   -1.4583   -0.2096 C.3     1  UNL1       -0.0349
     16 C          -4.0967   -0.3828   -1.0058 C.3     1  UNL1        0.0208
     17 N          -3.7025    0.5945   -0.0176 N.3     1  UNL1       -0.3259
     18 C          -2.9298   -1.1000   -1.6201 C.3     1  UNL1        0.0300
     19 N           0.0833   -0.0482   -0.8244 N.ar    1  UNL1       -0.3017
     20 C          -0.3719    1.2379   -1.2019 C.3     1  UNL1        0.0528
     21 C          -0.5745    2.1600   -0.0427 C.ar    1  UNL1       -0.0103
     22 C          -0.7833    1.7071    1.2178 C.ar    1  UNL1       -0.0556
     23 C          -0.9635    2.6259    2.2253 C.ar    1  UNL1       -0.0614
     24 C          -0.9430    3.9958    2.0285 C.ar    1  UNL1       -0.0605
     25 C          -0.7286    4.4315    0.7392 C.ar    1  UNL1       -0.0440
     26 C          -0.5465    3.5138   -0.2835 C.ar    1  UNL1        0.0566
     27 C          -0.3246    4.0622   -1.6054 C.1     1  UNL1        0.0995
     28 N          -0.1500    4.5069   -2.6577 N.1     1  UNL1       -0.1909
     29 C           1.4028   -0.3507   -0.6404 C.ar    1  UNL1        0.1548
     30 C           2.5676    0.3691   -0.7666 C.ar    1  UNL1        0.2816
     31 O           2.5182    1.5719   -1.1222 O.2     1  UNL1       -0.2652
     32 H           6.2109   -3.7711   -0.2981 H       1  UNL1        0.0433
     33 H           4.8744   -3.8507    0.9334 H       1  UNL1        0.0433
     34 H           6.4561   -3.0060    1.2898 H       1  UNL1        0.0433
     35 H           5.1499    1.0878    0.2682 H       1  UNL1        0.0590
     36 H           5.2941    0.7904   -1.5434 H       1  UNL1        0.0590
     37 H          -1.9110   -2.0285    1.4182 H       1  UNL1        0.0464
     38 H          -2.4010   -3.3216    0.2777 H       1  UNL1        0.0464
     39 H          -3.9888   -1.2894    1.7901 H       1  UNL1        0.0281
     40 H          -4.4013   -2.9202    1.2725 H       1  UNL1        0.0281
     41 H          -5.1466   -2.2943   -0.8767 H       1  UNL1        0.0281
     42 H          -5.7574   -0.9913    0.1818 H       1  UNL1        0.0281
     43 H          -4.7602    0.0943   -1.7444 H       1  UNL1        0.0474
     44 H          -3.4343    1.5091   -0.3811 H       1  UNL1        0.1185
     45 H          -3.1498    0.2108    0.7498 H       1  UNL1        0.1185
     46 H          -3.3427   -2.0947   -1.9818 H       1  UNL1        0.0480
     47 H          -2.4982   -0.6373   -2.5104 H       1  UNL1        0.0480
     48 H           0.3376    1.7514   -1.9208 H       1  UNL1        0.0543
     49 H          -1.3663    1.1903   -1.6871 H       1  UNL1        0.0543
     50 H          -0.8088    0.6386    1.4139 H       1  UNL1        0.0621
     51 H          -1.1325    2.2118    3.2259 H       1  UNL1        0.0618
     52 H          -1.0873    4.6876    2.8325 H       1  UNL1        0.0618
     53 H          -0.7058    5.4975    0.5576 H       1  UNL1        0.0630
@<TRIPOS>BOND
     1     1     2    1
     2     2     3   am
     3     3     4    2
     4     3     5    1
     5     5     6    1
     6     6     7   ar
     7     7     8   ar
     8     8     9   ar
     9     9    10   ar
    10    10    11   ar
    11    11    12    1
    12    12    13    1
    13    13    14    1
    14    14    15    1
    15    15    16    1
    16    16    17    1
    17    16    18    1
    18    11    19   ar
    19    19    20    1
    20    20    21    1
    21    21    22   ar
    22    22    23   ar
    23    23    24   ar
    24    24    25   ar
    25    25    26   ar
    26    26    27    1
    27    27    28    3
    28    19    29   ar
    29    29    30   ar
    30    30    31    2
    31     7     2    1
    32    29     9   ar
    33    30     6   ar
    34    18    12    1
    35    26    21   ar
    36     1    32    1
    37     1    33    1
    38     1    34    1
    39     5    35    1
    40     5    36    1
    41    13    37    1
    42    13    38    1
    43    14    39    1
    44    14    40    1
    45    15    41    1
    46    15    42    1
    47    16    43    1
    48    17    44    1
    49    17    45    1
    50    18    46    1
    51    18    47    1
    52    20    48    1
    53    20    49    1
    54    22    50    1
    55    23    51    1
    56    24    52    1
    57    25    53    1
