@<TRIPOS>MOLECULE
*****
 73 77 0 0 0
SMALL
GASTEIGER

@<TRIPOS>ATOM
      1 C          -6.3209   -5.7296   -1.0165 C.3     1  UNL1       -0.0652
      2 C          -7.0846   -5.0087    0.0682 C.3     1  UNL1       -0.0545
      3 C          -6.1455   -4.6825    1.1852 C.3     1  UNL1       -0.0376
      4 C          -4.9962   -3.8078    0.7837 C.3     1  UNL1        0.0118
      5 N          -5.3893   -2.5160    0.2705 N.pl3   1  UNL1       -0.3134
      6 C          -4.3207   -1.6751   -0.1674 C.ar    1  UNL1        0.2169
      7 N          -3.9806   -1.5787   -1.4632 N.ar    1  UNL1       -0.2222
      8 C          -2.9910   -0.8339   -1.9196 C.ar    1  UNL1        0.0436
      9 C          -2.2075   -0.0687   -1.0225 C.ar    1  UNL1        0.0584
     10 C          -0.9151    0.4069   -1.5412 C.ar    1  UNL1        0.0807
     11 C           0.2101    0.5301   -0.7888 C.ar    1  UNL1        0.0046
     12 C           1.4809    0.7847   -1.3538 C.ar    1  UNL1        0.1267
     13 N           2.6162    0.9018   -0.5277 N.pl3   1  UNL1       -0.2993
     14 C           3.8501    0.3042   -0.8488 C.ar    1  UNL1        0.0329
     15 C           3.9686   -0.4463   -1.9904 C.ar    1  UNL1       -0.0405
     16 C           5.1704   -1.0579   -2.3416 C.ar    1  UNL1       -0.0594
     17 C           6.2534   -0.8933   -1.5108 C.ar    1  UNL1       -0.0539
     18 C           6.1632   -0.1379   -0.3450 C.ar    1  UNL1       -0.0161
     19 C           7.3905   -0.0277    0.4509 C.ar    1  UNL1       -0.0178
     20 C           8.6246   -0.0034   -0.2209 C.ar    1  UNL1       -0.0540
     21 C           9.7956    0.0734    0.5471 C.ar    1  UNL1       -0.0612
     22 C           9.8087    0.1244    1.9014 C.ar    1  UNL1       -0.0617
     23 C           8.5809    0.1007    2.5744 C.ar    1  UNL1       -0.0612
     24 C           7.4158    0.0247    1.8069 C.ar    1  UNL1       -0.0540
     25 C           4.9697    0.4390   -0.0443 C.ar    1  UNL1       -0.0328
     26 N           1.4654    0.8887   -2.6898 N.ar    1  UNL1       -0.2206
     27 C           0.3795    0.7703   -3.4578 C.ar    1  UNL1        0.1187
     28 N          -0.7932    0.5310   -2.8703 N.ar    1  UNL1       -0.2351
     29 C          -2.5414   -0.1404    0.2863 C.ar    1  UNL1        0.1333
     30 N          -2.1290    0.8413    1.2477 N.pl3   1  UNL1       -0.3256
     31 C          -1.6020    2.1532    1.0495 C.3     1  UNL1        0.0221
     32 C          -2.2632    2.8666   -0.1071 C.3     1  UNL1       -0.0322
     33 C          -3.0129    4.1171    0.2671 C.3     1  UNL1       -0.0252
     34 C          -2.1491    5.0872    1.0435 C.3     1  UNL1        0.0554
     35 O          -1.2679    5.6800    0.1398 O.3     1  UNL1       -0.3918
     36 C          -1.3935    4.3453    2.1453 C.3     1  UNL1       -0.0252
     37 C          -2.0616    3.0036    2.3043 C.3     1  UNL1       -0.0322
     38 N          -3.5924   -0.9518    0.6826 N.ar    1  UNL1       -0.1991
     39 H          -6.7089   -6.7780   -1.1492 H       1  UNL1        0.0230
     40 H          -5.2491   -5.8384   -0.8223 H       1  UNL1        0.0230
     41 H          -6.5061   -5.2100   -1.9785 H       1  UNL1        0.0230
     42 H          -7.8347   -5.7360    0.4941 H       1  UNL1        0.0263
     43 H          -7.6200   -4.1109   -0.2740 H       1  UNL1        0.0263
     44 H          -5.7110   -5.6229    1.5769 H       1  UNL1        0.0280
     45 H          -6.6722   -4.2050    2.0427 H       1  UNL1        0.0280
     46 H          -4.3291   -4.2595    0.0305 H       1  UNL1        0.0462
     47 H          -4.4274   -3.5864    1.7350 H       1  UNL1        0.0462
     48 H          -6.3598   -2.1621    0.1965 H       1  UNL1        0.1489
     49 H          -2.7358   -0.7708   -2.9558 H       1  UNL1        0.0838
     50 H           0.2314    0.3684    0.2965 H       1  UNL1        0.0673
     51 H           2.5458    1.4554    0.3484 H       1  UNL1        0.1536
     52 H           3.1401   -0.6175   -2.6873 H       1  UNL1        0.0636
     53 H           5.2264   -1.6437   -3.2603 H       1  UNL1        0.0618
     54 H           7.1920   -1.3565   -1.7563 H       1  UNL1        0.0624
     55 H           8.6218   -0.0394   -1.2846 H       1  UNL1        0.0624
     56 H          10.7536    0.0965    0.0140 H       1  UNL1        0.0618
     57 H          10.7285    0.1814    2.4829 H       1  UNL1        0.0618
     58 H           8.5974    0.1381    3.6380 H       1  UNL1        0.0618
     59 H           6.4467    0.0049    2.3429 H       1  UNL1        0.0624
     60 H           4.9003    1.0192    0.8552 H       1  UNL1        0.0642
     61 H           0.3807    0.8558   -4.5257 H       1  UNL1        0.1048
     62 H          -2.2341    0.4896    2.2543 H       1  UNL1        0.1478
     63 H          -0.5411    2.3029    1.0701 H       1  UNL1        0.0498
     64 H          -1.4930    3.1657   -0.8702 H       1  UNL1        0.0284
     65 H          -2.9921    2.2240   -0.6415 H       1  UNL1        0.0284
     66 H          -3.9865    3.9172    0.7177 H       1  UNL1        0.0291
     67 H          -3.2228    4.6418   -0.7157 H       1  UNL1        0.0291
     68 H          -2.8041    5.8087    1.5356 H       1  UNL1        0.0593
     69 H          -1.7854    6.3447   -0.3870 H       1  UNL1        0.2098
     70 H          -0.3779    4.1429    1.7599 H       1  UNL1        0.0291
     71 H          -1.4276    4.8700    3.1099 H       1  UNL1        0.0291
     72 H          -1.5820    2.4727    3.1442 H       1  UNL1        0.0284
     73 H          -3.1501    3.0228    2.3273 H       1  UNL1        0.0284
@<TRIPOS>BOND
     1     1     2    1
     2     2     3    1
     3     3     4    1
     4     4     5    1
     5     5     6    1
     6     6     7   ar
     7     7     8   ar
     8     8     9   ar
     9     9    10    1
    10    10    11   ar
    11    11    12   ar
    12    12    13    1
    13    13    14    1
    14    14    15   ar
    15    15    16   ar
    16    16    17   ar
    17    17    18   ar
    18    18    19    1
    19    19    20   ar
    20    20    21   ar
    21    21    22   ar
    22    22    23   ar
    23    23    24   ar
    24    18    25   ar
    25    12    26   ar
    26    26    27   ar
    27    27    28   ar
    28     9    29   ar
    29    29    30    1
    30    30    31    1
    31    31    32    1
    32    32    33    1
    33    33    34    1
    34    34    35    1
    35    34    36    1
    36    36    37    1
    37    29    38   ar
    38    38     6   ar
    39    28    10   ar
    40    37    31    1
    41    25    14   ar
    42    24    19   ar
    43     1    39    1
    44     1    40    1
    45     1    41    1
    46     2    42    1
    47     2    43    1
    48     3    44    1
    49     3    45    1
    50     4    46    1
    51     4    47    1
    52     5    48    1
    53     8    49    1
    54    11    50    1
    55    13    51    1
    56    15    52    1
    57    16    53    1
    58    17    54    1
    59    20    55    1
    60    21    56    1
    61    22    57    1
    62    23    58    1
    63    24    59    1
    64    25    60    1
    65    27    61    1
    66    30    62    1
    67    31    63    1
    68    32    64    1
    69    32    65    1
    70    33    66    1
    71    33    67    1
    72    34    68    1
    73    35    69    1
    74    36    70    1
    75    36    71    1
    76    37    72    1
    77    37    73    1
