
     RDKit          3D

 73 77  0  0  0  0  0  0  0  0999 V2000
   -6.3209   -5.7296   -1.0165 C   0  0  0  0  0  0  0  0  0  0  0  0
   -7.0846   -5.0087    0.0682 C   0  0  0  0  0  0  0  0  0  0  0  0
   -6.1455   -4.6825    1.1852 C   0  0  0  0  0  0  0  0  0  0  0  0
   -4.9962   -3.8078    0.7837 C   0  0  0  0  0  0  0  0  0  0  0  0
   -5.3893   -2.5160    0.2705 N   0  0  0  0  0  0  0  0  0  0  0  0
   -4.3207   -1.6751   -0.1674 C   0  0  0  0  0  0  0  0  0  0  0  0
   -3.9806   -1.5787   -1.4632 N   0  0  0  0  0  0  0  0  0  0  0  0
   -2.9910   -0.8339   -1.9196 C   0  0  0  0  0  0  0  0  0  0  0  0
   -2.2075   -0.0687   -1.0225 C   0  0  0  0  0  0  0  0  0  0  0  0
   -0.9151    0.4069   -1.5412 C   0  0  0  0  0  0  0  0  0  0  0  0
    0.2101    0.5301   -0.7888 C   0  0  0  0  0  0  0  0  0  0  0  0
    1.4809    0.7847   -1.3538 C   0  0  0  0  0  0  0  0  0  0  0  0
    2.6162    0.9018   -0.5277 N   0  0  0  0  0  0  0  0  0  0  0  0
    3.8501    0.3042   -0.8488 C   0  0  0  0  0  0  0  0  0  0  0  0
    3.9686   -0.4463   -1.9904 C   0  0  0  0  0  0  0  0  0  0  0  0
    5.1704   -1.0579   -2.3416 C   0  0  0  0  0  0  0  0  0  0  0  0
    6.2534   -0.8933   -1.5108 C   0  0  0  0  0  0  0  0  0  0  0  0
    6.1632   -0.1379   -0.3450 C   0  0  0  0  0  0  0  0  0  0  0  0
    7.3905   -0.0277    0.4509 C   0  0  0  0  0  0  0  0  0  0  0  0
    8.6246   -0.0034   -0.2209 C   0  0  0  0  0  0  0  0  0  0  0  0
    9.7956    0.0734    0.5471 C   0  0  0  0  0  0  0  0  0  0  0  0
    9.8087    0.1244    1.9014 C   0  0  0  0  0  0  0  0  0  0  0  0
    8.5809    0.1007    2.5744 C   0  0  0  0  0  0  0  0  0  0  0  0
    7.4158    0.0247    1.8069 C   0  0  0  0  0  0  0  0  0  0  0  0
    4.9697    0.4390   -0.0443 C   0  0  0  0  0  0  0  0  0  0  0  0
    1.4654    0.8887   -2.6898 N   0  0  0  0  0  0  0  0  0  0  0  0
    0.3795    0.7703   -3.4578 C   0  0  0  0  0  0  0  0  0  0  0  0
   -0.7932    0.5310   -2.8703 N   0  0  0  0  0  0  0  0  0  0  0  0
   -2.5414   -0.1404    0.2863 C   0  0  0  0  0  0  0  0  0  0  0  0
   -2.1290    0.8413    1.2477 N   0  0  0  0  0  0  0  0  0  0  0  0
   -1.6020    2.1532    1.0495 C   0  0  1  0  0  0  0  0  0  0  0  0
   -2.2632    2.8666   -0.1071 C   0  0  0  0  0  0  0  0  0  0  0  0
   -3.0129    4.1171    0.2671 C   0  0  0  0  0  0  0  0  0  0  0  0
   -2.1491    5.0872    1.0435 C   0  0  2  0  0  0  0  0  0  0  0  0
   -1.2679    5.6800    0.1398 O   0  0  0  0  0  0  0  0  0  0  0  0
   -1.3935    4.3453    2.1453 C   0  0  0  0  0  0  0  0  0  0  0  0
   -2.0616    3.0036    2.3043 C   0  0  0  0  0  0  0  0  0  0  0  0
   -3.5924   -0.9518    0.6826 N   0  0  0  0  0  0  0  0  0  0  0  0
   -6.7089   -6.7780   -1.1492 H   0  0  0  0  0  0  0  0  0  0  0  0
   -5.2491   -5.8384   -0.8223 H   0  0  0  0  0  0  0  0  0  0  0  0
   -6.5061   -5.2100   -1.9785 H   0  0  0  0  0  0  0  0  0  0  0  0
   -7.8347   -5.7360    0.4941 H   0  0  0  0  0  0  0  0  0  0  0  0
   -7.6200   -4.1109   -0.2740 H   0  0  0  0  0  0  0  0  0  0  0  0
   -5.7110   -5.6229    1.5769 H   0  0  0  0  0  0  0  0  0  0  0  0
   -6.6722   -4.2050    2.0427 H   0  0  0  0  0  0  0  0  0  0  0  0
   -4.3291   -4.2595    0.0305 H   0  0  0  0  0  0  0  0  0  0  0  0
   -4.4274   -3.5864    1.7350 H   0  0  0  0  0  0  0  0  0  0  0  0
   -6.3598   -2.1621    0.1965 H   0  0  0  0  0  0  0  0  0  0  0  0
   -2.7358   -0.7708   -2.9558 H   0  0  0  0  0  0  0  0  0  0  0  0
    0.2314    0.3684    0.2965 H   0  0  0  0  0  0  0  0  0  0  0  0
    2.5458    1.4554    0.3484 H   0  0  0  0  0  0  0  0  0  0  0  0
    3.1401   -0.6175   -2.6873 H   0  0  0  0  0  0  0  0  0  0  0  0
    5.2264   -1.6437   -3.2603 H   0  0  0  0  0  0  0  0  0  0  0  0
    7.1920   -1.3565   -1.7563 H   0  0  0  0  0  0  0  0  0  0  0  0
    8.6218   -0.0394   -1.2846 H   0  0  0  0  0  0  0  0  0  0  0  0
   10.7536    0.0965    0.0140 H   0  0  0  0  0  0  0  0  0  0  0  0
   10.7285    0.1814    2.4829 H   0  0  0  0  0  0  0  0  0  0  0  0
    8.5974    0.1381    3.6380 H   0  0  0  0  0  0  0  0  0  0  0  0
    6.4467    0.0049    2.3429 H   0  0  0  0  0  0  0  0  0  0  0  0
    4.9003    1.0192    0.8552 H   0  0  0  0  0  0  0  0  0  0  0  0
    0.3807    0.8558   -4.5257 H   0  0  0  0  0  0  0  0  0  0  0  0
   -2.2341    0.4896    2.2543 H   0  0  0  0  0  0  0  0  0  0  0  0
   -0.5411    2.3029    1.0701 H   0  0  0  0  0  0  0  0  0  0  0  0
   -1.4930    3.1657   -0.8702 H   0  0  0  0  0  0  0  0  0  0  0  0
   -2.9921    2.2240   -0.6415 H   0  0  0  0  0  0  0  0  0  0  0  0
   -3.9865    3.9172    0.7177 H   0  0  0  0  0  0  0  0  0  0  0  0
   -3.2228    4.6418   -0.7157 H   0  0  0  0  0  0  0  0  0  0  0  0
   -2.8041    5.8087    1.5356 H   0  0  0  0  0  0  0  0  0  0  0  0
   -1.7854    6.3447   -0.3870 H   0  0  0  0  0  0  0  0  0  0  0  0
   -0.3779    4.1429    1.7599 H   0  0  0  0  0  0  0  0  0  0  0  0
   -1.4276    4.8700    3.1099 H   0  0  0  0  0  0  0  0  0  0  0  0
   -1.5820    2.4727    3.1442 H   0  0  0  0  0  0  0  0  0  0  0  0
   -3.1501    3.0228    2.3273 H   0  0  0  0  0  0  0  0  0  0  0  0
  1  2  1  0
  2  3  1  0
  3  4  1  0
  4  5  1  0
  5  6  1  0
  6  7  2  0
  7  8  1  0
  8  9  2  0
  9 10  1  0
 10 11  2  0
 11 12  1  0
 12 13  1  0
 13 14  1  0
 14 15  2  0
 15 16  1  0
 16 17  2  0
 17 18  1  0
 18 19  1  0
 19 20  2  0
 20 21  1  0
 21 22  2  0
 22 23  1  0
 23 24  2  0
 18 25  2  0
 12 26  2  0
 26 27  1  0
 27 28  2  0
  9 29  1  0
 29 30  1  0
 30 31  1  0
 31 32  1  0
 32 33  1  0
 33 34  1  0
 34 35  1  0
 34 36  1  0
 36 37  1  0
 29 38  2  0
 38  6  1  0
 28 10  1  0
 37 31  1  0
 25 14  1  0
 24 19  1  0
  1 39  1  0
  1 40  1  0
  1 41  1  0
  2 42  1  0
  2 43  1  0
  3 44  1  0
  3 45  1  0
  4 46  1  0
  4 47  1  0
  5 48  1  0
  8 49  1  0
 11 50  1  0
 13 51  1  0
 15 52  1  0
 16 53  1  0
 17 54  1  0
 20 55  1  0
 21 56  1  0
 22 57  1  0
 23 58  1  0
 24 59  1  0
 25 60  1  0
 27 61  1  0
 30 62  1  0
 31 63  1  6
 32 64  1  0
 32 65  1  0
 33 66  1  0
 33 67  1  0
 34 68  1  1
 35 69  1  0
 36 70  1  0
 36 71  1  0
 37 72  1  0
 37 73  1  0
M  END
$$$$
