@<TRIPOS>MOLECULE
*****
 39 41 0 0 0
SMALL
GASTEIGER

@<TRIPOS>ATOM
      1 C          -3.8911   -0.0171    1.6543 C.3     1  UNL1       -0.0125
      2 N          -3.1580   -0.1543    0.4443 N.3     1  UNL1       -0.3013
      3 C          -3.2593    0.9771   -0.4409 C.3     1  UNL1       -0.0125
      4 C          -1.7916   -0.5402    0.7177 C.3     1  UNL1        0.0382
      5 C          -1.0535    0.4374    1.5559 C.3     1  UNL1       -0.0170
      6 C          -0.0971    1.3349    0.8208 C.3     1  UNL1        0.0190
      7 N           0.8044    0.4540    0.0701 N.pl3   1  UNL1       -0.2997
      8 C           2.2006    0.4533    0.1903 C.ar    1  UNL1        0.0354
      9 C           2.8513    1.6181    0.6182 C.ar    1  UNL1       -0.0389
     10 C           4.2210    1.6440    0.7661 C.ar    1  UNL1       -0.0402
     11 C           5.0076    0.5575    0.5093 C.ar    1  UNL1        0.0594
     12 CL          6.7480    0.5746    0.6921 Cl      1  UNL1       -0.0820
     13 C           4.3800   -0.5927    0.0886 C.ar    1  UNL1        0.0610
     14 CL          5.3219   -2.0157   -0.2566 Cl      1  UNL1       -0.0820
     15 C           2.9888   -0.6401   -0.0679 C.ar    1  UNL1       -0.0206
     16 C           0.1640   -0.4276   -0.8396 C.ar    1  UNL1        0.0387
     17 C           0.8135   -0.7845   -2.0273 C.ar    1  UNL1       -0.0400
     18 C           0.2108   -1.6385   -2.9240 C.ar    1  UNL1       -0.0600
     19 C          -1.0417   -2.1187   -2.6047 C.ar    1  UNL1       -0.0613
     20 C          -1.6847   -1.7664   -1.4315 C.ar    1  UNL1       -0.0553
     21 C          -1.0865   -0.9079   -0.5232 C.ar    1  UNL1       -0.0089
     22 H          -3.7918    0.9628    2.1492 H       1  UNL1        0.0391
     23 H          -3.5590   -0.8009    2.3662 H       1  UNL1        0.0391
     24 H          -4.9861   -0.2025    1.4688 H       1  UNL1        0.0391
     25 H          -2.4384    1.0610   -1.1517 H       1  UNL1        0.0391
     26 H          -4.2043    0.8853   -1.0174 H       1  UNL1        0.0391
     27 H          -3.3274    1.9414    0.1029 H       1  UNL1        0.0391
     28 H          -1.8815   -1.4883    1.3305 H       1  UNL1        0.0513
     29 H          -0.4327   -0.0915    2.3383 H       1  UNL1        0.0299
     30 H          -1.7397    1.0864    2.1698 H       1  UNL1        0.0299
     31 H          -0.5710    2.0334    0.1270 H       1  UNL1        0.0468
     32 H           0.4785    1.8875    1.5923 H       1  UNL1        0.0468
     33 H           2.2613    2.5089    0.8337 H       1  UNL1        0.0637
     34 H           4.6589    2.5664    1.0970 H       1  UNL1        0.0633
     35 H           2.5470   -1.5695   -0.3877 H       1  UNL1        0.0651
     36 H           1.7957   -0.3758   -2.2421 H       1  UNL1        0.0636
     37 H           0.7282   -1.9047   -3.8390 H       1  UNL1        0.0618
     38 H          -1.5119   -2.7886   -3.3102 H       1  UNL1        0.0618
     39 H          -2.6744   -2.1585   -1.2009 H       1  UNL1        0.0621
@<TRIPOS>BOND
     1     1     2    1
     2     2     3    1
     3     2     4    1
     4     4     5    1
     5     5     6    1
     6     6     7    1
     7     7     8    1
     8     8     9   ar
     9     9    10   ar
    10    10    11   ar
    11    11    12    1
    12    11    13   ar
    13    13    14    1
    14    13    15   ar
    15     7    16    1
    16    16    17   ar
    17    17    18   ar
    18    18    19   ar
    19    19    20   ar
    20    20    21   ar
    21    21     4    1
    22    15     8   ar
    23    21    16   ar
    24     1    22    1
    25     1    23    1
    26     1    24    1
    27     3    25    1
    28     3    26    1
    29     3    27    1
    30     4    28    1
    31     5    29    1
    32     5    30    1
    33     6    31    1
    34     6    32    1
    35     9    33    1
    36    10    34    1
    37    15    35    1
    38    17    36    1
    39    18    37    1
    40    19    38    1
    41    20    39    1
