
     RDKit          3D

 39 41  0  0  0  0  0  0  0  0999 V2000
   -3.8911   -0.0171    1.6543 C   0  0  0  0  0  0  0  0  0  0  0  0
   -3.1580   -0.1543    0.4443 N   0  0  0  0  0  0  0  0  0  0  0  0
   -3.2593    0.9771   -0.4409 C   0  0  0  0  0  0  0  0  0  0  0  0
   -1.7916   -0.5402    0.7177 C   0  0  2  0  0  0  0  0  0  0  0  0
   -1.0535    0.4374    1.5559 C   0  0  0  0  0  0  0  0  0  0  0  0
   -0.0971    1.3349    0.8208 C   0  0  0  0  0  0  0  0  0  0  0  0
    0.8044    0.4540    0.0701 N   0  0  0  0  0  0  0  0  0  0  0  0
    2.2006    0.4533    0.1903 C   0  0  0  0  0  0  0  0  0  0  0  0
    2.8513    1.6181    0.6182 C   0  0  0  0  0  0  0  0  0  0  0  0
    4.2210    1.6440    0.7661 C   0  0  0  0  0  0  0  0  0  0  0  0
    5.0076    0.5575    0.5093 C   0  0  0  0  0  0  0  0  0  0  0  0
    6.7480    0.5746    0.6921 Cl  0  0  0  0  0  0  0  0  0  0  0  0
    4.3800   -0.5927    0.0886 C   0  0  0  0  0  0  0  0  0  0  0  0
    5.3219   -2.0157   -0.2566 Cl  0  0  0  0  0  0  0  0  0  0  0  0
    2.9888   -0.6401   -0.0679 C   0  0  0  0  0  0  0  0  0  0  0  0
    0.1640   -0.4276   -0.8396 C   0  0  0  0  0  0  0  0  0  0  0  0
    0.8135   -0.7845   -2.0273 C   0  0  0  0  0  0  0  0  0  0  0  0
    0.2108   -1.6385   -2.9240 C   0  0  0  0  0  0  0  0  0  0  0  0
   -1.0417   -2.1187   -2.6047 C   0  0  0  0  0  0  0  0  0  0  0  0
   -1.6847   -1.7664   -1.4315 C   0  0  0  0  0  0  0  0  0  0  0  0
   -1.0865   -0.9079   -0.5232 C   0  0  0  0  0  0  0  0  0  0  0  0
   -3.7918    0.9628    2.1492 H   0  0  0  0  0  0  0  0  0  0  0  0
   -3.5590   -0.8009    2.3662 H   0  0  0  0  0  0  0  0  0  0  0  0
   -4.9861   -0.2025    1.4688 H   0  0  0  0  0  0  0  0  0  0  0  0
   -2.4384    1.0610   -1.1517 H   0  0  0  0  0  0  0  0  0  0  0  0
   -4.2043    0.8853   -1.0174 H   0  0  0  0  0  0  0  0  0  0  0  0
   -3.3274    1.9414    0.1029 H   0  0  0  0  0  0  0  0  0  0  0  0
   -1.8815   -1.4883    1.3305 H   0  0  0  0  0  0  0  0  0  0  0  0
   -0.4327   -0.0915    2.3383 H   0  0  0  0  0  0  0  0  0  0  0  0
   -1.7397    1.0864    2.1698 H   0  0  0  0  0  0  0  0  0  0  0  0
   -0.5710    2.0334    0.1270 H   0  0  0  0  0  0  0  0  0  0  0  0
    0.4785    1.8875    1.5923 H   0  0  0  0  0  0  0  0  0  0  0  0
    2.2613    2.5089    0.8337 H   0  0  0  0  0  0  0  0  0  0  0  0
    4.6589    2.5664    1.0970 H   0  0  0  0  0  0  0  0  0  0  0  0
    2.5470   -1.5695   -0.3877 H   0  0  0  0  0  0  0  0  0  0  0  0
    1.7957   -0.3758   -2.2421 H   0  0  0  0  0  0  0  0  0  0  0  0
    0.7282   -1.9047   -3.8390 H   0  0  0  0  0  0  0  0  0  0  0  0
   -1.5119   -2.7886   -3.3102 H   0  0  0  0  0  0  0  0  0  0  0  0
   -2.6744   -2.1585   -1.2009 H   0  0  0  0  0  0  0  0  0  0  0  0
  1  2  1  0
  2  3  1  0
  2  4  1  0
  4  5  1  0
  5  6  1  0
  6  7  1  0
  7  8  1  0
  8  9  2  0
  9 10  1  0
 10 11  2  0
 11 12  1  0
 11 13  1  0
 13 14  1  0
 13 15  2  0
  7 16  1  0
 16 17  2  0
 17 18  1  0
 18 19  2  0
 19 20  1  0
 20 21  2  0
 21  4  1  0
 15  8  1  0
 21 16  1  0
  1 22  1  0
  1 23  1  0
  1 24  1  0
  3 25  1  0
  3 26  1  0
  3 27  1  0
  4 28  1  1
  5 29  1  0
  5 30  1  0
  6 31  1  0
  6 32  1  0
  9 33  1  0
 10 34  1  0
 15 35  1  0
 17 36  1  0
 18 37  1  0
 19 38  1  0
 20 39  1  0
M  END
$$$$
