
     RDKit          3D

 44 48  0  0  0  0  0  0  0  0999 V2000
    3.8296    0.0746    1.5868 N   0  0  0  0  0  0  0  0  0  0  0  0
    4.3818    0.3111    0.3150 C   0  0  0  0  0  0  0  0  0  0  0  0
    5.6469    0.4943    0.2846 O   0  0  0  0  0  0  0  0  0  0  0  0
    3.6316    0.3600   -0.9321 C   0  0  0  0  0  0  0  0  0  0  0  0
    4.1647    0.5945   -2.2019 C   0  0  0  0  0  0  0  0  0  0  0  0
    3.1558    0.5606   -3.0773 N   0  0  0  0  0  0  0  0  0  0  0  0
    2.0072    0.3158   -2.4262 C   0  0  0  0  0  0  0  0  0  0  0  0
    0.6806    0.1793   -2.8432 C   0  0  0  0  0  0  0  0  0  0  0  0
   -0.2896   -0.0768   -1.8983 C   0  0  0  0  0  0  0  0  0  0  0  0
    0.0069   -0.2027   -0.5541 C   0  0  0  0  0  0  0  0  0  0  0  0
   -0.9954   -0.4731    0.4663 C   0  0  0  0  0  0  0  0  0  0  0  0
   -2.0333    0.3884    0.7493 C   0  0  0  0  0  0  0  0  0  0  0  0
   -2.2986    1.6669    0.1050 C   0  0  0  0  0  0  0  0  0  0  0  0
   -3.4830    1.8563   -0.5798 C   0  0  0  0  0  0  0  0  0  0  0  0
   -3.8296    3.0080   -1.2153 C   0  0  0  0  0  0  0  0  0  0  0  0
   -2.9299    4.0703   -1.1736 C   0  0  0  0  0  0  0  0  0  0  0  0
   -3.2757    5.2068   -1.8023 F   0  0  0  0  0  0  0  0  0  0  0  0
   -1.7237    3.9218   -0.4938 C   0  0  0  0  0  0  0  0  0  0  0  0
   -1.4253    2.7314    0.1320 C   0  0  0  0  0  0  0  0  0  0  0  0
   -2.7414   -0.1928    1.7342 N   0  0  0  0  0  0  0  0  0  0  0  0
   -2.1537   -1.3798    2.0477 C   0  0  0  0  0  0  0  0  0  0  0  0
   -1.0906   -1.5589    1.2813 N   0  0  0  0  0  0  0  0  0  0  0  0
   -0.1908   -2.6889    1.2953 C   0  0  0  0  0  0  0  0  0  0  0  0
   -0.1023   -3.4317    2.5961 C   0  0  0  0  0  0  0  0  0  0  0  0
   -0.0635   -4.6287    1.8525 O   0  0  0  0  0  0  0  0  0  0  0  0
   -0.8244   -3.9981    0.8668 C   0  0  0  0  0  0  0  0  0  0  0  0
    1.3384   -0.0562   -0.2116 C   0  0  0  0  0  0  0  0  0  0  0  0
    2.3143    0.1968   -1.1242 N   0  0  0  0  0  0  0  0  0  0  0  0
    3.3864    0.8485    2.1077 H   0  0  0  0  0  0  0  0  0  0  0  0
    3.8692   -0.8741    1.9962 H   0  0  0  0  0  0  0  0  0  0  0  0
    5.2131    0.7654   -2.3732 H   0  0  0  0  0  0  0  0  0  0  0  0
    0.4995    0.2860   -3.9011 H   0  0  0  0  0  0  0  0  0  0  0  0
   -1.3048   -0.1788   -2.2360 H   0  0  0  0  0  0  0  0  0  0  0  0
   -4.1954    1.0244   -0.6164 H   0  0  0  0  0  0  0  0  0  0  0  0
   -4.7722    3.1253   -1.7469 H   0  0  0  0  0  0  0  0  0  0  0  0
   -1.0700    4.7814   -0.4983 H   0  0  0  0  0  0  0  0  0  0  0  0
   -0.5029    2.6450    0.6406 H   0  0  0  0  0  0  0  0  0  0  0  0
   -2.5241   -2.0504    2.8113 H   0  0  0  0  0  0  0  0  0  0  0  0
    0.7918   -2.5207    0.8518 H   0  0  0  0  0  0  0  0  0  0  0  0
    0.8178   -3.2552    3.1903 H   0  0  0  0  0  0  0  0  0  0  0  0
   -1.0433   -3.4075    3.1750 H   0  0  0  0  0  0  0  0  0  0  0  0
   -0.5908   -4.2826   -0.1687 H   0  0  0  0  0  0  0  0  0  0  0  0
   -1.8929   -4.0076    1.1501 H   0  0  0  0  0  0  0  0  0  0  0  0
    1.6119   -0.1484    0.8386 H   0  0  0  0  0  0  0  0  0  0  0  0
  1  2  1  0
  2  3  2  0
  2  4  1  0
  4  5  2  0
  5  6  1  0
  6  7  2  0
  7  8  1  0
  8  9  2  0
  9 10  1  0
 10 11  1  0
 11 12  2  0
 12 13  1  0
 13 14  2  0
 14 15  1  0
 15 16  2  0
 16 17  1  0
 16 18  1  0
 18 19  2  0
 12 20  1  0
 20 21  2  0
 21 22  1  0
 22 23  1  0
 23 24  1  0
 24 25  1  0
 25 26  1  0
 10 27  2  0
 27 28  1  0
 28  4  1  0
 28  7  1  0
 22 11  1  0
 26 23  1  0
 19 13  1  0
  1 29  1  0
  1 30  1  0
  5 31  1  0
  8 32  1  0
  9 33  1  0
 14 34  1  0
 15 35  1  0
 18 36  1  0
 19 37  1  0
 21 38  1  0
 23 39  1  0
 24 40  1  0
 24 41  1  0
 26 42  1  0
 26 43  1  0
 27 44  1  0
M  END
$$$$
