@<TRIPOS>MOLECULE
*****
 44 48 0 0 0
SMALL
GASTEIGER

@<TRIPOS>ATOM
      1 N           3.8296    0.0746    1.5868 N.am    1  UNL1       -0.3241
      2 C           4.3818    0.3111    0.3150 C.2     1  UNL1        0.2599
      3 O           5.6469    0.4943    0.2846 O.2     1  UNL1       -0.2687
      4 C           3.6316    0.3600   -0.9321 C.ar    1  UNL1        0.1280
      5 C           4.1647    0.5945   -2.2019 C.ar    1  UNL1        0.0588
      6 N           3.1558    0.5606   -3.0773 N.ar    1  UNL1       -0.2353
      7 C           2.0072    0.3158   -2.4262 C.ar    1  UNL1        0.1381
      8 C           0.6806    0.1793   -2.8432 C.ar    1  UNL1       -0.0182
      9 C          -0.2896   -0.0768   -1.8983 C.ar    1  UNL1       -0.0477
     10 C           0.0069   -0.2027   -0.5541 C.ar    1  UNL1        0.0173
     11 C          -0.9954   -0.4731    0.4663 C.ar    1  UNL1        0.0782
     12 C          -2.0333    0.3884    0.7493 C.ar    1  UNL1        0.0967
     13 C          -2.2986    1.6669    0.1050 C.ar    1  UNL1        0.0026
     14 C          -3.4830    1.8563   -0.5798 C.ar    1  UNL1       -0.0498
     15 C          -3.8296    3.0080   -1.2153 C.ar    1  UNL1       -0.0258
     16 C          -2.9299    4.0703   -1.1736 C.ar    1  UNL1        0.1234
     17 F          -3.2757    5.2068   -1.8023 F       1  UNL1       -0.2055
     18 C          -1.7237    3.9218   -0.4938 C.ar    1  UNL1       -0.0258
     19 C          -1.4253    2.7314    0.1320 C.ar    1  UNL1       -0.0498
     20 N          -2.7414   -0.1928    1.7342 N.ar    1  UNL1       -0.2351
     21 C          -2.1537   -1.3798    2.0477 C.ar    1  UNL1        0.0975
     22 N          -1.0906   -1.5589    1.2813 N.ar    1  UNL1       -0.3220
     23 C          -0.1908   -2.6889    1.2953 C.3     1  UNL1        0.0825
     24 C          -0.1023   -3.4317    2.5961 C.3     1  UNL1        0.0707
     25 O          -0.0635   -4.6287    1.8525 O.3     1  UNL1       -0.3755
     26 C          -0.8244   -3.9981    0.8668 C.3     1  UNL1        0.0707
     27 C           1.3384   -0.0562   -0.2116 C.ar    1  UNL1        0.0211
     28 N           2.3143    0.1968   -1.1242 N.ar    1  UNL1       -0.2949
     29 H           3.3864    0.8485    2.1077 H       1  UNL1        0.1453
     30 H           3.8692   -0.8741    1.9962 H       1  UNL1        0.1453
     31 H           5.2131    0.7654   -2.3732 H       1  UNL1        0.0853
     32 H           0.4995    0.2860   -3.9011 H       1  UNL1        0.0654
     33 H          -1.3048   -0.1788   -2.2360 H       1  UNL1        0.0626
     34 H          -4.1954    1.0244   -0.6164 H       1  UNL1        0.0625
     35 H          -4.7722    3.1253   -1.7469 H       1  UNL1        0.0646
     36 H          -1.0700    4.7814   -0.4983 H       1  UNL1        0.0646
     37 H          -0.5029    2.6450    0.6406 H       1  UNL1        0.0625
     38 H          -2.5241   -2.0504    2.8113 H       1  UNL1        0.1029
     39 H           0.7918   -2.5207    0.8518 H       1  UNL1        0.0574
     40 H           0.8178   -3.2552    3.1903 H       1  UNL1        0.0581
     41 H          -1.0433   -3.4075    3.1750 H       1  UNL1        0.0581
     42 H          -0.5908   -4.2826   -0.1687 H       1  UNL1        0.0581
     43 H          -1.8929   -4.0076    1.1501 H       1  UNL1        0.0581
     44 H           1.6119   -0.1484    0.8386 H       1  UNL1        0.0820
@<TRIPOS>BOND
     1     1     2   am
     2     2     3    2
     3     2     4    1
     4     4     5   ar
     5     5     6   ar
     6     6     7   ar
     7     7     8   ar
     8     8     9   ar
     9     9    10   ar
    10    10    11    1
    11    11    12   ar
    12    12    13    1
    13    13    14   ar
    14    14    15   ar
    15    15    16   ar
    16    16    17    1
    17    16    18   ar
    18    18    19   ar
    19    12    20   ar
    20    20    21   ar
    21    21    22   ar
    22    22    23    1
    23    23    24    1
    24    24    25    1
    25    25    26    1
    26    10    27   ar
    27    27    28   ar
    28    28     4   ar
    29    28     7   ar
    30    22    11   ar
    31    26    23    1
    32    19    13   ar
    33     1    29    1
    34     1    30    1
    35     5    31    1
    36     8    32    1
    37     9    33    1
    38    14    34    1
    39    15    35    1
    40    18    36    1
    41    19    37    1
    42    21    38    1
    43    23    39    1
    44    24    40    1
    45    24    41    1
    46    26    42    1
    47    26    43    1
    48    27    44    1
