
     RDKit          3D

 46 49  0  0  0  0  0  0  0  0999 V2000
   -2.9228    0.7501    2.0063 C   0  0  0  0  0  0  0  0  0  0  0  0
   -2.2535    1.0589    0.6718 C   0  0  2  0  0  0  0  0  0  0  0  0
   -0.7874    1.3044    0.9496 C   0  0  0  0  0  0  0  0  0  0  0  0
    0.1846    0.5336    0.3513 C   0  0  0  0  0  0  0  0  0  0  0  0
    1.5349    0.7566    0.5951 C   0  0  0  0  0  0  0  0  0  0  0  0
    2.5298   -0.0820   -0.0762 C   0  0  0  0  0  0  0  0  0  0  0  0
    3.6297   -0.5329    0.4667 C   0  0  0  0  0  0  0  0  0  0  0  0
    3.8367   -0.1716    1.7738 F   0  0  0  0  0  0  0  0  0  0  0  0
    4.6385   -1.3540   -0.1731 C   0  0  0  0  0  0  0  0  0  0  0  0
    4.5774   -1.7691   -1.4893 C   0  0  0  0  0  0  0  0  0  0  0  0
    5.5690   -2.5507   -2.0590 C   0  0  0  0  0  0  0  0  0  0  0  0
    6.6667   -2.9505   -1.3308 C   0  0  0  0  0  0  0  0  0  0  0  0
    7.9577   -3.9366   -1.9965 Cl  0  0  0  0  0  0  0  0  0  0  0  0
    6.7054   -2.5200   -0.0063 C   0  0  0  0  0  0  0  0  0  0  0  0
    5.7244   -1.7641    0.5062 N   0  0  0  0  0  0  0  0  0  0  0  0
    1.8530    1.7791    1.4583 C   0  0  0  0  0  0  0  0  0  0  0  0
    0.8727    2.5561    2.0609 C   0  0  0  0  0  0  0  0  0  0  0  0
   -0.4528    2.3394    1.8230 C   0  0  0  0  0  0  0  0  0  0  0  0
   -1.4656    3.0556    2.3720 F   0  0  0  0  0  0  0  0  0  0  0  0
   -2.7395    2.2661    0.0948 N   0  0  0  0  0  0  0  0  0  0  0  0
   -3.8505    2.3824   -0.5285 C   0  0  0  0  0  0  0  0  0  0  0  0
   -4.3132    3.5989   -1.0946 N   0  0  0  0  0  0  0  0  0  0  0  0
   -4.8398    0.8760   -0.6701 S   0  0  0  0  0  0  0  0  0  0  0  0
   -3.6327   -0.4743   -0.7953 C   0  0  1  0  0  0  0  0  0  0  0  0
   -4.1416   -1.8891   -0.6381 C   0  0  0  0  0  0  0  0  0  0  0  0
   -5.0899   -2.2236   -1.5921 O   0  0  0  0  0  0  0  0  0  0  0  0
   -2.3848   -0.2195   -1.6141 C   0  0  0  0  0  0  0  0  0  0  0  0
   -2.3354   -0.1755   -0.1535 C   0  0  1  0  0  0  0  0  0  0  0  0
   -3.6891   -0.0262    1.8439 H   0  0  0  0  0  0  0  0  0  0  0  0
   -2.1338    0.2752    2.6571 H   0  0  0  0  0  0  0  0  0  0  0  0
   -3.3913    1.6163    2.4755 H   0  0  0  0  0  0  0  0  0  0  0  0
   -0.0734   -0.2772   -0.3369 H   0  0  0  0  0  0  0  0  0  0  0  0
    2.3476   -0.3629   -1.1267 H   0  0  0  0  0  0  0  0  0  0  0  0
    3.7204   -1.4636   -2.0803 H   0  0  0  0  0  0  0  0  0  0  0  0
    5.5088   -2.8749   -3.1063 H   0  0  0  0  0  0  0  0  0  0  0  0
    7.5696   -2.8325    0.5736 H   0  0  0  0  0  0  0  0  0  0  0  0
    2.8970    1.9698    1.6630 H   0  0  0  0  0  0  0  0  0  0  0  0
    1.1207    3.3605    2.7395 H   0  0  0  0  0  0  0  0  0  0  0  0
   -5.2414    4.0293   -0.8985 H   0  0  0  0  0  0  0  0  0  0  0  0
   -3.6833    4.0996   -1.7532 H   0  0  0  0  0  0  0  0  0  0  0  0
   -3.3208   -2.6305   -0.6970 H   0  0  0  0  0  0  0  0  0  0  0  0
   -4.5895   -1.9337    0.3888 H   0  0  0  0  0  0  0  0  0  0  0  0
   -5.9796   -2.1817   -1.1561 H   0  0  0  0  0  0  0  0  0  0  0  0
   -2.4000    0.7369   -2.2043 H   0  0  0  0  0  0  0  0  0  0  0  0
   -1.9279   -1.0998   -2.1367 H   0  0  0  0  0  0  0  0  0  0  0  0
   -1.8051   -1.0485    0.3439 H   0  0  0  0  0  0  0  0  0  0  0  0
  2  1  1  1
  2  3  1  0
  3  4  2  0
  4  5  1  0
  5  6  1  0
  6  7  2  0
  7  8  1  0
  7  9  1  0
  9 10  2  0
 10 11  1  0
 11 12  2  0
 12 13  1  0
 12 14  1  0
 14 15  2  0
  5 16  2  0
 16 17  1  0
 17 18  2  0
 18 19  1  0
  2 20  1  0
 20 21  2  0
 21 22  1  0
 21 23  1  0
 23 24  1  0
 24 25  1  1
 25 26  1  0
 24 27  1  0
 27 28  1  0
 28  2  1  0
 18  3  1  0
 28 24  1  0
 15  9  1  0
  1 29  1  0
  1 30  1  0
  1 31  1  0
  4 32  1  0
  6 33  1  0
 10 34  1  0
 11 35  1  0
 14 36  1  0
 16 37  1  0
 17 38  1  0
 22 39  1  0
 22 40  1  0
 25 41  1  0
 25 42  1  0
 26 43  1  0
 27 44  1  0
 27 45  1  0
 28 46  1  1
M  END
$$$$
