@<TRIPOS>MOLECULE
*****
 46 49 0 0 0
SMALL
GASTEIGER

@<TRIPOS>ATOM
      1 C          -2.9228    0.7501    2.0063 C.3     1  UNL1       -0.0352
      2 C          -2.2535    1.0589    0.6718 C.3     1  UNL1        0.0931
      3 C          -0.7874    1.3044    0.9496 C.ar    1  UNL1        0.0157
      4 C           0.1846    0.5336    0.3513 C.ar    1  UNL1       -0.0463
      5 C           1.5349    0.7566    0.5951 C.ar    1  UNL1       -0.0217
      6 C           2.5298   -0.0820   -0.0762 C.2     1  UNL1       -0.0172
      7 C           3.6297   -0.5329    0.4667 C.2     1  UNL1        0.1492
      8 F           3.8367   -0.1716    1.7738 F       1  UNL1       -0.2032
      9 C           4.6385   -1.3540   -0.1731 C.ar    1  UNL1        0.0990
     10 C           4.5774   -1.7691   -1.4893 C.ar    1  UNL1       -0.0321
     11 C           5.5690   -2.5507   -2.0590 C.ar    1  UNL1       -0.0398
     12 C           6.6667   -2.9505   -1.3308 C.ar    1  UNL1        0.0591
     13 CL          7.9577   -3.9366   -1.9965 Cl      1  UNL1       -0.0820
     14 C           6.7054   -2.5200   -0.0063 C.ar    1  UNL1        0.0466
     15 N           5.7244   -1.7641    0.5062 N.ar    1  UNL1       -0.2512
     16 C           1.8530    1.7791    1.4583 C.ar    1  UNL1       -0.0518
     17 C           0.8727    2.5561    2.0609 C.ar    1  UNL1       -0.0255
     18 C          -0.4528    2.3394    1.8230 C.ar    1  UNL1        0.1289
     19 F          -1.4656    3.0556    2.3720 F       1  UNL1       -0.2051
     20 N          -2.7395    2.2661    0.0948 N.2     1  UNL1       -0.2521
     21 C          -3.8505    2.3824   -0.5285 C.2     1  UNL1        0.1481
     22 N          -4.3132    3.5989   -1.0946 N.pl3   1  UNL1       -0.3380
     23 S          -4.8398    0.8760   -0.6701 S.3     1  UNL1       -0.0817
     24 C          -3.6327   -0.4743   -0.7953 C.3     1  UNL1        0.0525
     25 C          -4.1416   -1.8891   -0.6381 C.3     1  UNL1        0.0596
     26 O          -5.0899   -2.2236   -1.5921 O.3     1  UNL1       -0.3936
     27 C          -2.3848   -0.2195   -1.6141 C.3     1  UNL1       -0.0287
     28 C          -2.3354   -0.1755   -0.1535 C.3     1  UNL1        0.0068
     29 H          -3.6891   -0.0262    1.8439 H       1  UNL1        0.0256
     30 H          -2.1338    0.2752    2.6571 H       1  UNL1        0.0256
     31 H          -3.3913    1.6163    2.4755 H       1  UNL1        0.0256
     32 H          -0.0734   -0.2772   -0.3369 H       1  UNL1        0.0628
     33 H           2.3476   -0.3629   -1.1267 H       1  UNL1        0.0653
     34 H           3.7204   -1.4636   -2.0803 H       1  UNL1        0.0640
     35 H           5.5088   -2.8749   -3.1063 H       1  UNL1        0.0633
     36 H           7.5696   -2.8325    0.5736 H       1  UNL1        0.0844
     37 H           2.8970    1.9698    1.6630 H       1  UNL1        0.0624
     38 H           1.1207    3.3605    2.7395 H       1  UNL1        0.0646
     39 H          -5.2414    4.0293   -0.8985 H       1  UNL1        0.1442
     40 H          -3.6833    4.0996   -1.7532 H       1  UNL1        0.1442
     41 H          -3.3208   -2.6305   -0.6970 H       1  UNL1        0.0571
     42 H          -4.5895   -1.9337    0.3888 H       1  UNL1        0.0571
     43 H          -5.9796   -2.1817   -1.1561 H       1  UNL1        0.2095
     44 H          -2.4000    0.7369   -2.2043 H       1  UNL1        0.0283
     45 H          -1.9279   -1.0998   -2.1367 H       1  UNL1        0.0283
     46 H          -1.8051   -1.0485    0.3439 H       1  UNL1        0.0342
@<TRIPOS>BOND
     1     2     1    1
     2     2     3    1
     3     3     4   ar
     4     4     5   ar
     5     5     6    1
     6     6     7    2
     7     7     8    1
     8     7     9    1
     9     9    10   ar
    10    10    11   ar
    11    11    12   ar
    12    12    13    1
    13    12    14   ar
    14    14    15   ar
    15     5    16   ar
    16    16    17   ar
    17    17    18   ar
    18    18    19    1
    19     2    20    1
    20    20    21    2
    21    21    22    1
    22    21    23    1
    23    23    24    1
    24    24    25    1
    25    25    26    1
    26    24    27    1
    27    27    28    1
    28    28     2    1
    29    18     3   ar
    30    28    24    1
    31    15     9   ar
    32     1    29    1
    33     1    30    1
    34     1    31    1
    35     4    32    1
    36     6    33    1
    37    10    34    1
    38    11    35    1
    39    14    36    1
    40    16    37    1
    41    17    38    1
    42    22    39    1
    43    22    40    1
    44    25    41    1
    45    25    42    1
    46    26    43    1
    47    27    44    1
    48    27    45    1
    49    28    46    1
