@<TRIPOS>MOLECULE
*****
 60 63 0 0 0
SMALL
GASTEIGER

@<TRIPOS>ATOM
      1 C          -4.5630    7.4367   -0.8828 C.3     1  UNL1       -0.0319
      2 C          -4.1525    6.0570   -0.8880 C.ar    1  UNL1        0.0068
      3 C          -4.8502    4.8481   -1.0233 C.ar    1  UNL1        0.0383
      4 N          -4.2154    3.7523   -0.9892 N.ar    1  UNL1       -0.2471
      5 C          -2.8925    3.7213   -0.8269 C.ar    1  UNL1        0.1086
      6 C          -2.0341    2.5248   -0.7692 C.ar    1  UNL1        0.0113
      7 C          -2.6176    1.2926   -0.8914 C.ar    1  UNL1       -0.0102
      8 C          -1.8498    0.1230   -0.8439 C.ar    1  UNL1        0.1219
      9 O          -2.3943   -1.1330   -0.9622 O.3     1  UNL1       -0.4913
     10 C          -1.5363   -2.2507   -0.9014 C.3     1  UNL1        0.0971
     11 C          -2.2774   -3.5547   -1.0461 C.3     1  UNL1        0.0274
     12 C          -3.0169   -3.6908   -2.3320 C.3     1  UNL1       -0.0543
     13 C          -3.1840   -3.7085    0.1738 C.3     1  UNL1       -0.0188
     14 C          -2.2084   -4.2114    1.2017 C.3     1  UNL1        0.0484
     15 O          -1.1033   -4.6938    0.5625 O.3     1  UNL1       -0.3791
     16 C          -1.2990   -4.6824   -0.7905 C.3     1  UNL1        0.0562
     17 C          -0.4916    0.2629   -0.6702 C.ar    1  UNL1       -0.0078
     18 C           0.1286    1.4856   -0.5438 C.ar    1  UNL1        0.0408
     19 C           1.5636    1.6340   -0.3605 C.2     1  UNL1        0.2447
     20 O           2.0444    2.8064   -0.2517 O.2     1  UNL1       -0.2702
     21 N           2.4633    0.5642   -0.2946 N.am    1  UNL1       -0.3047
     22 C           3.8979    0.8139   -0.1071 C.3     1  UNL1        0.0487
     23 C           4.5698    0.2603   -1.3648 C.3     1  UNL1       -0.0423
     24 C           4.4015    0.1204    1.0972 C.ar    1  UNL1        0.0087
     25 C           4.0659   -1.1837    1.3724 C.ar    1  UNL1        0.0363
     26 N           4.5523   -1.7808    2.4911 N.ar    1  UNL1       -0.2321
     27 C           5.3601   -1.1465    3.3570 C.ar    1  UNL1        0.2339
     28 C           5.8801   -1.8334    4.5825 C.3     1  UNL1        0.4522
     29 F           4.9979   -2.8059    5.0276 F       1  UNL1       -0.1632
     30 F           6.0990   -0.8866    5.5563 F       1  UNL1       -0.1632
     31 F           7.0641   -2.4396    4.2169 F       1  UNL1       -0.1632
     32 N           5.6881    0.1270    3.0888 N.ar    1  UNL1       -0.2321
     33 C           5.2304    0.7624    1.9912 C.ar    1  UNL1        0.0363
     34 C          -0.6784    2.6174   -0.5977 C.ar    1  UNL1       -0.0397
     35 S          -2.4760    5.3698   -0.7085 S.2     1  UNL1       -0.0725
     36 H          -3.7922    8.0439   -0.3392 H       1  UNL1        0.0283
     37 H          -4.8102    7.8729   -1.8572 H       1  UNL1        0.0283
     38 H          -5.4904    7.5340   -0.2453 H       1  UNL1        0.0283
     39 H          -5.9645    4.9002   -1.1589 H       1  UNL1        0.0838
     40 H          -3.6695    1.1542   -1.0272 H       1  UNL1        0.0661
     41 H          -1.0372   -2.2429    0.0744 H       1  UNL1        0.0703
     42 H          -0.8185   -2.1437   -1.7571 H       1  UNL1        0.0703
     43 H          -3.1098   -4.7536   -2.6227 H       1  UNL1        0.0237
     44 H          -3.9884   -3.1598   -2.2817 H       1  UNL1        0.0237
     45 H          -2.4173   -3.1811   -3.1287 H       1  UNL1        0.0237
     46 H          -3.9141   -4.5425   -0.0163 H       1  UNL1        0.0294
     47 H          -3.6717   -2.7684    0.4562 H       1  UNL1        0.0294
     48 H          -2.6769   -4.9155    1.9223 H       1  UNL1        0.0560
     49 H          -1.8813   -3.3047    1.7905 H       1  UNL1        0.0560
     50 H          -1.8257   -5.6397   -1.0692 H       1  UNL1        0.0566
     51 H          -0.3833   -4.5313   -1.3873 H       1  UNL1        0.0566
     52 H           0.1508   -0.6275   -0.6268 H       1  UNL1        0.0662
     53 H           2.1390   -0.4070   -0.3756 H       1  UNL1        0.1496
     54 H           4.0928    1.9001   -0.0360 H       1  UNL1        0.0546
     55 H           4.6115   -0.8382   -1.3295 H       1  UNL1        0.0251
     56 H           5.5711    0.7367   -1.4214 H       1  UNL1        0.0251
     57 H           4.0018    0.6471   -2.2488 H       1  UNL1        0.0251
     58 H           3.4219   -1.6930    0.6842 H       1  UNL1        0.0834
     59 H           5.5321    1.7906    1.8315 H       1  UNL1        0.0834
     60 H          -0.2360    3.5909   -0.5035 H       1  UNL1        0.0632
@<TRIPOS>BOND
     1     1     2    1
     2     2     3   ar
     3     3     4   ar
     4     4     5   ar
     5     5     6    1
     6     6     7   ar
     7     7     8   ar
     8     8     9    1
     9     9    10    1
    10    10    11    1
    11    11    12    1
    12    11    13    1
    13    13    14    1
    14    14    15    1
    15    15    16    1
    16     8    17   ar
    17    17    18   ar
    18    18    19    1
    19    19    20    2
    20    19    21   am
    21    21    22    1
    22    22    23    1
    23    22    24    1
    24    24    25   ar
    25    25    26   ar
    26    26    27   ar
    27    27    28    1
    28    28    29    1
    29    28    30    1
    30    28    31    1
    31    27    32   ar
    32    32    33   ar
    33    18    34   ar
    34     5    35   ar
    35    35     2   ar
    36    34     6   ar
    37    16    11    1
    38    33    24   ar
    39     1    36    1
    40     1    37    1
    41     1    38    1
    42     3    39    1
    43     7    40    1
    44    10    41    1
    45    10    42    1
    46    12    43    1
    47    12    44    1
    48    12    45    1
    49    13    46    1
    50    13    47    1
    51    14    48    1
    52    14    49    1
    53    16    50    1
    54    16    51    1
    55    17    52    1
    56    21    53    1
    57    22    54    1
    58    23    55    1
    59    23    56    1
    60    23    57    1
    61    25    58    1
    62    33    59    1
    63    34    60    1
