@<TRIPOS>MOLECULE
*****
 57 60 0 0 0
SMALL
GASTEIGER

@<TRIPOS>ATOM
      1 C          -2.7686   -0.4150   -2.5716 C.3     1  UNL1       -0.0594
      2 C          -3.0242    0.2282   -1.2317 C.3     1  UNL1       -0.0071
      3 C          -1.9042    1.2603   -0.9358 C.3     1  UNL1       -0.0436
      4 C          -0.8112    0.3124   -0.7022 C.3     1  UNL1       -0.0263
      5 C           0.4823    0.8093   -0.1405 C.3     1  UNL1        0.0003
      6 C           0.9793    2.0310   -0.8632 C.3     1  UNL1       -0.0432
      7 C           2.2924    2.4501   -0.1781 C.3     1  UNL1       -0.0301
      8 C           3.2242    1.2605   -0.3098 C.2     1  UNL1       -0.0532
      9 C           4.3508    1.4512   -0.9080 C.2     1  UNL1       -0.0148
     10 C           5.3104    0.3602   -1.0961 C.2     1  UNL1        0.1787
     11 O           6.3982    0.5294   -1.6664 O.2     1  UNL1       -0.2879
     12 C           4.9158   -0.9396   -0.5748 C.2     1  UNL1       -0.0180
     13 C           3.7516   -1.0778    0.0343 C.2     1  UNL1       -0.0674
     14 C           2.7854   -0.0167    0.2553 C.3     1  UNL1        0.0443
     15 C           2.6780    0.1897    1.7669 C.3     1  UNL1       -0.0493
     16 C           1.4394   -0.3488   -0.3441 C.3     1  UNL1        0.1526
     17 F           1.6688   -0.3727   -1.7341 F       1  UNL1       -0.2377
     18 C           0.9261   -1.6824    0.0210 C.3     1  UNL1        0.0910
     19 O           1.4555   -2.0553    1.2817 O.3     1  UNL1       -0.3886
     20 C          -0.5303   -1.9175    0.0916 C.3     1  UNL1       -0.0151
     21 C          -1.3550   -0.6666    0.2926 C.3     1  UNL1        0.0096
     22 C          -1.2877   -0.2862    1.7206 C.3     1  UNL1       -0.0562
     23 C          -2.7846   -0.8310   -0.1664 C.3     1  UNL1        0.1340
     24 O          -2.9160   -2.1398   -0.6778 O.3     1  UNL1       -0.3802
     25 C          -3.7870   -0.6425    0.8852 C.2     1  UNL1        0.1904
     26 O          -4.3498   -1.6620    1.3305 O.2     1  UNL1       -0.2919
     27 C          -4.2220    0.6228    1.4864 C.3     1  UNL1        0.1052
     28 O          -5.1826    0.4294    2.5053 O.3     1  UNL1       -0.3874
     29 H          -3.7275   -0.3841   -3.1464 H       1  UNL1        0.0233
     30 H          -2.4834   -1.4841   -2.4877 H       1  UNL1        0.0233
     31 H          -2.0002    0.1204   -3.1633 H       1  UNL1        0.0233
     32 H          -4.0076    0.6824   -1.1788 H       1  UNL1        0.0330
     33 H          -2.1735    1.9139   -0.1128 H       1  UNL1        0.0272
     34 H          -1.7168    1.8209   -1.8902 H       1  UNL1        0.0272
     35 H          -0.6381   -0.2635   -1.6459 H       1  UNL1        0.0311
     36 H           0.4510    1.0558    0.9167 H       1  UNL1        0.0336
     37 H           1.2181    1.7902   -1.9076 H       1  UNL1        0.0272
     38 H           0.2547    2.8488   -0.7466 H       1  UNL1        0.0272
     39 H           2.0707    2.5637    0.8875 H       1  UNL1        0.0310
     40 H           2.7128    3.3659   -0.5792 H       1  UNL1        0.0310
     41 H           4.6382    2.4559   -1.3057 H       1  UNL1        0.0656
     42 H           5.5936   -1.8091   -0.6907 H       1  UNL1        0.0653
     43 H           3.5730   -2.1224    0.3757 H       1  UNL1        0.0583
     44 H           3.4052   -0.4970    2.2955 H       1  UNL1        0.0242
     45 H           1.6671    0.0827    2.1339 H       1  UNL1        0.0242
     46 H           3.0358    1.2008    2.0341 H       1  UNL1        0.0242
     47 H           1.3498   -2.4714   -0.6738 H       1  UNL1        0.0626
     48 H           1.5181   -3.0350    1.3696 H       1  UNL1        0.2099
     49 H          -0.9130   -2.3825   -0.8630 H       1  UNL1        0.0297
     50 H          -0.7902   -2.6471    0.8850 H       1  UNL1        0.0297
     51 H          -0.4919   -0.8891    2.2684 H       1  UNL1        0.0236
     52 H          -2.2313   -0.6671    2.2223 H       1  UNL1        0.0236
     53 H          -1.2115    0.7724    1.9624 H       1  UNL1        0.0236
     54 H          -3.1105   -2.7103    0.1204 H       1  UNL1        0.2108
     55 H          -3.4770    1.2984    1.8681 H       1  UNL1        0.0637
     56 H          -4.7801    1.1808    0.6777 H       1  UNL1        0.0637
     57 H          -5.4703    1.3290    2.8034 H       1  UNL1        0.2100
@<TRIPOS>BOND
     1     1     2    1
     2     2     3    1
     3     3     4    1
     4     4     5    1
     5     5     6    1
     6     6     7    1
     7     7     8    1
     8     8     9    2
     9     9    10    1
    10    10    11    2
    11    10    12    1
    12    12    13    2
    13    13    14    1
    14    14    15    1
    15    14    16    1
    16    16    17    1
    17    16    18    1
    18    18    19    1
    19    18    20    1
    20    20    21    1
    21    21    22    1
    22    21    23    1
    23    23    24    1
    24    23    25    1
    25    25    26    2
    26    25    27    1
    27    27    28    1
    28    23     2    1
    29    21     4    1
    30    16     5    1
    31    14     8    1
    32     1    29    1
    33     1    30    1
    34     1    31    1
    35     2    32    1
    36     3    33    1
    37     3    34    1
    38     4    35    1
    39     5    36    1
    40     6    37    1
    41     6    38    1
    42     7    39    1
    43     7    40    1
    44     9    41    1
    45    12    42    1
    46    13    43    1
    47    15    44    1
    48    15    45    1
    49    15    46    1
    50    18    47    1
    51    19    48    1
    52    20    49    1
    53    20    50    1
    54    22    51    1
    55    22    52    1
    56    22    53    1
    57    24    54    1
    58    27    55    1
    59    27    56    1
    60    28    57    1
