
     RDKit          3D

 57 60  0  0  0  0  0  0  0  0999 V2000
   -2.7686   -0.4150   -2.5716 C   0  0  0  0  0  0  0  0  0  0  0  0
   -3.0242    0.2282   -1.2317 C   0  0  2  0  0  0  0  0  0  0  0  0
   -1.9042    1.2603   -0.9358 C   0  0  0  0  0  0  0  0  0  0  0  0
   -0.8112    0.3124   -0.7022 C   0  0  1  0  0  0  0  0  0  0  0  0
    0.4823    0.8093   -0.1405 C   0  0  2  0  0  0  0  0  0  0  0  0
    0.9793    2.0310   -0.8632 C   0  0  0  0  0  0  0  0  0  0  0  0
    2.2924    2.4501   -0.1781 C   0  0  0  0  0  0  0  0  0  0  0  0
    3.2242    1.2605   -0.3098 C   0  0  0  0  0  0  0  0  0  0  0  0
    4.3508    1.4512   -0.9080 C   0  0  0  0  0  0  0  0  0  0  0  0
    5.3104    0.3602   -1.0961 C   0  0  0  0  0  0  0  0  0  0  0  0
    6.3982    0.5294   -1.6664 O   0  0  0  0  0  0  0  0  0  0  0  0
    4.9158   -0.9396   -0.5748 C   0  0  0  0  0  0  0  0  0  0  0  0
    3.7516   -1.0778    0.0343 C   0  0  0  0  0  0  0  0  0  0  0  0
    2.7854   -0.0167    0.2553 C   0  0  1  0  0  0  0  0  0  0  0  0
    2.6780    0.1897    1.7669 C   0  0  0  0  0  0  0  0  0  0  0  0
    1.4394   -0.3488   -0.3441 C   0  0  2  0  0  0  0  0  0  0  0  0
    1.6688   -0.3727   -1.7341 F   0  0  0  0  0  0  0  0  0  0  0  0
    0.9261   -1.6824    0.0210 C   0  0  1  0  0  0  0  0  0  0  0  0
    1.4555   -2.0553    1.2817 O   0  0  0  0  0  0  0  0  0  0  0  0
   -0.5303   -1.9175    0.0916 C   0  0  0  0  0  0  0  0  0  0  0  0
   -1.3550   -0.6666    0.2926 C   0  0  1  0  0  0  0  0  0  0  0  0
   -1.2877   -0.2862    1.7206 C   0  0  0  0  0  0  0  0  0  0  0  0
   -2.7846   -0.8310   -0.1664 C   0  0  2  0  0  0  0  0  0  0  0  0
   -2.9160   -2.1398   -0.6778 O   0  0  0  0  0  0  0  0  0  0  0  0
   -3.7870   -0.6425    0.8852 C   0  0  0  0  0  0  0  0  0  0  0  0
   -4.3498   -1.6620    1.3305 O   0  0  0  0  0  0  0  0  0  0  0  0
   -4.2220    0.6228    1.4864 C   0  0  0  0  0  0  0  0  0  0  0  0
   -5.1826    0.4294    2.5053 O   0  0  0  0  0  0  0  0  0  0  0  0
   -3.7275   -0.3841   -3.1464 H   0  0  0  0  0  0  0  0  0  0  0  0
   -2.4834   -1.4841   -2.4877 H   0  0  0  0  0  0  0  0  0  0  0  0
   -2.0002    0.1204   -3.1633 H   0  0  0  0  0  0  0  0  0  0  0  0
   -4.0076    0.6824   -1.1788 H   0  0  0  0  0  0  0  0  0  0  0  0
   -2.1735    1.9139   -0.1128 H   0  0  0  0  0  0  0  0  0  0  0  0
   -1.7168    1.8209   -1.8902 H   0  0  0  0  0  0  0  0  0  0  0  0
   -0.6381   -0.2635   -1.6459 H   0  0  0  0  0  0  0  0  0  0  0  0
    0.4510    1.0558    0.9167 H   0  0  0  0  0  0  0  0  0  0  0  0
    1.2181    1.7902   -1.9076 H   0  0  0  0  0  0  0  0  0  0  0  0
    0.2547    2.8488   -0.7466 H   0  0  0  0  0  0  0  0  0  0  0  0
    2.0707    2.5637    0.8875 H   0  0  0  0  0  0  0  0  0  0  0  0
    2.7128    3.3659   -0.5792 H   0  0  0  0  0  0  0  0  0  0  0  0
    4.6382    2.4559   -1.3057 H   0  0  0  0  0  0  0  0  0  0  0  0
    5.5936   -1.8091   -0.6907 H   0  0  0  0  0  0  0  0  0  0  0  0
    3.5730   -2.1224    0.3757 H   0  0  0  0  0  0  0  0  0  0  0  0
    3.4052   -0.4970    2.2955 H   0  0  0  0  0  0  0  0  0  0  0  0
    1.6671    0.0827    2.1339 H   0  0  0  0  0  0  0  0  0  0  0  0
    3.0358    1.2008    2.0341 H   0  0  0  0  0  0  0  0  0  0  0  0
    1.3498   -2.4714   -0.6738 H   0  0  0  0  0  0  0  0  0  0  0  0
    1.5181   -3.0350    1.3696 H   0  0  0  0  0  0  0  0  0  0  0  0
   -0.9130   -2.3825   -0.8630 H   0  0  0  0  0  0  0  0  0  0  0  0
   -0.7902   -2.6471    0.8850 H   0  0  0  0  0  0  0  0  0  0  0  0
   -0.4919   -0.8891    2.2684 H   0  0  0  0  0  0  0  0  0  0  0  0
   -2.2313   -0.6671    2.2223 H   0  0  0  0  0  0  0  0  0  0  0  0
   -1.2115    0.7724    1.9624 H   0  0  0  0  0  0  0  0  0  0  0  0
   -3.1105   -2.7103    0.1204 H   0  0  0  0  0  0  0  0  0  0  0  0
   -3.4770    1.2984    1.8681 H   0  0  0  0  0  0  0  0  0  0  0  0
   -4.7801    1.1808    0.6777 H   0  0  0  0  0  0  0  0  0  0  0  0
   -5.4703    1.3290    2.8034 H   0  0  0  0  0  0  0  0  0  0  0  0
  1  2  1  0
  2  3  1  0
  3  4  1  0
  4  5  1  0
  5  6  1  0
  6  7  1  0
  7  8  1  0
  8  9  2  0
  9 10  1  0
 10 11  2  0
 10 12  1  0
 12 13  2  0
 13 14  1  0
 14 15  1  1
 14 16  1  0
 16 17  1  6
 16 18  1  0
 18 19  1  0
 18 20  1  0
 20 21  1  0
 21 22  1  1
 21 23  1  0
 23 24  1  6
 23 25  1  0
 25 26  2  0
 25 27  1  0
 27 28  1  0
 23  2  1  0
 21  4  1  0
 16  5  1  0
 14  8  1  0
  1 29  1  0
  1 30  1  0
  1 31  1  0
  2 32  1  6
  3 33  1  0
  3 34  1  0
  4 35  1  6
  5 36  1  1
  6 37  1  0
  6 38  1  0
  7 39  1  0
  7 40  1  0
  9 41  1  0
 12 42  1  0
 13 43  1  0
 15 44  1  0
 15 45  1  0
 15 46  1  0
 18 47  1  6
 19 48  1  0
 20 49  1  0
 20 50  1  0
 22 51  1  0
 22 52  1  0
 22 53  1  0
 24 54  1  0
 27 55  1  0
 27 56  1  0
 28 57  1  0
M  END
$$$$
