
     RDKit          3D

 45 48  0  0  0  0  0  0  0  0999 V2000
    8.3799   -1.2090   -0.6587 C   0  0  0  0  0  0  0  0  0  0  0  0
    7.1658   -0.8904    0.1115 N   0  0  0  0  0  0  0  0  0  0  0  0
    5.9755   -0.5188   -0.3679 C   0  0  0  0  0  0  0  0  0  0  0  0
    5.1023   -0.3124    0.6680 C   0  0  0  0  0  0  0  0  0  0  0  0
    3.7029    0.0980    0.6475 C   0  0  0  0  0  0  0  0  0  0  0  0
    2.8833   -0.2657   -0.3919 C   0  0  0  0  0  0  0  0  0  0  0  0
    1.5757    0.1285   -0.3900 N   0  0  0  0  0  0  0  0  0  0  0  0
    1.1039    0.8692    0.6312 C   0  0  0  0  0  0  0  0  0  0  0  0
   -0.2275    1.2418    0.5868 C   0  0  0  0  0  0  0  0  0  0  0  0
   -1.0202    0.8424   -0.5147 N   0  0  0  0  0  0  0  0  0  0  0  0
   -2.3889    1.0836   -0.7021 C   0  0  0  0  0  0  0  0  0  0  0  0
   -3.0418    1.6965    0.1415 O   0  0  0  0  0  0  0  0  0  0  0  0
   -3.1065    0.6423   -1.8633 N   0  0  0  0  0  0  0  0  0  0  0  0
   -4.5162    0.8673   -2.0695 C   0  0  0  0  0  0  0  0  0  0  0  0
   -5.3992   -0.0390   -1.3217 C   0  0  0  0  0  0  0  0  0  0  0  0
   -5.7291   -1.2704   -1.8991 C   0  0  0  0  0  0  0  0  0  0  0  0
   -6.5594   -2.1408   -1.2332 C   0  0  0  0  0  0  0  0  0  0  0  0
   -7.0671   -1.7980    0.0055 C   0  0  0  0  0  0  0  0  0  0  0  0
   -6.7386   -0.5872    0.5654 C   0  0  0  0  0  0  0  0  0  0  0  0
   -5.9041    0.2998   -0.0925 C   0  0  0  0  0  0  0  0  0  0  0  0
   -0.6807    1.9953    1.6388 C   0  0  0  0  0  0  0  0  0  0  0  0
    0.1408    2.3770    2.7075 C   0  0  0  0  0  0  0  0  0  0  0  0
    1.4246    2.0037    2.7278 N   0  0  0  0  0  0  0  0  0  0  0  0
    1.8717    1.2610    1.6916 C   0  0  0  0  0  0  0  0  0  0  0  0
    3.2148    0.8551    1.6875 C   0  0  0  0  0  0  0  0  0  0  0  0
    5.8448   -0.5847    1.8211 C   0  0  0  0  0  0  0  0  0  0  0  0
    7.0726   -0.9255    1.4216 N   0  0  0  0  0  0  0  0  0  0  0  0
    9.0046   -1.8560   -0.0275 H   0  0  0  0  0  0  0  0  0  0  0  0
    8.0388   -1.7857   -1.5406 H   0  0  0  0  0  0  0  0  0  0  0  0
    8.8969   -0.3058   -0.9930 H   0  0  0  0  0  0  0  0  0  0  0  0
    5.7118   -0.3920   -1.4092 H   0  0  0  0  0  0  0  0  0  0  0  0
    3.2786   -0.8598   -1.2024 H   0  0  0  0  0  0  0  0  0  0  0  0
   -0.5575    0.2954   -1.3121 H   0  0  0  0  0  0  0  0  0  0  0  0
   -2.5261    0.1242   -2.5872 H   0  0  0  0  0  0  0  0  0  0  0  0
   -4.7196    0.7429   -3.1687 H   0  0  0  0  0  0  0  0  0  0  0  0
   -4.8054    1.9282   -1.8580 H   0  0  0  0  0  0  0  0  0  0  0  0
   -5.3393   -1.5571   -2.8759 H   0  0  0  0  0  0  0  0  0  0  0  0
   -6.8489   -3.1145   -1.6403 H   0  0  0  0  0  0  0  0  0  0  0  0
   -7.7283   -2.4710    0.5535 H   0  0  0  0  0  0  0  0  0  0  0  0
   -7.1207   -0.2811    1.5429 H   0  0  0  0  0  0  0  0  0  0  0  0
   -5.6852    1.2539    0.4052 H   0  0  0  0  0  0  0  0  0  0  0  0
   -1.6943    2.3411    1.7052 H   0  0  0  0  0  0  0  0  0  0  0  0
   -0.2440    2.9724    3.5254 H   0  0  0  0  0  0  0  0  0  0  0  0
    3.8345    1.1592    2.5196 H   0  0  0  0  0  0  0  0  0  0  0  0
    5.4249   -0.5084    2.8144 H   0  0  0  0  0  0  0  0  0  0  0  0
  1  2  1  0
  2  3  1  0
  3  4  2  0
  4  5  1  0
  5  6  2  0
  6  7  1  0
  7  8  2  0
  8  9  1  0
  9 10  1  0
 10 11  1  0
 11 12  2  0
 11 13  1  0
 13 14  1  0
 14 15  1  0
 15 16  2  0
 16 17  1  0
 17 18  2  0
 18 19  1  0
 19 20  2  0
  9 21  2  0
 21 22  1  0
 22 23  2  0
 23 24  1  0
 24 25  2  0
  4 26  1  0
 26 27  2  0
 27  2  1  0
 25  5  1  0
 24  8  1  0
 20 15  1  0
  1 28  1  0
  1 29  1  0
  1 30  1  0
  3 31  1  0
  6 32  1  0
 10 33  1  0
 13 34  1  0
 14 35  1  0
 14 36  1  0
 16 37  1  0
 17 38  1  0
 18 39  1  0
 19 40  1  0
 20 41  1  0
 21 42  1  0
 22 43  1  0
 25 44  1  0
 26 45  1  0
M  END
$$$$
