@<TRIPOS>MOLECULE
*****
 45 48 0 0 0
SMALL
GASTEIGER

@<TRIPOS>ATOM
      1 C           8.3799   -1.2090   -0.6587 C.3     1  UNL1        0.0302
      2 N           7.1658   -0.8904    0.1115 N.ar    1  UNL1       -0.2739
      3 C           5.9755   -0.5188   -0.3679 C.ar    1  UNL1        0.0329
      4 C           5.1023   -0.3124    0.6680 C.ar    1  UNL1        0.0211
      5 C           3.7029    0.0980    0.6475 C.ar    1  UNL1        0.0052
      6 C           2.8833   -0.2657   -0.3919 C.ar    1  UNL1        0.0362
      7 N           1.5757    0.1285   -0.3900 N.ar    1  UNL1       -0.2510
      8 C           1.1039    0.8692    0.6312 C.ar    1  UNL1        0.1103
      9 C          -0.2275    1.2418    0.5868 C.ar    1  UNL1        0.0637
     10 N          -1.0202    0.8424   -0.5147 N.am    1  UNL1       -0.2675
     11 C          -2.3889    1.0836   -0.7021 C.2     1  UNL1        0.3042
     12 O          -3.0418    1.6965    0.1415 O.2     1  UNL1       -0.2525
     13 N          -3.1065    0.6423   -1.8633 N.am    1  UNL1       -0.2950
     14 C          -4.5162    0.8673   -2.0695 C.3     1  UNL1        0.0383
     15 C          -5.3992   -0.0390   -1.3217 C.ar    1  UNL1       -0.0303
     16 C          -5.7291   -1.2704   -1.8991 C.ar    1  UNL1       -0.0571
     17 C          -6.5594   -2.1408   -1.2332 C.ar    1  UNL1       -0.0615
     18 C          -7.0671   -1.7980    0.0055 C.ar    1  UNL1       -0.0617
     19 C          -6.7386   -0.5872    0.5654 C.ar    1  UNL1       -0.0615
     20 C          -5.9041    0.2998   -0.0925 C.ar    1  UNL1       -0.0571
     21 C          -0.6807    1.9953    1.6388 C.ar    1  UNL1       -0.0202
     22 C           0.1408    2.3770    2.7075 C.ar    1  UNL1        0.0301
     23 N           1.4246    2.0037    2.7278 N.ar    1  UNL1       -0.2533
     24 C           1.8717    1.2610    1.6916 C.ar    1  UNL1        0.0915
     25 C           3.2148    0.8551    1.6875 C.ar    1  UNL1       -0.0249
     26 C           5.8448   -0.5847    1.8211 C.ar    1  UNL1        0.0571
     27 N           7.0726   -0.9255    1.4216 N.ar    1  UNL1       -0.1793
     28 H           9.0046   -1.8560   -0.0275 H       1  UNL1        0.0473
     29 H           8.0388   -1.7857   -1.5406 H       1  UNL1        0.0473
     30 H           8.8969   -0.3058   -0.9930 H       1  UNL1        0.0473
     31 H           5.7118   -0.3920   -1.4092 H       1  UNL1        0.0832
     32 H           3.2786   -0.8598   -1.2024 H       1  UNL1        0.0836
     33 H          -0.5575    0.2954   -1.3121 H       1  UNL1        0.1564
     34 H          -2.5261    0.1242   -2.5872 H       1  UNL1        0.1506
     35 H          -4.7196    0.7429   -3.1687 H       1  UNL1        0.0512
     36 H          -4.8054    1.9282   -1.8580 H       1  UNL1        0.0512
     37 H          -5.3393   -1.5571   -2.8759 H       1  UNL1        0.0621
     38 H          -6.8489   -3.1145   -1.6403 H       1  UNL1        0.0618
     39 H          -7.7283   -2.4710    0.5535 H       1  UNL1        0.0618
     40 H          -7.1207   -0.2811    1.5429 H       1  UNL1        0.0618
     41 H          -5.6852    1.2539    0.4052 H       1  UNL1        0.0621
     42 H          -1.6943    2.3411    1.7052 H       1  UNL1        0.0652
     43 H          -0.2440    2.9724    3.5254 H       1  UNL1        0.0830
     44 H           3.8345    1.1592    2.5196 H       1  UNL1        0.0646
     45 H           5.4249   -0.5084    2.8144 H       1  UNL1        0.0854
@<TRIPOS>BOND
     1     1     2    1
     2     2     3   ar
     3     3     4   ar
     4     4     5    1
     5     5     6   ar
     6     6     7   ar
     7     7     8   ar
     8     8     9   ar
     9     9    10    1
    10    10    11   am
    11    11    12    2
    12    11    13   am
    13    13    14    1
    14    14    15    1
    15    15    16   ar
    16    16    17   ar
    17    17    18   ar
    18    18    19   ar
    19    19    20   ar
    20     9    21   ar
    21    21    22   ar
    22    22    23   ar
    23    23    24   ar
    24    24    25   ar
    25     4    26   ar
    26    26    27   ar
    27    27     2   ar
    28    25     5   ar
    29    24     8   ar
    30    20    15   ar
    31     1    28    1
    32     1    29    1
    33     1    30    1
    34     3    31    1
    35     6    32    1
    36    10    33    1
    37    13    34    1
    38    14    35    1
    39    14    36    1
    40    16    37    1
    41    17    38    1
    42    18    39    1
    43    19    40    1
    44    20    41    1
    45    21    42    1
    46    22    43    1
    47    25    44    1
    48    26    45    1
