
     RDKit          3D

 47 49  0  0  0  0  0  0  0  0999 V2000
   -2.1179   -0.5195   -1.7477 C   0  0  0  0  0  0  0  0  0  0  0  0
   -2.7556   -1.0351   -0.5720 N   0  0  0  0  0  0  0  0  0  0  0  0
   -4.1997   -0.8933   -0.4893 C   0  0  0  0  0  0  0  0  0  0  0  0
   -4.6048    0.3924    0.1082 C   0  0  0  0  0  0  0  0  0  0  0  0
   -4.8112    0.4792    1.4625 C   0  0  0  0  0  0  0  0  0  0  0  0
   -5.1824    1.7047    1.9698 C   0  0  0  0  0  0  0  0  0  0  0  0
   -5.3413    2.8018    1.1514 C   0  0  0  0  0  0  0  0  0  0  0  0
   -5.1269    2.6877   -0.2150 C   0  0  0  0  0  0  0  0  0  0  0  0
   -4.7593    1.4870   -0.7387 C   0  0  0  0  0  0  0  0  0  0  0  0
   -2.0370   -1.6488    0.4759 C   0  0  0  0  0  0  0  0  0  0  0  0
   -2.6522   -2.0876    1.4880 O   0  0  0  0  0  0  0  0  0  0  0  0
   -0.5835   -1.8083    0.4534 C   0  0  0  0  0  0  0  0  0  0  0  0
    0.1941   -1.1961    1.4207 C   0  0  0  0  0  0  0  0  0  0  0  0
    1.5665   -1.3176    1.4355 C   0  0  0  0  0  0  0  0  0  0  0  0
    2.2497   -2.0651    0.4752 C   0  0  0  0  0  0  0  0  0  0  0  0
    3.9853   -2.2195    0.5034 S   0  0  0  0  0  6  0  0  0  0  0  0
    4.4311   -1.9339    1.9265 O   0  0  0  0  0  0  0  0  0  0  0  0
    4.3998   -3.6615    0.2647 O   0  0  0  0  0  0  0  0  0  0  0  0
    4.8352   -1.1810   -0.5102 N   0  0  0  0  0  0  0  0  0  0  0  0
    4.7833    0.2304   -0.3814 C   0  0  0  0  0  0  0  0  0  0  0  0
    5.9896    0.9302   -0.2656 C   0  0  0  0  0  0  0  0  0  0  0  0
    5.9715    2.2883   -0.1114 C   0  0  0  0  0  0  0  0  0  0  0  0
    4.8014    3.0281   -0.0623 C   0  0  0  0  0  0  0  0  0  0  0  0
    3.6306    2.3113   -0.1799 C   0  0  0  0  0  0  0  0  0  0  0  0
    3.6085    0.9444   -0.3366 C   0  0  0  0  0  0  0  0  0  0  0  0
    1.4660   -2.6713   -0.4845 C   0  0  0  0  0  0  0  0  0  0  0  0
    0.0863   -2.5483   -0.4975 C   0  0  0  0  0  0  0  0  0  0  0  0
   -2.6764   -0.8038   -2.6861 H   0  0  0  0  0  0  0  0  0  0  0  0
   -1.0658   -0.8010   -1.8444 H   0  0  0  0  0  0  0  0  0  0  0  0
   -2.1393    0.6031   -1.7535 H   0  0  0  0  0  0  0  0  0  0  0  0
   -4.5799   -1.7678    0.0859 H   0  0  0  0  0  0  0  0  0  0  0  0
   -4.5980   -0.9974   -1.5081 H   0  0  0  0  0  0  0  0  0  0  0  0
   -4.6895   -0.3745    2.1014 H   0  0  0  0  0  0  0  0  0  0  0  0
   -5.3413    1.7520    3.0556 H   0  0  0  0  0  0  0  0  0  0  0  0
   -5.6362    3.7492    1.6006 H   0  0  0  0  0  0  0  0  0  0  0  0
   -5.2503    3.5482   -0.8692 H   0  0  0  0  0  0  0  0  0  0  0  0
   -4.5788    1.3405   -1.7906 H   0  0  0  0  0  0  0  0  0  0  0  0
   -0.3234   -0.6085    2.1779 H   0  0  0  0  0  0  0  0  0  0  0  0
    2.1751   -0.8349    2.1961 H   0  0  0  0  0  0  0  0  0  0  0  0
    5.4444   -1.5672   -1.2892 H   0  0  0  0  0  0  0  0  0  0  0  0
    6.9224    0.3460   -0.3040 H   0  0  0  0  0  0  0  0  0  0  0  0
    6.9146    2.8222   -0.0230 H   0  0  0  0  0  0  0  0  0  0  0  0
    4.8064    4.1119    0.0626 H   0  0  0  0  0  0  0  0  0  0  0  0
    2.6920    2.8630   -0.1446 H   0  0  0  0  0  0  0  0  0  0  0  0
    2.6554    0.4347   -0.4421 H   0  0  0  0  0  0  0  0  0  0  0  0
    1.9593   -3.2718   -1.2635 H   0  0  0  0  0  0  0  0  0  0  0  0
   -0.5178   -3.0423   -1.2673 H   0  0  0  0  0  0  0  0  0  0  0  0
  1  2  1  0
  2  3  1  0
  3  4  1  0
  4  5  2  0
  5  6  1  0
  6  7  2  0
  7  8  1  0
  8  9  2  0
  2 10  1  0
 10 11  2  0
 10 12  1  0
 12 13  2  0
 13 14  1  0
 14 15  2  0
 15 16  1  0
 16 17  2  0
 16 18  2  0
 16 19  1  0
 19 20  1  0
 20 21  2  0
 21 22  1  0
 22 23  2  0
 23 24  1  0
 24 25  2  0
 15 26  1  0
 26 27  2  0
  9  4  1  0
 27 12  1  0
 25 20  1  0
  1 28  1  0
  1 29  1  0
  1 30  1  0
  3 31  1  0
  3 32  1  0
  5 33  1  0
  6 34  1  0
  7 35  1  0
  8 36  1  0
  9 37  1  0
 13 38  1  0
 14 39  1  0
 19 40  1  0
 21 41  1  0
 22 42  1  0
 23 43  1  0
 24 44  1  0
 25 45  1  0
 26 46  1  0
 27 47  1  0
M  END
$$$$
