@<TRIPOS>MOLECULE
*****
 47 49 0 0 0
SMALL
GASTEIGER

@<TRIPOS>ATOM
      1 C          -2.1179   -0.5195   -1.7477 C.3     1  UNL1        0.0038
      2 N          -2.7556   -1.0351   -0.5720 N.am    1  UNL1       -0.2963
      3 C          -4.1997   -0.8933   -0.4893 C.3     1  UNL1        0.0397
      4 C          -4.6048    0.3924    0.1082 C.ar    1  UNL1       -0.0301
      5 C          -4.8112    0.4792    1.4625 C.ar    1  UNL1       -0.0571
      6 C          -5.1824    1.7047    1.9698 C.ar    1  UNL1       -0.0615
      7 C          -5.3413    2.8018    1.1514 C.ar    1  UNL1       -0.0617
      8 C          -5.1269    2.6877   -0.2150 C.ar    1  UNL1       -0.0615
      9 C          -4.7593    1.4870   -0.7387 C.ar    1  UNL1       -0.0571
     10 C          -2.0370   -1.6488    0.4759 C.2     1  UNL1        0.2467
     11 O          -2.6522   -2.0876    1.4880 O.2     1  UNL1       -0.2700
     12 C          -0.5835   -1.8083    0.4534 C.ar    1  UNL1        0.0370
     13 C           0.1941   -1.1961    1.4207 C.ar    1  UNL1       -0.0478
     14 C           1.5665   -1.3176    1.4355 C.ar    1  UNL1       -0.0344
     15 C           2.2497   -2.0651    0.4752 C.ar    1  UNL1        0.1085
     16 S           3.9853   -2.2195    0.5034 S.O2    1  UNL1        0.0723
     17 O           4.4311   -1.9339    1.9265 O.2     1  UNL1       -0.1500
     18 O           4.3998   -3.6615    0.2647 O.2     1  UNL1       -0.1500
     19 N           4.8352   -1.1810   -0.5102 N.pl3   1  UNL1       -0.2163
     20 C           4.7833    0.2304   -0.3814 C.ar    1  UNL1        0.0480
     21 C           5.9896    0.9302   -0.2656 C.ar    1  UNL1       -0.0393
     22 C           5.9715    2.2883   -0.1114 C.ar    1  UNL1       -0.0600
     23 C           4.8014    3.0281   -0.0623 C.ar    1  UNL1       -0.0616
     24 C           3.6306    2.3113   -0.1799 C.ar    1  UNL1       -0.0600
     25 C           3.6085    0.9444   -0.3366 C.ar    1  UNL1       -0.0393
     26 C           1.4660   -2.6713   -0.4845 C.ar    1  UNL1       -0.0344
     27 C           0.0863   -2.5483   -0.4975 C.ar    1  UNL1       -0.0478
     28 H          -2.6764   -0.8038   -2.6861 H       1  UNL1        0.0429
     29 H          -1.0658   -0.8010   -1.8444 H       1  UNL1        0.0429
     30 H          -2.1393    0.6031   -1.7535 H       1  UNL1        0.0429
     31 H          -4.5799   -1.7678    0.0859 H       1  UNL1        0.0514
     32 H          -4.5980   -0.9974   -1.5081 H       1  UNL1        0.0514
     33 H          -4.6895   -0.3745    2.1014 H       1  UNL1        0.0621
     34 H          -5.3413    1.7520    3.0556 H       1  UNL1        0.0618
     35 H          -5.6362    3.7492    1.6006 H       1  UNL1        0.0618
     36 H          -5.2503    3.5482   -0.8692 H       1  UNL1        0.0618
     37 H          -4.5788    1.3405   -1.7906 H       1  UNL1        0.0621
     38 H          -0.3234   -0.6085    2.1779 H       1  UNL1        0.0626
     39 H           2.1751   -0.8349    2.1961 H       1  UNL1        0.0637
     40 H           5.4444   -1.5672   -1.2892 H       1  UNL1        0.1737
     41 H           6.9224    0.3460   -0.3040 H       1  UNL1        0.0636
     42 H           6.9146    2.8222   -0.0230 H       1  UNL1        0.0618
     43 H           4.8064    4.1119    0.0626 H       1  UNL1        0.0618
     44 H           2.6920    2.8630   -0.1446 H       1  UNL1        0.0618
     45 H           2.6554    0.4347   -0.4421 H       1  UNL1        0.0636
     46 H           1.9593   -3.2718   -1.2635 H       1  UNL1        0.0637
     47 H          -0.5178   -3.0423   -1.2673 H       1  UNL1        0.0626
@<TRIPOS>BOND
     1     1     2    1
     2     2     3    1
     3     3     4    1
     4     4     5   ar
     5     5     6   ar
     6     6     7   ar
     7     7     8   ar
     8     8     9   ar
     9     2    10   am
    10    10    11    2
    11    10    12    1
    12    12    13   ar
    13    13    14   ar
    14    14    15   ar
    15    15    16    1
    16    16    17    2
    17    16    18    2
    18    16    19    1
    19    19    20    1
    20    20    21   ar
    21    21    22   ar
    22    22    23   ar
    23    23    24   ar
    24    24    25   ar
    25    15    26   ar
    26    26    27   ar
    27     9     4   ar
    28    27    12   ar
    29    25    20   ar
    30     1    28    1
    31     1    29    1
    32     1    30    1
    33     3    31    1
    34     3    32    1
    35     5    33    1
    36     6    34    1
    37     7    35    1
    38     8    36    1
    39     9    37    1
    40    13    38    1
    41    14    39    1
    42    19    40    1
    43    21    41    1
    44    22    42    1
    45    23    43    1
    46    24    44    1
    47    25    45    1
    48    26    46    1
    49    27    47    1
