
     RDKit          3D

 51 55  0  0  0  0  0  0  0  0999 V2000
   -1.3789    0.0929   -2.4425 O   0  0  0  0  0  0  0  0  0  0  0  0
   -1.6316   -0.5990   -1.4315 C   0  0  0  0  0  0  0  0  0  0  0  0
   -3.0004   -0.5162   -0.8761 C   0  0  0  0  0  0  0  0  0  0  0  0
   -3.9692   -1.3932   -1.3830 C   0  0  0  0  0  0  0  0  0  0  0  0
   -5.2560   -1.3426   -0.8991 C   0  0  0  0  0  0  0  0  0  0  0  0
   -5.5566   -0.4240    0.0774 C   0  0  0  0  0  0  0  0  0  0  0  0
   -4.5948    0.4248    0.5600 C   0  0  0  0  0  0  0  0  0  0  0  0
   -3.2701    0.4102    0.0977 C   0  0  0  0  0  0  0  0  0  0  0  0
   -2.3097    1.3020    0.6329 N   0  0  0  0  0  0  0  0  0  0  0  0
   -2.2728    2.5978    0.4124 N   0  0  0  0  0  0  0  0  0  0  0  0
   -1.2492    3.1304    1.0800 C   0  0  0  0  0  0  0  0  0  0  0  0
   -0.6142    2.1082    1.7530 C   0  0  0  0  0  0  0  0  0  0  0  0
   -1.3223    0.9836    1.4358 N   0  0  0  0  0  0  0  0  0  0  0  0
   -0.6525   -1.4166   -0.8600 N   0  0  0  0  0  0  0  0  0  0  0  0
   -1.0770   -2.1941    0.3422 C   0  0  0  0  0  0  0  0  0  0  0  0
   -0.4493   -3.5619    0.1199 C   0  0  0  0  0  0  0  0  0  0  0  0
   -0.2636   -3.8784   -1.2142 O   0  0  0  0  0  0  0  0  0  0  0  0
    0.6258   -3.0789   -1.9082 C   0  0  0  0  0  0  0  0  0  0  0  0
    0.6765   -1.7031   -1.2443 C   0  0  1  0  0  0  0  0  0  0  0  0
    1.5311   -0.7339   -1.9263 C   0  0  0  0  0  0  0  0  0  0  0  0
    1.8689    0.5142   -1.2153 C   0  0  0  0  0  0  0  0  0  0  0  0
    1.2624    1.7298   -1.3821 C   0  0  0  0  0  0  0  0  0  0  0  0
    1.6451    2.8553   -0.6513 C   0  0  0  0  0  0  0  0  0  0  0  0
    2.6503    2.7844    0.2671 C   0  0  0  0  0  0  0  0  0  0  0  0
    3.1111    4.2152    1.1721 Cl  0  0  0  0  0  0  0  0  0  0  0  0
    3.2885    1.5812    0.4671 C   0  0  0  0  0  0  0  0  0  0  0  0
    4.3655    1.4911    1.4459 C   0  0  0  0  0  0  0  0  0  0  0  0
    4.8604    2.4645    2.2312 N   0  0  0  0  0  0  0  0  0  0  0  0
    5.8447    1.9395    2.9795 C   0  0  0  0  0  0  0  0  0  0  0  0
    5.9678    0.6726    2.6761 O   0  0  0  0  0  0  0  0  0  0  0  0
    5.0870    0.4004    1.7611 N   0  0  0  0  0  0  0  0  0  0  0  0
    2.9004    0.5029   -0.2529 C   0  0  0  0  0  0  0  0  0  0  0  0
   -3.6465   -2.0789   -2.1452 H   0  0  0  0  0  0  0  0  0  0  0  0
   -5.9751   -2.0328   -1.3126 H   0  0  0  0  0  0  0  0  0  0  0  0
   -6.5558   -0.3625    0.4742 H   0  0  0  0  0  0  0  0  0  0  0  0
   -4.8480    1.1402    1.3269 H   0  0  0  0  0  0  0  0  0  0  0  0
   -0.9173    4.1659    1.1314 H   0  0  0  0  0  0  0  0  0  0  0  0
    0.2635    2.1528    2.4043 H   0  0  0  0  0  0  0  0  0  0  0  0
   -2.1445   -2.1903    0.4791 H   0  0  0  0  0  0  0  0  0  0  0  0
   -0.5456   -1.7347    1.1924 H   0  0  0  0  0  0  0  0  0  0  0  0
   -1.1695   -4.3056    0.5191 H   0  0  0  0  0  0  0  0  0  0  0  0
    0.4931   -3.6958    0.6532 H   0  0  0  0  0  0  0  0  0  0  0  0
    1.6367   -3.4834   -2.0139 H   0  0  0  0  0  0  0  0  0  0  0  0
    0.2149   -2.9158   -2.9245 H   0  0  0  0  0  0  0  0  0  0  0  0
    1.2286   -1.9697   -0.2458 H   0  0  0  0  0  0  0  0  0  0  0  0
    1.1708   -0.4311   -2.9408 H   0  0  0  0  0  0  0  0  0  0  0  0
    2.5172   -1.2492   -2.1633 H   0  0  0  0  0  0  0  0  0  0  0  0
    0.4792    1.8569   -2.0996 H   0  0  0  0  0  0  0  0  0  0  0  0
    1.1263    3.7744   -0.8333 H   0  0  0  0  0  0  0  0  0  0  0  0
    6.4593    2.4498    3.7239 H   0  0  0  0  0  0  0  0  0  0  0  0
    3.3952   -0.4493   -0.1043 H   0  0  0  0  0  0  0  0  0  0  0  0
  1  2  2  0
  2  3  1  0
  3  4  2  0
  4  5  1  0
  5  6  2  0
  6  7  1  0
  7  8  2  0
  8  9  1  0
  9 10  1  0
 10 11  2  0
 11 12  1  0
 12 13  2  0
  2 14  1  0
 14 15  1  0
 15 16  1  0
 16 17  1  0
 17 18  1  0
 18 19  1  0
 19 20  1  0
 20 21  1  0
 21 22  2  0
 22 23  1  0
 23 24  2  0
 24 25  1  0
 24 26  1  0
 26 27  1  0
 27 28  1  0
 28 29  2  0
 29 30  1  0
 30 31  1  0
 26 32  2  0
  8  3  1  0
 13  9  1  0
 19 14  1  0
 32 21  1  0
 31 27  2  0
  4 33  1  0
  5 34  1  0
  6 35  1  0
  7 36  1  0
 11 37  1  0
 12 38  1  0
 15 39  1  0
 15 40  1  0
 16 41  1  0
 16 42  1  0
 18 43  1  0
 18 44  1  0
 19 45  1  1
 20 46  1  0
 20 47  1  0
 22 48  1  0
 23 49  1  0
 29 50  1  0
 32 51  1  0
M  END
$$$$
