@<TRIPOS>MOLECULE
*****
 51 55 0 0 0
SMALL
GASTEIGER

@<TRIPOS>ATOM
      1 O          -1.3789    0.0929   -2.4425 O.2     1  UNL1       -0.2699
      2 C          -1.6316   -0.5990   -1.4315 C.2     1  UNL1        0.2491
      3 C          -3.0004   -0.5162   -0.8761 C.ar    1  UNL1        0.0640
      4 C          -3.9692   -1.3932   -1.3830 C.ar    1  UNL1       -0.0475
      5 C          -5.2560   -1.3426   -0.8991 C.ar    1  UNL1       -0.0609
      6 C          -5.5566   -0.4240    0.0774 C.ar    1  UNL1       -0.0597
      7 C          -4.5948    0.4248    0.5600 C.ar    1  UNL1       -0.0338
      8 C          -3.2701    0.4102    0.0977 C.ar    1  UNL1        0.0982
      9 N          -2.3097    1.3020    0.6329 N.ar    1  UNL1       -0.1496
     10 N          -2.2728    2.5978    0.4124 N.ar    1  UNL1       -0.1556
     11 C          -1.2492    3.1304    1.0800 C.ar    1  UNL1        0.0697
     12 C          -0.6142    2.1082    1.7530 C.ar    1  UNL1        0.0697
     13 N          -1.3223    0.9836    1.4358 N.ar    1  UNL1       -0.1556
     14 N          -0.6525   -1.4166   -0.8600 N.am    1  UNL1       -0.2897
     15 C          -1.0770   -2.1941    0.3422 C.3     1  UNL1        0.0388
     16 C          -0.4493   -3.5619    0.1199 C.3     1  UNL1        0.0635
     17 O          -0.2636   -3.8784   -1.2142 O.3     1  UNL1       -0.3764
     18 C           0.6258   -3.0789   -1.9082 C.3     1  UNL1        0.0666
     19 C           0.6765   -1.7031   -1.2443 C.3     1  UNL1        0.0537
     20 C           1.5311   -0.7339   -1.9263 C.3     1  UNL1       -0.0068
     21 C           1.8689    0.5142   -1.2153 C.ar    1  UNL1       -0.0448
     22 C           1.2624    1.7298   -1.3821 C.ar    1  UNL1       -0.0571
     23 C           1.6451    2.8553   -0.6513 C.ar    1  UNL1       -0.0424
     24 C           2.6503    2.7844    0.2671 C.ar    1  UNL1        0.0518
     25 CL          3.1111    4.2152    1.1721 Cl      1  UNL1       -0.0828
     26 C           3.2885    1.5812    0.4671 C.ar    1  UNL1        0.0410
     27 C           4.3655    1.4911    1.4459 C.ar    1  UNL1        0.2032
     28 N           4.8604    2.4645    2.2312 N.ar    1  UNL1       -0.1941
     29 C           5.8447    1.9395    2.9795 C.ar    1  UNL1        0.2147
     30 O           5.9678    0.6726    2.6761 O.2     1  UNL1       -0.3411
     31 N           5.0870    0.4004    1.7611 N.ar    1  UNL1       -0.0564
     32 C           2.9004    0.5029   -0.2529 C.ar    1  UNL1       -0.0463
     33 H          -3.6465   -2.0789   -2.1452 H       1  UNL1        0.0626
     34 H          -5.9751   -2.0328   -1.3126 H       1  UNL1        0.0618
     35 H          -6.5558   -0.3625    0.4742 H       1  UNL1        0.0618
     36 H          -4.8480    1.1402    1.3269 H       1  UNL1        0.0639
     37 H          -0.9173    4.1659    1.1314 H       1  UNL1        0.0864
     38 H           0.2635    2.1528    2.4043 H       1  UNL1        0.0864
     39 H          -2.1445   -2.1903    0.4791 H       1  UNL1        0.0487
     40 H          -0.5456   -1.7347    1.1924 H       1  UNL1        0.0487
     41 H          -1.1695   -4.3056    0.5191 H       1  UNL1        0.0575
     42 H           0.4931   -3.6958    0.6532 H       1  UNL1        0.0575
     43 H           1.6367   -3.4834   -2.0139 H       1  UNL1        0.0578
     44 H           0.2149   -2.9158   -2.9245 H       1  UNL1        0.0578
     45 H           1.2286   -1.9697   -0.2458 H       1  UNL1        0.0526
     46 H           1.1708   -0.4311   -2.9408 H       1  UNL1        0.0332
     47 H           2.5172   -1.2492   -2.1633 H       1  UNL1        0.0332
     48 H           0.4792    1.8569   -2.0996 H       1  UNL1        0.0621
     49 H           1.1263    3.7744   -0.8333 H       1  UNL1        0.0632
     50 H           6.4593    2.4498    3.7239 H       1  UNL1        0.1283
     51 H           3.3952   -0.4493   -0.1043 H       1  UNL1        0.0628
@<TRIPOS>BOND
     1     1     2    2
     2     2     3    1
     3     3     4   ar
     4     4     5   ar
     5     5     6   ar
     6     6     7   ar
     7     7     8   ar
     8     8     9    1
     9     9    10   ar
    10    10    11   ar
    11    11    12   ar
    12    12    13   ar
    13     2    14   am
    14    14    15    1
    15    15    16    1
    16    16    17    1
    17    17    18    1
    18    18    19    1
    19    19    20    1
    20    20    21    1
    21    21    22   ar
    22    22    23   ar
    23    23    24   ar
    24    24    25    1
    25    24    26   ar
    26    26    27    1
    27    27    28   ar
    28    28    29   ar
    29    29    30   ar
    30    30    31   ar
    31    26    32   ar
    32     8     3   ar
    33    13     9   ar
    34    19    14    1
    35    32    21   ar
    36    31    27   ar
    37     4    33    1
    38     5    34    1
    39     6    35    1
    40     7    36    1
    41    11    37    1
    42    12    38    1
    43    15    39    1
    44    15    40    1
    45    16    41    1
    46    16    42    1
    47    18    43    1
    48    18    44    1
    49    19    45    1
    50    20    46    1
    51    20    47    1
    52    22    48    1
    53    23    49    1
    54    29    50    1
    55    32    51    1
