@<TRIPOS>MOLECULE
*****
 20 19 0 0 0
SMALL
GASTEIGER

@<TRIPOS>ATOM
      1 CL          0.6907    0.0000    0.0000 Cl      1  UNL1       -0.1454
      2 N           2.3694    0.2826    1.2698 N.3     2  UNL2       -0.2144
      3 O           2.4328   -0.4279    0.1198 O.3     2  UNL2       -0.2978
      4 C           1.5334    0.0546   -0.8214 C.3     2  UNL2        0.0939
      5 C           0.1747   -0.0568   -0.2514 C.ar    2  UNL2       -0.0200
      6 C          -0.6044   -1.1755   -0.4152 C.ar    2  UNL2       -0.0553
      7 C          -1.8784   -1.2682    0.1248 C.ar    2  UNL2       -0.0483
      8 C          -2.3722   -0.2047    0.8456 C.ar    2  UNL2        0.0134
      9 I          -4.2889   -0.2225    1.7146 I       2  UNL2       -0.0438
     10 C          -1.6172    0.9331    1.0293 C.ar    2  UNL2       -0.0483
     11 C          -0.3321    0.9977    0.4712 C.ar    2  UNL2       -0.0553
     12 H          -0.6907    0.0000    0.0000 H       1  UNL1        0.1454
     13 H           3.0271   -0.1343    1.9565 H       2  UNL2        0.1500
     14 H           2.5673    1.2922    1.0824 H       2  UNL2        0.1500
     15 H           1.8094    1.0858   -1.1036 H       2  UNL2        0.0630
     16 H           1.5908   -0.6366   -1.7010 H       2  UNL2        0.0630
     17 H          -0.1991   -2.0085   -0.9883 H       2  UNL2        0.0621
     18 H          -2.4917   -2.1434   -0.0017 H       2  UNL2        0.0628
     19 H          -2.0085    1.7628    1.5945 H       2  UNL2        0.0628
     20 H           0.2876    1.8696    0.5932 H       2  UNL2        0.0621
@<TRIPOS>BOND
     1     2     3    1
     2     3     4    1
     3     4     5    1
     4     5     6   ar
     5     6     7   ar
     6     7     8   ar
     7     8     9    1
     8     8    10   ar
     9    10    11   ar
    10    11     5   ar
    11     1    12    1
    12     2    13    1
    13     2    14    1
    14     4    15    1
    15     4    16    1
    16     6    17    1
    17     7    18    1
    18    10    19    1
    19    11    20    1
