
     RDKit          3D

 20 19  0  0  0  0  0  0  0  0999 V2000
    0.6907    0.0000    0.0000 Cl  0  0  0  0  0  0  0  0  0  0  0  0
    2.3694    0.2826    1.2698 N   0  0  0  0  0  0  0  0  0  0  0  0
    2.4328   -0.4279    0.1198 O   0  0  0  0  0  0  0  0  0  0  0  0
    1.5334    0.0546   -0.8214 C   0  0  0  0  0  0  0  0  0  0  0  0
    0.1747   -0.0568   -0.2514 C   0  0  0  0  0  0  0  0  0  0  0  0
   -0.6044   -1.1755   -0.4152 C   0  0  0  0  0  0  0  0  0  0  0  0
   -1.8784   -1.2682    0.1248 C   0  0  0  0  0  0  0  0  0  0  0  0
   -2.3722   -0.2047    0.8456 C   0  0  0  0  0  0  0  0  0  0  0  0
   -4.2889   -0.2225    1.7146 I   0  0  0  0  0  0  0  0  0  0  0  0
   -1.6172    0.9331    1.0293 C   0  0  0  0  0  0  0  0  0  0  0  0
   -0.3321    0.9977    0.4712 C   0  0  0  0  0  0  0  0  0  0  0  0
   -0.6907    0.0000    0.0000 H   0  0  0  0  0  0  0  0  0  0  0  0
    3.0271   -0.1343    1.9565 H   0  0  0  0  0  0  0  0  0  0  0  0
    2.5673    1.2922    1.0824 H   0  0  0  0  0  0  0  0  0  0  0  0
    1.8094    1.0858   -1.1036 H   0  0  0  0  0  0  0  0  0  0  0  0
    1.5908   -0.6366   -1.7010 H   0  0  0  0  0  0  0  0  0  0  0  0
   -0.1991   -2.0085   -0.9883 H   0  0  0  0  0  0  0  0  0  0  0  0
   -2.4917   -2.1434   -0.0017 H   0  0  0  0  0  0  0  0  0  0  0  0
   -2.0085    1.7628    1.5945 H   0  0  0  0  0  0  0  0  0  0  0  0
    0.2876    1.8696    0.5932 H   0  0  0  0  0  0  0  0  0  0  0  0
  2  3  1  0
  3  4  1  0
  4  5  1  0
  5  6  2  0
  6  7  1  0
  7  8  2  0
  8  9  1  0
  8 10  1  0
 10 11  2  0
 11  5  1  0
  1 12  1  0
  2 13  1  0
  2 14  1  0
  4 15  1  0
  4 16  1  0
  6 17  1  0
  7 18  1  0
 10 19  1  0
 11 20  1  0
M  END
$$$$
