
     RDKit          3D

 73 77  0  0  0  0  0  0  0  0999 V2000
   -7.6296    3.8092   -2.6473 C   0  0  0  0  0  0  0  0  0  0  0  0
   -7.1141    2.5531   -2.1804 N   0  0  0  0  0  0  0  0  0  0  0  0
   -7.6503    1.3060   -2.6876 C   0  0  0  0  0  0  0  0  0  0  0  0
   -6.0587    2.5369   -1.2078 C   0  0  0  0  0  0  0  0  0  0  0  0
   -5.5399    3.7351   -0.7357 C   0  0  0  0  0  0  0  0  0  0  0  0
   -4.5375    3.7060    0.1907 C   0  0  0  0  0  0  0  0  0  0  0  0
   -4.0081    2.5255    0.6872 C   0  0  0  0  0  0  0  0  0  0  0  0
   -3.0000    2.5607    1.7159 C   0  0  0  0  0  0  0  0  0  0  0  0
   -2.4966    1.5977    2.3209 O   0  0  0  0  0  0  0  0  0  0  0  0
   -2.5098    3.8295    2.1000 O   0  0  0  0  0  0  0  0  0  0  0  0
   -4.5064    1.3193    0.2305 C   0  0  0  0  0  0  0  0  0  0  0  0
   -4.0190    0.0965    0.6861 O   0  0  0  0  0  0  0  0  0  0  0  0
   -2.7111   -0.3175    0.3889 C   0  0  0  0  0  0  0  0  0  0  0  0
   -1.8882    0.3812   -0.3905 N   0  0  0  0  0  0  0  0  0  0  0  0
   -0.6490   -0.0446   -0.6508 C   0  0  0  0  0  0  0  0  0  0  0  0
    0.1359    0.7295   -1.4670 O   0  0  0  0  0  0  0  0  0  0  0  0
    1.4252    0.3687   -1.7641 C   0  0  0  0  0  0  0  0  0  0  0  0
    1.6838   -0.4878   -2.8013 C   0  0  0  0  0  0  0  0  0  0  0  0
    2.9744   -0.8727   -3.1339 C   0  0  0  0  0  0  0  0  0  0  0  0
    4.0349   -0.3609   -2.3766 C   0  0  0  0  0  0  0  0  0  0  0  0
    3.8107    0.5037   -1.3248 C   0  0  0  0  0  0  0  0  0  0  0  0
    4.9477    1.0284   -0.5952 C   0  0  0  0  0  0  0  0  0  0  0  0
    4.8886    2.2910   -0.0235 C   0  0  0  0  0  0  0  0  0  0  0  0
    5.9495    2.8359    0.6532 C   0  0  0  0  0  0  0  0  0  0  0  0
    7.1135    2.1149    0.7734 C   0  0  0  0  0  0  0  0  0  0  0  0
    7.2228    0.8349    0.2137 C   0  0  0  0  0  0  0  0  0  0  0  0
    8.5047    0.1490    0.3874 C   0  0  0  0  0  0  0  0  0  0  0  0
    8.5962   -0.6455    1.5866 N   0  0  0  0  0  0  0  0  0  0  0  0
    6.1315    0.3450   -0.4482 C   0  0  0  0  0  0  0  0  0  0  0  0
    2.5099    0.8408   -1.0512 C   0  0  0  0  0  0  0  0  0  0  0  0
   -0.1939   -1.2563   -0.0938 C   0  0  0  0  0  0  0  0  0  0  0  0
    1.0500   -1.5793   -0.4226 F   0  0  0  0  0  0  0  0  0  0  0  0
   -0.9915   -2.0106    0.7087 C   0  0  0  0  0  0  0  0  0  0  0  0
   -0.5644   -3.2280    1.2840 N   0  0  0  0  0  0  0  0  0  0  0  0
    0.7294   -3.8336    1.1479 C   0  0  0  0  0  0  0  0  0  0  0  0
    1.2422   -4.1613    2.5632 C   0  0  0  0  0  0  0  0  0  0  0  0
    0.3546   -5.1045    3.1701 N   0  0  0  0  0  0  0  0  0  0  0  0
   -0.8598   -5.3312    2.4260 C   0  0  0  0  0  0  0  0  0  0  0  0
   -1.5139   -4.0145    2.1056 C   0  0  0  0  0  0  0  0  0  0  0  0
   -2.2661   -1.5085    0.9378 C   0  0  0  0  0  0  0  0  0  0  0  0
   -3.1323   -2.1795    1.7342 F   0  0  0  0  0  0  0  0  0  0  0  0
   -5.5315    1.3626   -0.7151 C   0  0  0  0  0  0  0  0  0  0  0  0
   -8.2152    4.3204   -1.8478 H   0  0  0  0  0  0  0  0  0  0  0  0
   -8.2943    3.6221   -3.5184 H   0  0  0  0  0  0  0  0  0  0  0  0
   -6.8234    4.5161   -2.9347 H   0  0  0  0  0  0  0  0  0  0  0  0
   -7.9867    0.6117   -1.9194 H   0  0  0  0  0  0  0  0  0  0  0  0
   -6.8452    0.8064   -3.2784 H   0  0  0  0  0  0  0  0  0  0  0  0
   -8.4726    1.4937   -3.4134 H   0  0  0  0  0  0  0  0  0  0  0  0
   -5.9399    4.6896   -1.1119 H   0  0  0  0  0  0  0  0  0  0  0  0
   -4.1269    4.6508    0.5632 H   0  0  0  0  0  0  0  0  0  0  0  0
   -1.7475    3.9378    2.7563 H   0  0  0  0  0  0  0  0  0  0  0  0
    0.8935   -0.9226   -3.4233 H   0  0  0  0  0  0  0  0  0  0  0  0
    3.1607   -1.5489   -3.9545 H   0  0  0  0  0  0  0  0  0  0  0  0
    5.0150   -0.6777   -2.6581 H   0  0  0  0  0  0  0  0  0  0  0  0
    3.9846    2.8516   -0.1150 H   0  0  0  0  0  0  0  0  0  0  0  0
    5.8688    3.8288    1.0902 H   0  0  0  0  0  0  0  0  0  0  0  0
    7.9653    2.5392    1.3107 H   0  0  0  0  0  0  0  0  0  0  0  0
    9.3658    0.8788    0.4164 H   0  0  0  0  0  0  0  0  0  0  0  0
    8.7321   -0.5317   -0.4798 H   0  0  0  0  0  0  0  0  0  0  0  0
    8.9050   -0.1234    2.4119 H   0  0  0  0  0  0  0  0  0  0  0  0
    7.7969   -1.2801    1.7572 H   0  0  0  0  0  0  0  0  0  0  0  0
    6.1975   -0.6438   -0.8877 H   0  0  0  0  0  0  0  0  0  0  0  0
    2.3281    1.5210   -0.2209 H   0  0  0  0  0  0  0  0  0  0  0  0
    0.6616   -4.7983    0.5714 H   0  0  0  0  0  0  0  0  0  0  0  0
    1.5123   -3.2181    0.6953 H   0  0  0  0  0  0  0  0  0  0  0  0
    2.2858   -4.5873    2.4758 H   0  0  0  0  0  0  0  0  0  0  0  0
    1.3132   -3.1982    3.0863 H   0  0  0  0  0  0  0  0  0  0  0  0
    0.8795   -5.9998    3.3544 H   0  0  0  0  0  0  0  0  0  0  0  0
   -0.6552   -5.9109    1.4951 H   0  0  0  0  0  0  0  0  0  0  0  0
   -1.5151   -5.9423    3.1104 H   0  0  0  0  0  0  0  0  0  0  0  0
   -1.8188   -3.4978    3.0084 H   0  0  0  0  0  0  0  0  0  0  0  0
   -2.4146   -4.2451    1.4583 H   0  0  0  0  0  0  0  0  0  0  0  0
   -5.9441    0.4330   -1.0927 H   0  0  0  0  0  0  0  0  0  0  0  0
  1  2  1  0
  2  3  1  0
  2  4  1  0
  4  5  2  0
  5  6  1  0
  6  7  2  0
  7  8  1  0
  8  9  2  0
  8 10  1  0
  7 11  1  0
 11 12  1  0
 12 13  1  0
 13 14  2  0
 14 15  1  0
 15 16  1  0
 16 17  1  0
 17 18  2  0
 18 19  1  0
 19 20  2  0
 20 21  1  0
 21 22  1  0
 22 23  2  0
 23 24  1  0
 24 25  2  0
 25 26  1  0
 26 27  1  0
 27 28  1  0
 26 29  2  0
 21 30  2  0
 15 31  2  0
 31 32  1  0
 31 33  1  0
 33 34  1  0
 34 35  1  0
 35 36  1  0
 36 37  1  0
 37 38  1  0
 38 39  1  0
 33 40  2  0
 40 41  1  0
 11 42  2  0
 42  4  1  0
 40 13  1  0
 30 17  1  0
 39 34  1  0
 29 22  1  0
  1 43  1  0
  1 44  1  0
  1 45  1  0
  3 46  1  0
  3 47  1  0
  3 48  1  0
  5 49  1  0
  6 50  1  0
 10 51  1  0
 18 52  1  0
 19 53  1  0
 20 54  1  0
 23 55  1  0
 24 56  1  0
 25 57  1  0
 27 58  1  0
 27 59  1  0
 28 60  1  0
 28 61  1  0
 29 62  1  0
 30 63  1  0
 35 64  1  0
 35 65  1  0
 36 66  1  0
 36 67  1  0
 37 68  1  0
 38 69  1  0
 38 70  1  0
 39 71  1  0
 39 72  1  0
 42 73  1  0
M  END
$$$$
