@<TRIPOS>MOLECULE
*****
 73 77 0 0 0
SMALL
GASTEIGER

@<TRIPOS>ATOM
      1 C          -7.6296    3.8092   -2.6473 C.3     1  UNL1        0.0004
      2 N          -7.1141    2.5531   -2.1804 N.pl3   1  UNL1       -0.3359
      3 C          -7.6503    1.3060   -2.6876 C.3     1  UNL1        0.0004
      4 C          -6.0587    2.5369   -1.2078 C.ar    1  UNL1        0.0327
      5 C          -5.5399    3.7351   -0.7357 C.ar    1  UNL1       -0.0397
      6 C          -4.5375    3.7060    0.1907 C.ar    1  UNL1       -0.0424
      7 C          -4.0081    2.5255    0.6872 C.ar    1  UNL1        0.1011
      8 C          -3.0000    2.5607    1.7159 C.2     1  UNL1        0.3404
      9 O          -2.4966    1.5977    2.3209 O.2     1  UNL1       -0.2450
     10 O          -2.5098    3.8295    2.1000 O.3     1  UNL1       -0.4770
     11 C          -4.5064    1.3193    0.2305 C.ar    1  UNL1        0.1462
     12 O          -4.0190    0.0965    0.6861 O.3     1  UNL1       -0.4347
     13 C          -2.7111   -0.3175    0.3889 C.ar    1  UNL1        0.2617
     14 N          -1.8882    0.3812   -0.3905 N.ar    1  UNL1       -0.1721
     15 C          -0.6490   -0.0446   -0.6508 C.ar    1  UNL1        0.2617
     16 O           0.1359    0.7295   -1.4670 O.3     1  UNL1       -0.4355
     17 C           1.4252    0.3687   -1.7641 C.ar    1  UNL1        0.1310
     18 C           1.6838   -0.4878   -2.8013 C.ar    1  UNL1       -0.0192
     19 C           2.9744   -0.8727   -3.1339 C.ar    1  UNL1       -0.0577
     20 C           4.0349   -0.3609   -2.3766 C.ar    1  UNL1       -0.0538
     21 C           3.8107    0.5037   -1.3248 C.ar    1  UNL1       -0.0144
     22 C           4.9477    1.0284   -0.5952 C.ar    1  UNL1       -0.0175
     23 C           4.8886    2.2910   -0.0235 C.ar    1  UNL1       -0.0540
     24 C           5.9495    2.8359    0.6532 C.ar    1  UNL1       -0.0609
     25 C           7.1135    2.1149    0.7734 C.ar    1  UNL1       -0.0573
     26 C           7.2228    0.8349    0.2137 C.ar    1  UNL1       -0.0332
     27 C           8.5047    0.1490    0.3874 C.3     1  UNL1        0.0186
     28 N           8.5962   -0.6455    1.5866 N.3     1  UNL1       -0.3261
     29 C           6.1315    0.3450   -0.4482 C.ar    1  UNL1       -0.0496
     30 C           2.5099    0.8408   -1.0512 C.ar    1  UNL1       -0.0116
     31 C          -0.1939   -1.2563   -0.0938 C.ar    1  UNL1        0.2089
     32 F           1.0500   -1.5793   -0.4226 F       1  UNL1       -0.1978
     33 C          -0.9915   -2.0106    0.7087 C.ar    1  UNL1        0.1118
     34 N          -0.5644   -3.2280    1.2840 N.pl3   1  UNL1       -0.3228
     35 C           0.7294   -3.8336    1.1479 C.3     1  UNL1        0.0249
     36 C           1.2422   -4.1613    2.5632 C.3     1  UNL1        0.0117
     37 N           0.3546   -5.1045    3.1701 N.3     1  UNL1       -0.3130
     38 C          -0.8598   -5.3312    2.4260 C.3     1  UNL1        0.0117
     39 C          -1.5139   -4.0145    2.1056 C.3     1  UNL1        0.0249
     40 C          -2.2661   -1.5085    0.9378 C.ar    1  UNL1        0.2089
     41 F          -3.1323   -2.1795    1.7342 F       1  UNL1       -0.1978
     42 C          -5.5315    1.3626   -0.7151 C.ar    1  UNL1        0.0026
     43 H          -8.2152    4.3204   -1.8478 H       1  UNL1        0.0428
     44 H          -8.2943    3.6221   -3.5184 H       1  UNL1        0.0428
     45 H          -6.8234    4.5161   -2.9347 H       1  UNL1        0.0428
     46 H          -7.9867    0.6117   -1.9194 H       1  UNL1        0.0428
     47 H          -6.8452    0.8064   -3.2784 H       1  UNL1        0.0428
     48 H          -8.4726    1.4937   -3.4134 H       1  UNL1        0.0428
     49 H          -5.9399    4.6896   -1.1119 H       1  UNL1        0.0636
     50 H          -4.1269    4.6508    0.5632 H       1  UNL1        0.0627
     51 H          -1.7475    3.9378    2.7563 H       1  UNL1        0.2954
     52 H           0.8935   -0.9226   -3.4233 H       1  UNL1        0.0654
     53 H           3.1607   -1.5489   -3.9545 H       1  UNL1        0.0619
     54 H           5.0150   -0.6777   -2.6581 H       1  UNL1        0.0624
     55 H           3.9846    2.8516   -0.1150 H       1  UNL1        0.0624
     56 H           5.8688    3.8288    1.0902 H       1  UNL1        0.0618
     57 H           7.9653    2.5392    1.3107 H       1  UNL1        0.0621
     58 H           9.3658    0.8788    0.4164 H       1  UNL1        0.0471
     59 H           8.7321   -0.5317   -0.4798 H       1  UNL1        0.0471
     60 H           8.9050   -0.1234    2.4119 H       1  UNL1        0.1185
     61 H           7.7969   -1.2801    1.7572 H       1  UNL1        0.1185
     62 H           6.1975   -0.6438   -0.8877 H       1  UNL1        0.0627
     63 H           2.3281    1.5210   -0.2209 H       1  UNL1        0.0660
     64 H           0.6616   -4.7983    0.5714 H       1  UNL1        0.0476
     65 H           1.5123   -3.2181    0.6953 H       1  UNL1        0.0476
     66 H           2.2858   -4.5873    2.4758 H       1  UNL1        0.0439
     67 H           1.3132   -3.1982    3.0863 H       1  UNL1        0.0439
     68 H           0.8795   -5.9998    3.3544 H       1  UNL1        0.1220
     69 H          -0.6552   -5.9109    1.4951 H       1  UNL1        0.0439
     70 H          -1.5151   -5.9423    3.1104 H       1  UNL1        0.0439
     71 H          -1.8188   -3.4978    3.0084 H       1  UNL1        0.0476
     72 H          -2.4146   -4.2451    1.4583 H       1  UNL1        0.0476
     73 H          -5.9441    0.4330   -1.0927 H       1  UNL1        0.0673
@<TRIPOS>BOND
     1     1     2    1
     2     2     3    1
     3     2     4    1
     4     4     5   ar
     5     5     6   ar
     6     6     7   ar
     7     7     8    1
     8     8     9    2
     9     8    10    1
    10     7    11   ar
    11    11    12    1
    12    12    13    1
    13    13    14   ar
    14    14    15   ar
    15    15    16    1
    16    16    17    1
    17    17    18   ar
    18    18    19   ar
    19    19    20   ar
    20    20    21   ar
    21    21    22    1
    22    22    23   ar
    23    23    24   ar
    24    24    25   ar
    25    25    26   ar
    26    26    27    1
    27    27    28    1
    28    26    29   ar
    29    21    30   ar
    30    15    31   ar
    31    31    32    1
    32    31    33   ar
    33    33    34    1
    34    34    35    1
    35    35    36    1
    36    36    37    1
    37    37    38    1
    38    38    39    1
    39    33    40   ar
    40    40    41    1
    41    11    42   ar
    42    42     4   ar
    43    40    13   ar
    44    30    17   ar
    45    39    34    1
    46    29    22   ar
    47     1    43    1
    48     1    44    1
    49     1    45    1
    50     3    46    1
    51     3    47    1
    52     3    48    1
    53     5    49    1
    54     6    50    1
    55    10    51    1
    56    18    52    1
    57    19    53    1
    58    20    54    1
    59    23    55    1
    60    24    56    1
    61    25    57    1
    62    27    58    1
    63    27    59    1
    64    28    60    1
    65    28    61    1
    66    29    62    1
    67    30    63    1
    68    35    64    1
    69    35    65    1
    70    36    66    1
    71    36    67    1
    72    37    68    1
    73    38    69    1
    74    38    70    1
    75    39    71    1
    76    39    72    1
    77    42    73    1
