@<TRIPOS>MOLECULE
*****
 61 63 0 0 0
SMALL
GASTEIGER

@<TRIPOS>ATOM
      1 C          -7.9456   -1.3725   -1.5603 C.3     1  UNL1       -0.0638
      2 C          -6.8514   -0.3566   -1.8494 C.3     1  UNL1       -0.0350
      3 C          -5.8083   -0.4034   -0.7718 C.3     1  UNL1        0.0817
      4 S          -4.5458    0.7916   -1.1325 S.O2    1  UNL1        0.0319
      5 O          -5.1146    2.1695   -1.2772 O.2     1  UNL1       -0.1580
      6 O          -3.9295    0.4339   -2.4583 O.2     1  UNL1       -0.1580
      7 N          -3.3107    0.7716    0.0954 N.3     1  UNL1       -0.1787
      8 C          -2.7291   -0.5411    0.0773 C.3     1  UNL1        0.0329
      9 C          -1.2550   -0.3973   -0.3430 C.3     1  UNL1        0.0139
     10 N          -0.6803    0.4694    0.6292 N.3     1  UNL1       -0.2927
     11 C           0.7803    0.2967    0.7398 C.3     1  UNL1        0.0375
     12 C           1.3493    0.5870   -0.5721 C.3     1  UNL1        0.0304
     13 N           2.7513    0.5554   -0.8277 N.am    1  UNL1       -0.3094
     14 C           3.6030   -0.5549   -0.8201 C.2     1  UNL1        0.2497
     15 O           3.1177   -1.7284   -0.5821 O.2     1  UNL1       -0.2700
     16 C           5.0373   -0.4919   -1.0675 C.ar    1  UNL1        0.1068
     17 C           5.7606   -1.6969   -1.1118 C.ar    1  UNL1        0.1383
     18 F           5.1000   -2.8749   -0.9314 F       1  UNL1       -0.2046
     19 C           7.1209   -1.7476   -1.3321 C.ar    1  UNL1       -0.0255
     20 C           7.8336   -0.5983   -1.5201 C.ar    1  UNL1       -0.0563
     21 C           7.1803    0.5915   -1.4861 C.ar    1  UNL1       -0.0255
     22 C           5.7936    0.6165   -1.2598 C.ar    1  UNL1        0.1383
     23 F           5.2611    1.8334   -1.2392 F       1  UNL1       -0.2046
     24 C           1.2646    1.2757    1.8032 C.3     1  UNL1       -0.0330
     25 C           0.7910    0.8130    3.1574 C.3     1  UNL1       -0.0513
     26 C           1.6961   -0.3356    3.5868 C.3     1  UNL1       -0.0529
     27 C           2.0486   -1.1519    2.3479 C.3     1  UNL1       -0.0513
     28 C           0.9353   -1.0660    1.3224 C.3     1  UNL1       -0.0330
     29 C          -1.1246    1.8075    0.6168 C.3     1  UNL1        0.0139
     30 C          -2.4238    1.8481   -0.1953 C.3     1  UNL1        0.0329
     31 H          -8.0672   -1.4897   -0.4733 H       1  UNL1        0.0230
     32 H          -7.6207   -2.3444   -1.9893 H       1  UNL1        0.0230
     33 H          -8.9033   -1.0334   -2.0108 H       1  UNL1        0.0230
     34 H          -6.4273   -0.6270   -2.8484 H       1  UNL1        0.0279
     35 H          -7.2619    0.6649   -1.9583 H       1  UNL1        0.0279
     36 H          -5.3725   -1.4154   -0.6983 H       1  UNL1        0.0515
     37 H          -6.2701   -0.1437    0.1837 H       1  UNL1        0.0515
     38 H          -3.2592   -1.2706   -0.5410 H       1  UNL1        0.0456
     39 H          -2.6825   -0.8821    1.1508 H       1  UNL1        0.0456
     40 H          -0.8050   -1.4030   -0.2487 H       1  UNL1        0.0440
     41 H          -1.2051   -0.0026   -1.3871 H       1  UNL1        0.0440
     42 H           0.8106   -0.1233   -1.3100 H       1  UNL1        0.0480
     43 H           0.9832    1.6170   -0.8969 H       1  UNL1        0.0480
     44 H           3.2583    1.4816   -1.0659 H       1  UNL1        0.1491
     45 H           7.6617   -2.6840   -1.3633 H       1  UNL1        0.0646
     46 H           8.9013   -0.6251   -1.6940 H       1  UNL1        0.0619
     47 H           7.7317    1.4988   -1.6330 H       1  UNL1        0.0646
     48 H           1.0181    2.3126    1.5735 H       1  UNL1        0.0284
     49 H           2.3796    1.2053    1.8100 H       1  UNL1        0.0284
     50 H           0.8440    1.6224    3.9134 H       1  UNL1        0.0266
     51 H          -0.2445    0.4131    3.1224 H       1  UNL1        0.0266
     52 H           2.6477    0.0634    3.9914 H       1  UNL1        0.0265
     53 H           1.1466   -0.9221    4.3308 H       1  UNL1        0.0265
     54 H           2.0816   -2.2104    2.6766 H       1  UNL1        0.0266
     55 H           3.0329   -0.8726    1.9893 H       1  UNL1        0.0266
     56 H           0.9432   -1.9154    0.6686 H       1  UNL1        0.0284
     57 H           0.0033   -1.2953    1.9952 H       1  UNL1        0.0284
     58 H          -0.4663    2.5559    0.1803 H       1  UNL1        0.0440
     59 H          -1.4461    2.0753    1.6641 H       1  UNL1        0.0440
     60 H          -2.1896    1.8884   -1.2713 H       1  UNL1        0.0456
     61 H          -2.9277    2.7928    0.1017 H       1  UNL1        0.0456
@<TRIPOS>BOND
     1     1     2    1
     2     2     3    1
     3     3     4    1
     4     4     5    2
     5     4     6    2
     6     4     7    1
     7     7     8    1
     8     8     9    1
     9     9    10    1
    10    10    11    1
    11    11    12    1
    12    12    13    1
    13    13    14   am
    14    14    15    2
    15    14    16    1
    16    16    17   ar
    17    17    18    1
    18    17    19   ar
    19    19    20   ar
    20    20    21   ar
    21    21    22   ar
    22    22    23    1
    23    11    24    1
    24    24    25    1
    25    25    26    1
    26    26    27    1
    27    27    28    1
    28    10    29    1
    29    29    30    1
    30    30     7    1
    31    28    11    1
    32    22    16   ar
    33     1    31    1
    34     1    32    1
    35     1    33    1
    36     2    34    1
    37     2    35    1
    38     3    36    1
    39     3    37    1
    40     8    38    1
    41     8    39    1
    42     9    40    1
    43     9    41    1
    44    12    42    1
    45    12    43    1
    46    13    44    1
    47    19    45    1
    48    20    46    1
    49    21    47    1
    50    24    48    1
    51    24    49    1
    52    25    50    1
    53    25    51    1
    54    26    52    1
    55    26    53    1
    56    27    54    1
    57    27    55    1
    58    28    56    1
    59    28    57    1
    60    29    58    1
    61    29    59    1
    62    30    60    1
    63    30    61    1
