@<TRIPOS>MOLECULE
*****
 70 74 0 0 0
SMALL
GASTEIGER

@<TRIPOS>ATOM
      1 C           1.1845   -3.5404   -2.8088 C.3     1  UNL1       -0.0650
      2 C           1.6247   -3.0630   -1.4305 C.3     1  UNL1       -0.0518
      3 C           1.3852   -1.5930   -1.2571 C.3     1  UNL1       -0.0239
      4 C           1.8067   -1.1337    0.0590 C.ar    1  UNL1        0.0020
      5 C           0.9930   -1.3660    1.1484 C.ar    1  UNL1        0.1242
      6 O          -0.2509   -2.0418    1.1151 O.3     1  UNL1       -0.4916
      7 C          -0.9794   -2.2219    2.3084 C.3     1  UNL1        0.0927
      8 C          -2.2051   -3.0119    2.0944 C.3     1  UNL1        0.0157
      9 C          -3.1781   -2.3802    1.1769 C.3     1  UNL1        0.0927
     10 O          -3.6018   -1.1336    1.6903 O.3     1  UNL1       -0.4918
     11 C          -4.5825   -0.3525    1.0831 C.ar    1  UNL1        0.1212
     12 C          -5.0172    0.8632    1.5386 C.ar    1  UNL1       -0.0108
     13 C          -6.0024    1.5683    0.8772 C.ar    1  UNL1        0.0033
     14 C          -6.5923    1.0888   -0.2625 C.ar    1  UNL1        0.0498
     15 C          -6.1967   -0.1434   -0.7829 C.ar    1  UNL1       -0.0341
     16 C          -5.1975   -0.8153   -0.0776 C.ar    1  UNL1       -0.0180
     17 N          -7.5346    1.9322   -0.7469 N.ar    1  UNL1       -0.3359
     18 C          -8.3764    1.7382   -1.9118 C.3     1  UNL1        0.1201
     19 C          -9.6619    1.0693   -1.5118 C.2     1  UNL1        0.3247
     20 O         -10.7533    0.3009   -1.1781 O.3     1  UNL1       -0.4794
     21 O         -10.5718    1.8792   -1.1889 O.2     1  UNL1       -0.2490
     22 C          -7.5227    2.9593    0.1186 C.ar    1  UNL1        0.0063
     23 C          -6.5872    2.7767    1.1433 C.ar    1  UNL1       -0.0363
     24 C           1.4473   -0.8968    2.3722 C.ar    1  UNL1       -0.0191
     25 C           2.6311   -0.2272    2.5974 C.ar    1  UNL1       -0.0505
     26 C           3.4326   -0.0107    1.4813 C.ar    1  UNL1       -0.0167
     27 C           3.0065   -0.4600    0.2699 C.ar    1  UNL1       -0.0112
     28 C           3.8732   -0.2396   -0.7808 C.ar    1  UNL1       -0.0530
     29 C           5.0953    0.3841   -0.6562 C.ar    1  UNL1       -0.0503
     30 C           5.5023    0.8289    0.5947 C.ar    1  UNL1        0.0228
     31 C           4.6460    0.6189    1.6483 C.ar    1  UNL1       -0.0432
     32 C           6.7953    1.4818    0.8710 C.2     1  UNL1        0.1932
     33 O           7.1555    1.4412    2.0883 O.2     1  UNL1       -0.2867
     34 C           7.6993    2.1539   -0.0652 C.ar    1  UNL1        0.0223
     35 C           7.4540    2.7736   -1.2834 C.ar    1  UNL1       -0.0509
     36 C           8.4400    3.3192   -2.0344 C.ar    1  UNL1       -0.0611
     37 C           9.7525    3.2934   -1.6368 C.ar    1  UNL1       -0.0617
     38 C          10.0269    2.6988   -0.4573 C.ar    1  UNL1       -0.0611
     39 C           9.0501    2.1426    0.3169 C.ar    1  UNL1       -0.0509
     40 H           0.2005   -3.1033   -3.0594 H       1  UNL1        0.0230
     41 H           2.0040   -3.2462   -3.4972 H       1  UNL1        0.0230
     42 H           1.0666   -4.6358   -2.7439 H       1  UNL1        0.0230
     43 H           1.1046   -3.6888   -0.6906 H       1  UNL1        0.0266
     44 H           2.7151   -3.2951   -1.3376 H       1  UNL1        0.0266
     45 H           1.7179   -0.9965   -2.1255 H       1  UNL1        0.0314
     46 H           0.2552   -1.4641   -1.2895 H       1  UNL1        0.0314
     47 H          -1.2979   -1.1885    2.6244 H       1  UNL1        0.0697
     48 H          -0.3789   -2.7092    3.1073 H       1  UNL1        0.0697
     49 H          -1.9526   -4.0395    1.7026 H       1  UNL1        0.0331
     50 H          -2.7078   -3.1637    3.0954 H       1  UNL1        0.0331
     51 H          -4.0478   -3.0414    0.9285 H       1  UNL1        0.0697
     52 H          -2.6765   -2.2136    0.1976 H       1  UNL1        0.0697
     53 H          -4.5784    1.2538    2.4221 H       1  UNL1        0.0661
     54 H          -6.6213   -0.5738   -1.6783 H       1  UNL1        0.0639
     55 H          -4.8526   -1.7907   -0.4528 H       1  UNL1        0.0655
     56 H          -7.8178    1.1088   -2.6588 H       1  UNL1        0.0607
     57 H          -8.6398    2.6722   -2.4254 H       1  UNL1        0.0607
     58 H         -10.6342   -0.4482   -0.4964 H       1  UNL1        0.2951
     59 H          -8.1932    3.8168   -0.0145 H       1  UNL1        0.0809
     60 H          -6.3782    3.4525    1.9636 H       1  UNL1        0.0639
     61 H           0.8192   -1.0650    3.2611 H       1  UNL1        0.0654
     62 H           2.9238    0.1119    3.5767 H       1  UNL1        0.0625
     63 H           3.6352   -0.5482   -1.7660 H       1  UNL1        0.0624
     64 H           5.7558    0.5339   -1.4922 H       1  UNL1        0.0625
     65 H           4.9003    0.9460    2.6561 H       1  UNL1        0.0631
     66 H           6.4190    2.7808   -1.5513 H       1  UNL1        0.0625
     67 H           8.1287    3.7788   -2.9683 H       1  UNL1        0.0618
     68 H          10.5157    3.7322   -2.2483 H       1  UNL1        0.0618
     69 H          11.0579    2.6657   -0.1248 H       1  UNL1        0.0618
     70 H           9.3673    1.6769    1.2584 H       1  UNL1        0.0625
@<TRIPOS>BOND
     1     1     2    1
     2     2     3    1
     3     3     4    1
     4     4     5   ar
     5     5     6    1
     6     6     7    1
     7     7     8    1
     8     8     9    1
     9     9    10    1
    10    10    11    1
    11    11    12   ar
    12    12    13   ar
    13    13    14   ar
    14    14    15   ar
    15    15    16   ar
    16    14    17   ar
    17    17    18    1
    18    18    19    1
    19    19    20    1
    20    19    21    2
    21    17    22   ar
    22    22    23   ar
    23     5    24   ar
    24    24    25   ar
    25    25    26   ar
    26    26    27   ar
    27    27    28   ar
    28    28    29   ar
    29    29    30   ar
    30    30    31   ar
    31    30    32    1
    32    32    33    2
    33    32    34    1
    34    34    35   ar
    35    35    36   ar
    36    36    37   ar
    37    37    38   ar
    38    38    39   ar
    39    27     4   ar
    40    39    34   ar
    41    16    11   ar
    42    31    26   ar
    43    23    13   ar
    44     1    40    1
    45     1    41    1
    46     1    42    1
    47     2    43    1
    48     2    44    1
    49     3    45    1
    50     3    46    1
    51     7    47    1
    52     7    48    1
    53     8    49    1
    54     8    50    1
    55     9    51    1
    56     9    52    1
    57    12    53    1
    58    15    54    1
    59    16    55    1
    60    18    56    1
    61    18    57    1
    62    20    58    1
    63    22    59    1
    64    23    60    1
    65    24    61    1
    66    25    62    1
    67    28    63    1
    68    29    64    1
    69    31    65    1
    70    35    66    1
    71    36    67    1
    72    37    68    1
    73    38    69    1
    74    39    70    1
