@<TRIPOS>MOLECULE
*****
 34 36 0 0 0
SMALL
GASTEIGER

@<TRIPOS>ATOM
      1 O           5.5672   -1.9046   -0.7497 O.2     1  UNL1       -0.2755
      2 C           4.7337   -1.1610   -0.1986 C.2     1  UNL1        0.2175
      3 C           5.2221    0.0517    0.5116 C.3     1  UNL1        0.0283
      4 C           4.4132    1.2477    0.1106 C.3     1  UNL1       -0.0177
      5 C           2.9754    0.9403    0.1601 C.ar    1  UNL1       -0.0255
      6 C           2.0904    2.0247    0.3868 C.ar    1  UNL1       -0.0534
      7 C           0.7521    1.7670    0.4002 C.ar    1  UNL1       -0.0195
      8 C           0.2002    0.5200    0.2077 C.ar    1  UNL1        0.1228
      9 O          -1.1563    0.3377    0.2343 O.3     1  UNL1       -0.4873
     10 C          -1.8333   -0.8659    0.0547 C.3     1  UNL1        0.1147
     11 C          -3.2902   -0.6055    0.1624 C.ar    1  UNL1       -0.0090
     12 C          -3.9255   -0.6870    1.3651 C.ar    1  UNL1       -0.0553
     13 C          -5.2922   -0.4335    1.4179 C.ar    1  UNL1       -0.0600
     14 C          -6.0070   -0.1049    0.2871 C.ar    1  UNL1       -0.0434
     15 C          -5.3580   -0.0241   -0.9270 C.ar    1  UNL1        0.0413
     16 CL         -6.2242    0.3899   -2.3911 Cl      1  UNL1       -0.0835
     17 C          -3.9861   -0.2785   -0.9805 C.ar    1  UNL1       -0.0370
     18 C           1.0895   -0.5051   -0.0081 C.ar    1  UNL1        0.0016
     19 C           2.4794   -0.3147   -0.0347 C.ar    1  UNL1        0.0400
     20 N           3.3267   -1.4371   -0.2274 N.am    1  UNL1       -0.2851
     21 H           6.2784    0.2103    0.2245 H       1  UNL1        0.0362
     22 H           5.1265   -0.0658    1.6096 H       1  UNL1        0.0362
     23 H           4.6776    2.1346    0.7311 H       1  UNL1        0.0318
     24 H           4.7459    1.4786   -0.9508 H       1  UNL1        0.0318
     25 H           2.5473    2.9898    0.5346 H       1  UNL1        0.0622
     26 H           0.0858    2.6080    0.5751 H       1  UNL1        0.0654
     27 H          -1.6377   -1.2263   -0.9762 H       1  UNL1        0.0748
     28 H          -1.5178   -1.6652    0.7556 H       1  UNL1        0.0748
     29 H          -3.3711   -0.9425    2.2457 H       1  UNL1        0.0621
     30 H          -5.8128   -0.4917    2.3531 H       1  UNL1        0.0618
     31 H          -7.0679    0.0964    0.3013 H       1  UNL1        0.0632
     32 H          -3.5042   -0.2067   -1.9523 H       1  UNL1        0.0636
     33 H           0.7332   -1.5023   -0.1656 H       1  UNL1        0.0673
     34 H           2.9398   -2.3743   -0.3771 H       1  UNL1        0.1548
@<TRIPOS>BOND
     1     1     2    2
     2     2     3    1
     3     3     4    1
     4     4     5    1
     5     5     6   ar
     6     6     7   ar
     7     7     8   ar
     8     8     9    1
     9     9    10    1
    10    10    11    1
    11    11    12   ar
    12    12    13   ar
    13    13    14   ar
    14    14    15   ar
    15    15    16    1
    16    15    17   ar
    17     8    18   ar
    18    18    19   ar
    19    19    20    1
    20    20     2   am
    21    19     5   ar
    22    17    11   ar
    23     3    21    1
    24     3    22    1
    25     4    23    1
    26     4    24    1
    27     6    25    1
    28     7    26    1
    29    10    27    1
    30    10    28    1
    31    12    29    1
    32    13    30    1
    33    14    31    1
    34    17    32    1
    35    18    33    1
    36    20    34    1
