
     RDKit          3D

 34 36  0  0  0  0  0  0  0  0999 V2000
    5.5672   -1.9046   -0.7497 O   0  0  0  0  0  0  0  0  0  0  0  0
    4.7337   -1.1610   -0.1986 C   0  0  0  0  0  0  0  0  0  0  0  0
    5.2221    0.0517    0.5116 C   0  0  0  0  0  0  0  0  0  0  0  0
    4.4132    1.2477    0.1106 C   0  0  0  0  0  0  0  0  0  0  0  0
    2.9754    0.9403    0.1601 C   0  0  0  0  0  0  0  0  0  0  0  0
    2.0904    2.0247    0.3868 C   0  0  0  0  0  0  0  0  0  0  0  0
    0.7521    1.7670    0.4002 C   0  0  0  0  0  0  0  0  0  0  0  0
    0.2002    0.5200    0.2077 C   0  0  0  0  0  0  0  0  0  0  0  0
   -1.1563    0.3377    0.2343 O   0  0  0  0  0  0  0  0  0  0  0  0
   -1.8333   -0.8659    0.0547 C   0  0  0  0  0  0  0  0  0  0  0  0
   -3.2902   -0.6055    0.1624 C   0  0  0  0  0  0  0  0  0  0  0  0
   -3.9255   -0.6870    1.3651 C   0  0  0  0  0  0  0  0  0  0  0  0
   -5.2922   -0.4335    1.4179 C   0  0  0  0  0  0  0  0  0  0  0  0
   -6.0070   -0.1049    0.2871 C   0  0  0  0  0  0  0  0  0  0  0  0
   -5.3580   -0.0241   -0.9270 C   0  0  0  0  0  0  0  0  0  0  0  0
   -6.2242    0.3899   -2.3911 Cl  0  0  0  0  0  0  0  0  0  0  0  0
   -3.9861   -0.2785   -0.9805 C   0  0  0  0  0  0  0  0  0  0  0  0
    1.0895   -0.5051   -0.0081 C   0  0  0  0  0  0  0  0  0  0  0  0
    2.4794   -0.3147   -0.0347 C   0  0  0  0  0  0  0  0  0  0  0  0
    3.3267   -1.4371   -0.2274 N   0  0  0  0  0  0  0  0  0  0  0  0
    6.2784    0.2103    0.2245 H   0  0  0  0  0  0  0  0  0  0  0  0
    5.1265   -0.0658    1.6096 H   0  0  0  0  0  0  0  0  0  0  0  0
    4.6776    2.1346    0.7311 H   0  0  0  0  0  0  0  0  0  0  0  0
    4.7459    1.4786   -0.9508 H   0  0  0  0  0  0  0  0  0  0  0  0
    2.5473    2.9898    0.5346 H   0  0  0  0  0  0  0  0  0  0  0  0
    0.0858    2.6080    0.5751 H   0  0  0  0  0  0  0  0  0  0  0  0
   -1.6377   -1.2263   -0.9762 H   0  0  0  0  0  0  0  0  0  0  0  0
   -1.5178   -1.6652    0.7556 H   0  0  0  0  0  0  0  0  0  0  0  0
   -3.3711   -0.9425    2.2457 H   0  0  0  0  0  0  0  0  0  0  0  0
   -5.8128   -0.4917    2.3531 H   0  0  0  0  0  0  0  0  0  0  0  0
   -7.0679    0.0964    0.3013 H   0  0  0  0  0  0  0  0  0  0  0  0
   -3.5042   -0.2067   -1.9523 H   0  0  0  0  0  0  0  0  0  0  0  0
    0.7332   -1.5023   -0.1656 H   0  0  0  0  0  0  0  0  0  0  0  0
    2.9398   -2.3743   -0.3771 H   0  0  0  0  0  0  0  0  0  0  0  0
  1  2  2  0
  2  3  1  0
  3  4  1  0
  4  5  1  0
  5  6  2  0
  6  7  1  0
  7  8  2  0
  8  9  1  0
  9 10  1  0
 10 11  1  0
 11 12  2  0
 12 13  1  0
 13 14  2  0
 14 15  1  0
 15 16  1  0
 15 17  2  0
  8 18  1  0
 18 19  2  0
 19 20  1  0
 20  2  1  0
 19  5  1  0
 17 11  1  0
  3 21  1  0
  3 22  1  0
  4 23  1  0
  4 24  1  0
  6 25  1  0
  7 26  1  0
 10 27  1  0
 10 28  1  0
 12 29  1  0
 13 30  1  0
 14 31  1  0
 17 32  1  0
 18 33  1  0
 20 34  1  0
M  END
$$$$
