
     RDKit          3D

 60 63  0  0  0  0  0  0  0  0999 V2000
    0.4663    5.7120    1.9874 C   0  0  0  0  0  0  0  0  0  0  0  0
    1.7965    5.1595    1.5511 C   0  0  0  0  0  0  0  0  0  0  0  0
    1.6457    4.1779    0.5408 O   0  0  0  0  0  0  0  0  0  0  0  0
    0.9138    3.0227    0.7735 C   0  0  0  0  0  0  0  0  0  0  0  0
    0.3954    2.8889    1.9107 O   0  0  0  0  0  0  0  0  0  0  0  0
    0.7573    1.9774   -0.3101 C   0  0  0  0  0  0  0  0  0  0  0  0
    0.0941    2.6475   -1.4232 C   0  0  0  0  0  0  0  0  0  0  0  0
    0.6934    3.9235   -1.9774 C   0  0  0  0  0  0  0  0  0  0  0  0
   -0.9707    2.2034   -1.9510 N   0  0  0  0  0  0  0  0  0  0  0  0
   -1.5847    1.0170   -1.4852 C   0  0  0  0  0  0  0  0  0  0  0  0
   -2.7345    0.5559   -2.0601 N   0  0  0  0  0  0  0  0  0  0  0  0
   -3.3712   -0.5600   -1.6625 C   0  0  0  0  0  0  0  0  0  0  0  0
   -2.8979   -1.3303   -0.6271 C   0  0  0  0  0  0  0  0  0  0  0  0
   -1.7202   -0.8845   -0.0161 C   0  0  0  0  0  0  0  0  0  0  0  0
   -1.2282   -1.6622    1.0432 N   0  0  0  0  0  0  0  0  0  0  0  0
   -1.0788    0.2726   -0.4443 C   0  0  0  0  0  0  0  0  0  0  0  0
    0.1654    0.7293    0.2053 C   0  0  0  0  0  0  0  0  0  0  0  0
    1.2126   -0.3318    0.2594 C   0  0  0  0  0  0  0  0  0  0  0  0
    1.8962   -0.6723   -0.8890 C   0  0  0  0  0  0  0  0  0  0  0  0
    2.8745   -1.6286   -0.9047 C   0  0  0  0  0  0  0  0  0  0  0  0
    3.1977   -2.2821    0.2621 C   0  0  0  0  0  0  0  0  0  0  0  0
    4.1750   -3.2623    0.3327 O   0  0  0  0  0  0  0  0  0  0  0  0
    4.9366   -3.6974   -0.7550 C   0  0  0  0  0  0  0  0  0  0  0  0
    2.5237   -1.9593    1.4403 C   0  0  0  0  0  0  0  0  0  0  0  0
    2.8653   -2.6301    2.6043 O   0  0  0  0  0  0  0  0  0  0  0  0
    2.1931   -2.3179    3.8116 C   0  0  0  0  0  0  0  0  0  0  0  0
    1.5322   -0.9807    1.4237 C   0  0  0  0  0  0  0  0  0  0  0  0
   -3.5562   -2.5698   -0.1479 C   0  0  0  0  0  0  0  0  0  0  0  0
   -4.0712   -3.2474   -1.4269 C   0  0  0  0  0  0  0  0  0  0  0  0
   -5.0576   -2.3576   -2.1276 C   0  0  0  0  0  0  0  0  0  0  0  0
   -4.6106   -0.9631   -2.3585 C   0  0  0  0  0  0  0  0  0  0  0  0
   -0.3380    5.0758    1.5237 H   0  0  0  0  0  0  0  0  0  0  0  0
    0.3592    6.7245    1.5984 H   0  0  0  0  0  0  0  0  0  0  0  0
    0.3687    5.6399    3.0837 H   0  0  0  0  0  0  0  0  0  0  0  0
    2.4194    5.9691    1.1683 H   0  0  0  0  0  0  0  0  0  0  0  0
    2.2866    4.6264    2.4062 H   0  0  0  0  0  0  0  0  0  0  0  0
    1.8277    1.7963   -0.6511 H   0  0  0  0  0  0  0  0  0  0  0  0
    1.7800    3.8144   -1.8847 H   0  0  0  0  0  0  0  0  0  0  0  0
    0.3158    4.7353   -1.3353 H   0  0  0  0  0  0  0  0  0  0  0  0
    0.3654    4.0314   -3.0487 H   0  0  0  0  0  0  0  0  0  0  0  0
   -1.2838   -1.2801    2.0084 H   0  0  0  0  0  0  0  0  0  0  0  0
   -0.8081   -2.6059    0.9294 H   0  0  0  0  0  0  0  0  0  0  0  0
   -0.1454    0.9385    1.2815 H   0  0  0  0  0  0  0  0  0  0  0  0
    1.6513   -0.1660   -1.8116 H   0  0  0  0  0  0  0  0  0  0  0  0
    3.3953   -1.8794   -1.8088 H   0  0  0  0  0  0  0  0  0  0  0  0
    5.7865   -3.0121   -0.8714 H   0  0  0  0  0  0  0  0  0  0  0  0
    5.3249   -4.7344   -0.6104 H   0  0  0  0  0  0  0  0  0  0  0  0
    4.2811   -3.7062   -1.6683 H   0  0  0  0  0  0  0  0  0  0  0  0
    2.1810   -1.2212    3.9832 H   0  0  0  0  0  0  0  0  0  0  0  0
    1.1507   -2.6593    3.7149 H   0  0  0  0  0  0  0  0  0  0  0  0
    2.6861   -2.8450    4.6648 H   0  0  0  0  0  0  0  0  0  0  0  0
    1.0433   -0.7617    2.3537 H   0  0  0  0  0  0  0  0  0  0  0  0
   -2.8359   -3.2919    0.2848 H   0  0  0  0  0  0  0  0  0  0  0  0
   -4.3454   -2.4114    0.5863 H   0  0  0  0  0  0  0  0  0  0  0  0
   -4.5423   -4.2041   -1.1983 H   0  0  0  0  0  0  0  0  0  0  0  0
   -3.1851   -3.3526   -2.0895 H   0  0  0  0  0  0  0  0  0  0  0  0
   -6.0277   -2.3208   -1.5510 H   0  0  0  0  0  0  0  0  0  0  0  0
   -5.2853   -2.8553   -3.1072 H   0  0  0  0  0  0  0  0  0  0  0  0
   -5.3929   -0.2127   -2.0619 H   0  0  0  0  0  0  0  0  0  0  0  0
   -4.4864   -0.7815   -3.4683 H   0  0  0  0  0  0  0  0  0  0  0  0
  1  2  1  0
  2  3  1  0
  3  4  1  0
  4  5  2  0
  4  6  1  0
  6  7  1  0
  7  8  1  0
  7  9  2  0
  9 10  1  0
 10 11  2  0
 11 12  1  0
 12 13  2  0
 13 14  1  0
 14 15  1  0
 14 16  2  0
 16 17  1  0
 17 18  1  0
 18 19  2  0
 19 20  1  0
 20 21  2  0
 21 22  1  0
 22 23  1  0
 21 24  1  0
 24 25  1  0
 25 26  1  0
 24 27  2  0
 13 28  1  0
 28 29  1  0
 29 30  1  0
 30 31  1  0
 17  6  1  0
 27 18  1  0
 16 10  1  0
 31 12  1  0
  1 32  1  0
  1 33  1  0
  1 34  1  0
  2 35  1  0
  2 36  1  0
  6 37  1  0
  8 38  1  0
  8 39  1  0
  8 40  1  0
 15 41  1  0
 15 42  1  0
 17 43  1  0
 19 44  1  0
 20 45  1  0
 23 46  1  0
 23 47  1  0
 23 48  1  0
 26 49  1  0
 26 50  1  0
 26 51  1  0
 27 52  1  0
 28 53  1  0
 28 54  1  0
 29 55  1  0
 29 56  1  0
 30 57  1  0
 30 58  1  0
 31 59  1  0
 31 60  1  0
M  END
$$$$
