@<TRIPOS>MOLECULE
*****
 60 63 0 0 0
SMALL
GASTEIGER

@<TRIPOS>ATOM
      1 C           0.4663    5.7120    1.9874 C.3     1  UNL1       -0.0306
      2 C           1.7965    5.1595    1.5511 C.3     1  UNL1        0.0897
      3 O           1.6457    4.1779    0.5408 O.3     1  UNL1       -0.4644
      4 C           0.9138    3.0227    0.7735 C.2     1  UNL1        0.3167
      5 O           0.3954    2.8889    1.9107 O.2     1  UNL1       -0.2501
      6 C           0.7573    1.9774   -0.3101 C.3     1  UNL1        0.1052
      7 C           0.0941    2.6475   -1.4232 C.2     1  UNL1        0.0328
      8 C           0.6934    3.9235   -1.9774 C.3     1  UNL1       -0.0254
      9 N          -0.9707    2.2034   -1.9510 N.2     1  UNL1       -0.2362
     10 C          -1.5847    1.0170   -1.4852 C.ar    1  UNL1        0.1583
     11 N          -2.7345    0.5559   -2.0601 N.ar    1  UNL1       -0.2322
     12 C          -3.3712   -0.5600   -1.6625 C.ar    1  UNL1        0.0486
     13 C          -2.8979   -1.3303   -0.6271 C.ar    1  UNL1       -0.0050
     14 C          -1.7202   -0.8845   -0.0161 C.ar    1  UNL1        0.0369
     15 N          -1.2282   -1.6622    1.0432 N.pl3   1  UNL1       -0.3574
     16 C          -1.0788    0.2726   -0.4443 C.ar    1  UNL1        0.0261
     17 C           0.1654    0.7293    0.2053 C.3     1  UNL1        0.0327
     18 C           1.2126   -0.3318    0.2594 C.ar    1  UNL1       -0.0350
     19 C           1.8962   -0.6723   -0.8890 C.ar    1  UNL1       -0.0543
     20 C           2.8745   -1.6286   -0.9047 C.ar    1  UNL1       -0.0160
     21 C           3.1977   -2.2821    0.2621 C.ar    1  UNL1        0.1615
     22 O           4.1750   -3.2623    0.3327 O.3     1  UNL1       -0.4915
     23 C           4.9366   -3.6974   -0.7550 C.3     1  UNL1        0.0790
     24 C           2.5237   -1.9593    1.4403 C.ar    1  UNL1        0.1618
     25 O           2.8653   -2.6301    2.6043 O.3     1  UNL1       -0.4914
     26 C           2.1931   -2.3179    3.8116 C.3     1  UNL1        0.0790
     27 C           1.5322   -0.9807    1.4237 C.ar    1  UNL1       -0.0125
     28 C          -3.5562   -2.5698   -0.1479 C.3     1  UNL1       -0.0242
     29 C          -4.0712   -3.2474   -1.4269 C.3     1  UNL1       -0.0486
     30 C          -5.0576   -2.3576   -2.1276 C.3     1  UNL1       -0.0473
     31 C          -4.6106   -0.9631   -2.3585 C.3     1  UNL1       -0.0100
     32 H          -0.3380    5.0758    1.5237 H       1  UNL1        0.0262
     33 H           0.3592    6.7245    1.5984 H       1  UNL1        0.0262
     34 H           0.3687    5.6399    3.0837 H       1  UNL1        0.0262
     35 H           2.4194    5.9691    1.1683 H       1  UNL1        0.0694
     36 H           2.2866    4.6264    2.4062 H       1  UNL1        0.0694
     37 H           1.8277    1.7963   -0.6511 H       1  UNL1        0.0484
     38 H           1.7800    3.8144   -1.8847 H       1  UNL1        0.0290
     39 H           0.3158    4.7353   -1.3353 H       1  UNL1        0.0290
     40 H           0.3654    4.0314   -3.0487 H       1  UNL1        0.0290
     41 H          -1.2838   -1.2801    2.0084 H       1  UNL1        0.1423
     42 H          -0.8081   -2.6059    0.9294 H       1  UNL1        0.1423
     43 H          -0.1454    0.9385    1.2815 H       1  UNL1        0.0411
     44 H           1.6513   -0.1660   -1.8116 H       1  UNL1        0.0622
     45 H           3.3953   -1.8794   -1.8088 H       1  UNL1        0.0655
     46 H           5.7865   -3.0121   -0.8714 H       1  UNL1        0.0660
     47 H           5.3249   -4.7344   -0.6104 H       1  UNL1        0.0660
     48 H           4.2811   -3.7062   -1.6683 H       1  UNL1        0.0660
     49 H           2.1810   -1.2212    3.9832 H       1  UNL1        0.0660
     50 H           1.1507   -2.6593    3.7149 H       1  UNL1        0.0660
     51 H           2.6861   -2.8450    4.6648 H       1  UNL1        0.0660
     52 H           1.0433   -0.7617    2.3537 H       1  UNL1        0.0658
     53 H          -2.8359   -3.2919    0.2848 H       1  UNL1        0.0314
     54 H          -4.3454   -2.4114    0.5863 H       1  UNL1        0.0314
     55 H          -4.5423   -4.2041   -1.1983 H       1  UNL1        0.0269
     56 H          -3.1851   -3.3526   -2.0895 H       1  UNL1        0.0269
     57 H          -6.0277   -2.3208   -1.5510 H       1  UNL1        0.0269
     58 H          -5.2853   -2.8553   -3.1072 H       1  UNL1        0.0269
     59 H          -5.3929   -0.2127   -2.0619 H       1  UNL1        0.0328
     60 H          -4.4864   -0.7815   -3.4683 H       1  UNL1        0.0328
@<TRIPOS>BOND
     1     1     2    1
     2     2     3    1
     3     3     4    1
     4     4     5    2
     5     4     6    1
     6     6     7    1
     7     7     8    1
     8     7     9    2
     9     9    10    1
    10    10    11   ar
    11    11    12   ar
    12    12    13   ar
    13    13    14   ar
    14    14    15    1
    15    14    16   ar
    16    16    17    1
    17    17    18    1
    18    18    19   ar
    19    19    20   ar
    20    20    21   ar
    21    21    22    1
    22    22    23    1
    23    21    24   ar
    24    24    25    1
    25    25    26    1
    26    24    27   ar
    27    13    28    1
    28    28    29    1
    29    29    30    1
    30    30    31    1
    31    17     6    1
    32    27    18   ar
    33    16    10   ar
    34    31    12    1
    35     1    32    1
    36     1    33    1
    37     1    34    1
    38     2    35    1
    39     2    36    1
    40     6    37    1
    41     8    38    1
    42     8    39    1
    43     8    40    1
    44    15    41    1
    45    15    42    1
    46    17    43    1
    47    19    44    1
    48    20    45    1
    49    23    46    1
    50    23    47    1
    51    23    48    1
    52    26    49    1
    53    26    50    1
    54    26    51    1
    55    27    52    1
    56    28    53    1
    57    28    54    1
    58    29    55    1
    59    29    56    1
    60    30    57    1
    61    30    58    1
    62    31    59    1
    63    31    60    1
