@<TRIPOS>MOLECULE
*****
 52 54 0 0 0
SMALL
GASTEIGER

@<TRIPOS>ATOM
      1 C           9.8748   -0.6509    0.8945 C.3     1  UNL1        0.0805
      2 O           8.6487   -1.2943    1.1171 O.3     1  UNL1       -0.4786
      3 C           7.4260   -0.6887    0.8227 C.ar    1  UNL1        0.2332
      4 C           6.2236   -1.3218    1.0419 C.ar    1  UNL1        0.0899
      5 N           5.0384   -0.7445    0.7605 N.ar    1  UNL1       -0.2435
      6 C           5.0323    0.4781    0.2541 C.ar    1  UNL1        0.1439
      7 C           3.7772    1.1908   -0.0858 C.2     1  UNL1        0.2681
      8 O           3.8148    2.3453   -0.5625 O.2     1  UNL1       -0.2681
      9 N           2.5250    0.5660    0.1282 N.am    1  UNL1       -0.2802
     10 C           1.2499    1.1194   -0.1465 C.ar    1  UNL1        0.0343
     11 C           1.0021    2.3501   -0.6636 C.ar    1  UNL1       -0.0377
     12 C          -0.2694    2.7963   -0.8939 C.ar    1  UNL1       -0.0243
     13 C          -1.3534    1.9656   -0.5899 C.ar    1  UNL1        0.1313
     14 F          -2.5794    2.4519   -0.8362 F       1  UNL1       -0.2050
     15 C          -1.1435    0.7133   -0.0649 C.ar    1  UNL1        0.0479
     16 C          -2.3253   -0.1675    0.2397 C.3     1  UNL1        0.2578
     17 C          -1.8467   -1.4720    0.8419 C.3     1  UNL1        0.2915
     18 F          -1.1540   -1.2597    2.0411 F       1  UNL1       -0.2037
     19 F          -2.9154   -2.2712    1.1818 F       1  UNL1       -0.2037
     20 C          -3.1638    0.5061    1.3090 C.3     1  UNL1        0.1242
     21 S          -4.8621    0.6328    0.9344 S.O2    1  UNL1       -0.0099
     22 O          -5.2021    2.0955    0.6642 O.2     1  UNL1       -0.1731
     23 O          -5.7190    0.2688    2.1325 O.2     1  UNL1       -0.1731
     24 C          -5.3024   -0.3693   -0.4279 C.3     1  UNL1        0.1831
     25 C          -6.4007    0.3614   -1.1843 C.3     1  UNL1       -0.0288
     26 C          -5.7954   -1.7576   -0.0334 C.3     1  UNL1       -0.0288
     27 C          -4.1632   -0.4745   -1.3720 C.2     1  UNL1        0.3069
     28 N          -4.4757   -0.6996   -2.7836 N.pl3   1  UNL1       -0.2488
     29 N          -2.9901   -0.3746   -0.9750 N.2     1  UNL1       -0.0666
     30 C           0.1446    0.3015    0.1513 C.ar    1  UNL1       -0.0299
     31 C           6.2159    1.1397    0.0224 C.ar    1  UNL1        0.0619
     32 N           7.3889    0.5454    0.3104 N.ar    1  UNL1       -0.2178
     33 H          10.0395    0.0602    1.7308 H       1  UNL1        0.0660
     34 H          10.7041   -1.3598    0.7450 H       1  UNL1        0.0660
     35 H           9.7537   -0.0489   -0.0442 H       1  UNL1        0.0660
     36 H           6.2862   -2.3286    1.4610 H       1  UNL1        0.0884
     37 H           2.6183   -0.4174    0.5388 H       1  UNL1        0.1552
     38 H           1.7987    3.0112   -0.9077 H       1  UNL1        0.0637
     39 H          -0.4527    3.7778   -1.3060 H       1  UNL1        0.0647
     40 H          -1.2253   -2.0532    0.1295 H       1  UNL1        0.1072
     41 H          -2.7479    1.5321    1.5409 H       1  UNL1        0.0553
     42 H          -3.0501   -0.0454    2.2599 H       1  UNL1        0.0553
     43 H          -7.3579    0.0845   -0.6917 H       1  UNL1        0.0256
     44 H          -6.2832    1.4525   -1.1551 H       1  UNL1        0.0256
     45 H          -6.4760   -0.0307   -2.2299 H       1  UNL1        0.0256
     46 H          -5.0851   -2.4984   -0.4456 H       1  UNL1        0.0256
     47 H          -6.7721   -1.9574   -0.5277 H       1  UNL1        0.0256
     48 H          -5.8733   -1.8190    1.0676 H       1  UNL1        0.0256
     49 H          -4.4629    0.0977   -3.4440 H       1  UNL1        0.2881
     50 H          -4.7035   -1.6351   -3.1093 H       1  UNL1        0.2881
     51 H           0.3753   -0.6801    0.5542 H       1  UNL1        0.0641
     52 H           6.2134    2.1470   -0.3948 H       1  UNL1        0.0854
@<TRIPOS>BOND
     1     1     2    1
     2     2     3    1
     3     3     4   ar
     4     4     5   ar
     5     5     6   ar
     6     6     7    1
     7     7     8    2
     8     7     9   am
     9     9    10    1
    10    10    11   ar
    11    11    12   ar
    12    12    13   ar
    13    13    14    1
    14    13    15   ar
    15    15    16    1
    16    16    17    1
    17    17    18    1
    18    17    19    1
    19    16    20    1
    20    20    21    1
    21    21    22    2
    22    21    23    2
    23    21    24    1
    24    24    25    1
    25    24    26    1
    26    24    27    1
    27    27    28    1
    28    27    29    2
    29    15    30   ar
    30     6    31   ar
    31    31    32   ar
    32    32     3   ar
    33    30    10   ar
    34    29    16    1
    35     1    33    1
    36     1    34    1
    37     1    35    1
    38     4    36    1
    39     9    37    1
    40    11    38    1
    41    12    39    1
    42    17    40    1
    43    20    41    1
    44    20    42    1
    45    25    43    1
    46    25    44    1
    47    25    45    1
    48    26    46    1
    49    26    47    1
    50    26    48    1
    51    28    49    1
    52    28    50    1
    53    30    51    1
    54    31    52    1
