@<TRIPOS>MOLECULE
*****
 29 30 0 0 0
SMALL
GASTEIGER

@<TRIPOS>ATOM
      1 C          -4.2261    2.4720   -0.1203 C.3     1  UNL1        0.0315
      2 N          -3.6826    1.1334   -0.0399 N.ar    1  UNL1       -0.2596
      3 N          -4.1126   -0.0753    0.0728 N.ar    1  UNL1       -0.1658
      4 C          -3.1208   -0.9659    0.0989 C.ar    1  UNL1        0.1734
      5 C          -1.9036   -0.3394   -0.0029 C.ar    1  UNL1        0.0397
      6 C          -2.3283    1.0580   -0.0930 C.ar    1  UNL1        0.1070
      7 S          -0.6278    1.8848   -0.2314 S.2     1  UNL1       -0.0644
      8 C           0.3281    0.4186   -0.1591 C.ar    1  UNL1        0.0765
      9 C          -0.5923   -0.6233   -0.0380 C.ar    1  UNL1       -0.0312
     10 C           1.7977    0.4810   -0.2279 C.2     1  UNL1        0.2508
     11 O           2.2440    1.6328   -0.3369 O.2     1  UNL1       -0.2696
     12 N           2.6613   -0.6282   -0.1793 N.am    1  UNL1       -0.3101
     13 C           4.0850   -0.8049   -0.2213 C.3     1  UNL1        0.0207
     14 C           4.8769   -0.1913    0.8720 C.3     1  UNL1        0.0063
     15 S           4.6810    1.5933    0.9012 S.3     1  UNL1       -0.1767
     16 C          -3.3545   -2.4463    0.2239 C.3     1  UNL1        0.4365
     17 F          -2.7196   -2.9068    1.3848 F       1  UNL1       -0.1643
     18 F          -4.6823   -2.7139    0.3787 F       1  UNL1       -0.1643
     19 F          -2.8486   -3.1428   -0.8489 F       1  UNL1       -0.1643
     20 H          -3.7363    3.1166   -0.8662 H       1  UNL1        0.0473
     21 H          -5.2768    2.3294   -0.5020 H       1  UNL1        0.0473
     22 H          -4.2858    2.9459    0.8789 H       1  UNL1        0.0473
     23 H          -0.1346   -1.5913    0.0174 H       1  UNL1        0.0638
     24 H           2.0490   -1.5020   -0.0903 H       1  UNL1        0.1490
     25 H           4.2704   -1.8919   -0.2270 H       1  UNL1        0.0470
     26 H           4.4365   -0.3641   -1.1932 H       1  UNL1        0.0470
     27 H           4.6011   -0.6595    1.8583 H       1  UNL1        0.0389
     28 H           5.9673   -0.4634    0.7394 H       1  UNL1        0.0389
     29 H           5.6344    2.2448    0.0814 H       1  UNL1        0.1017
@<TRIPOS>BOND
     1     1     2    1
     2     2     3   ar
     3     3     4   ar
     4     4     5   ar
     5     5     6   ar
     6     6     7   ar
     7     7     8   ar
     8     8     9   ar
     9     8    10    1
    10    10    11    2
    11    10    12   am
    12    12    13    1
    13    13    14    1
    14    14    15    1
    15     4    16    1
    16    16    17    1
    17    16    18    1
    18    16    19    1
    19     6     2   ar
    20     9     5   ar
    21     1    20    1
    22     1    21    1
    23     1    22    1
    24     9    23    1
    25    12    24    1
    26    13    25    1
    27    13    26    1
    28    14    27    1
    29    14    28    1
    30    15    29    1
