@<TRIPOS>MOLECULE
*****
 42 44 0 0 0
SMALL
GASTEIGER

@<TRIPOS>ATOM
      1 C          -4.1646   -2.0449   -2.0446 C.3     1  UNL1        0.0788
      2 O          -3.0921   -1.5373   -1.2729 O.3     1  UNL1       -0.4948
      3 C          -3.1868   -0.2727   -0.7099 C.ar    1  UNL1        0.1251
      4 C          -4.3328    0.4905   -0.9052 C.ar    1  UNL1       -0.0196
      5 C          -4.4827    1.7524   -0.3707 C.ar    1  UNL1       -0.0583
      6 C          -3.4472    2.2833    0.3942 C.ar    1  UNL1       -0.0612
      7 C          -2.2986    1.5518    0.6060 C.ar    1  UNL1       -0.0532
      8 C          -2.1845    0.2882    0.0531 C.ar    1  UNL1        0.0169
      9 C          -0.9463   -0.4791    0.2890 C.3     1  UNL1        0.0828
     10 C           0.1246   -0.2203   -0.7068 C.3     1  UNL1        0.0167
     11 C           1.3748   -0.1705    0.0945 C.2     1  UNL1        0.0723
     12 C           2.7229   -0.1426   -0.4952 C.ar    1  UNL1        0.0395
     13 C           2.9091   -0.1620   -1.8613 C.ar    1  UNL1       -0.0459
     14 C           4.1686   -0.1361   -2.4351 C.ar    1  UNL1       -0.0193
     15 C           5.2552   -0.0896   -1.6105 C.ar    1  UNL1        0.1204
     16 O           6.5168   -0.0638   -2.1989 O.3     1  UNL1       -0.5066
     17 C           5.0988   -0.0693   -0.2472 C.ar    1  UNL1        0.0219
     18 C           3.8379   -0.0954    0.3216 C.ar    1  UNL1        0.1292
     19 O           3.6582   -0.0755    1.6977 O.3     1  UNL1       -0.5060
     20 N           1.0525   -0.1574    1.3166 N.2     1  UNL1       -0.1808
     21 N          -0.3142   -0.1916    1.5526 N.am    1  UNL1       -0.1852
     22 C          -0.8713    0.0262    2.8251 C.2     1  UNL1        0.2322
     23 C          -0.0331    0.3101    3.9983 C.3     1  UNL1        0.0140
     24 O          -2.1137   -0.0265    2.9440 O.2     1  UNL1       -0.2741
     25 H          -4.0361   -3.1264   -2.2183 H       1  UNL1        0.0660
     26 H          -5.1489   -1.9405   -1.5045 H       1  UNL1        0.0660
     27 H          -4.1907   -1.4944   -3.0203 H       1  UNL1        0.0660
     28 H          -5.1637    0.1187   -1.4928 H       1  UNL1        0.0654
     29 H          -5.3610    2.3574   -0.5107 H       1  UNL1        0.0619
     30 H          -3.5243    3.2634    0.8287 H       1  UNL1        0.0618
     31 H          -1.5275    2.0140    1.2063 H       1  UNL1        0.0622
     32 H          -1.2110   -1.5556    0.3003 H       1  UNL1        0.0576
     33 H           0.0495    0.7570   -1.2247 H       1  UNL1        0.0351
     34 H           0.1940   -1.0796   -1.4049 H       1  UNL1        0.0351
     35 H           2.0286   -0.1996   -2.5211 H       1  UNL1        0.0626
     36 H           4.2701   -0.1527   -3.5055 H       1  UNL1        0.0654
     37 H           7.2362   -0.6941   -1.8595 H       1  UNL1        0.2921
     38 H           5.9913   -0.0321    0.3727 H       1  UNL1        0.0691
     39 H           4.4262   -0.2043    2.3440 H       1  UNL1        0.2922
     40 H          -0.5040    1.0241    4.7128 H       1  UNL1        0.0323
     41 H           0.9470    0.7937    3.7151 H       1  UNL1        0.0323
     42 H           0.2727   -0.6168    4.5479 H       1  UNL1        0.0323
@<TRIPOS>BOND
     1     1     2    1
     2     2     3    1
     3     3     4   ar
     4     4     5   ar
     5     5     6   ar
     6     6     7   ar
     7     7     8   ar
     8     8     9    1
     9     9    10    1
    10    10    11    1
    11    11    12    1
    12    12    13   ar
    13    13    14   ar
    14    14    15   ar
    15    15    16    1
    16    15    17   ar
    17    17    18   ar
    18    18    19    1
    19    11    20    2
    20    20    21    1
    21    21    22   am
    22    22    23    1
    23    22    24    2
    24     8     3   ar
    25    21     9    1
    26    18    12   ar
    27     1    25    1
    28     1    26    1
    29     1    27    1
    30     4    28    1
    31     5    29    1
    32     6    30    1
    33     7    31    1
    34     9    32    1
    35    10    33    1
    36    10    34    1
    37    13    35    1
    38    14    36    1
    39    16    37    1
    40    17    38    1
    41    19    39    1
    42    23    40    1
    43    23    41    1
    44    23    42    1
