@<TRIPOS>MOLECULE
*****
 48 50 0 0 0
SMALL
GASTEIGER

@<TRIPOS>ATOM
      1 C           5.2122   -0.9839   -2.9979 C.3     1  UNL1        0.0789
      2 O           4.3967   -0.6089   -1.9038 O.3     1  UNL1       -0.4928
      3 C           4.7578   -1.0760   -0.6469 C.ar    1  UNL1        0.1519
      4 C           5.8609   -1.8765   -0.4306 C.ar    1  UNL1        0.0021
      5 C           6.1952   -2.3276    0.8405 C.ar    1  UNL1        0.0625
      6 CL          7.5953   -3.3436    1.1151 Cl      1  UNL1       -0.0819
      7 C           5.3701   -1.9348    1.8699 C.ar    1  UNL1        0.0470
      8 N           4.3030   -1.1556    1.6325 N.ar    1  UNL1       -0.2453
      9 C           3.9626   -0.7087    0.4102 C.ar    1  UNL1        0.1672
     10 C           2.7769    0.1418    0.2346 C.2     1  UNL1        0.2702
     11 O           2.5102    0.5260   -0.9199 O.2     1  UNL1       -0.2680
     12 N           1.9507    0.5297    1.2964 N.am    1  UNL1       -0.2801
     13 C           0.7926    1.3582    1.1377 C.ar    1  UNL1        0.0342
     14 C           0.8253    2.7227    1.2148 C.ar    1  UNL1       -0.0377
     15 C          -0.3196    3.4409    1.0520 C.ar    1  UNL1       -0.0243
     16 C          -1.5236    2.7939    0.8073 C.ar    1  UNL1        0.1291
     17 F          -2.5988    3.5880    0.6284 F       1  UNL1       -0.2051
     18 C          -1.6057    1.3990    0.7210 C.ar    1  UNL1        0.0196
     19 C          -2.9455    0.8344    0.4972 C.3     1  UNL1        0.1258
     20 C          -3.8930    1.2828    1.6140 C.3     1  UNL1        0.1196
     21 F          -5.1655    0.7727    1.4232 F       1  UNL1       -0.2462
     22 C          -2.9744   -0.6773    0.4039 C.3     1  UNL1        0.0251
     23 C          -3.9469   -1.2290   -0.5874 C.3     1  UNL1        0.1998
     24 C          -4.7262   -2.4338   -0.0707 C.3     1  UNL1        0.4266
     25 F          -3.8139   -3.4441    0.2473 F       1  UNL1       -0.1669
     26 F          -5.5878   -2.8986   -1.0455 F       1  UNL1       -0.1669
     27 F          -5.4934   -2.1170    1.0225 F       1  UNL1       -0.1669
     28 O          -4.8599   -0.3080   -1.1079 O.2     1  UNL1       -0.4534
     29 C          -4.3287    0.9298   -1.5022 C.2     1  UNL1        0.2766
     30 N          -4.7311    1.6184   -2.6795 N.pl3   1  UNL1       -0.3134
     31 N          -3.4407    1.4220   -0.7262 N.2     1  UNL1       -0.2228
     32 C          -0.4282    0.7384    0.8922 C.ar    1  UNL1       -0.0322
     33 H           6.2955   -0.8424   -2.7917 H       1  UNL1        0.0660
     34 H           5.0462   -2.0193   -3.3309 H       1  UNL1        0.0660
     35 H           5.0015   -0.3155   -3.8832 H       1  UNL1        0.0660
     36 H           6.4868   -2.1674   -1.2525 H       1  UNL1        0.0670
     37 H           5.6295   -2.2861    2.8637 H       1  UNL1        0.0845
     38 H           2.1999    0.1906    2.2597 H       1  UNL1        0.1552
     39 H           1.7920    3.2238    1.4101 H       1  UNL1        0.0637
     40 H          -0.2556    4.5212    1.1198 H       1  UNL1        0.0647
     41 H          -3.9373    2.3539    1.7660 H       1  UNL1        0.0643
     42 H          -3.5205    0.8249    2.5626 H       1  UNL1        0.0643
     43 H          -3.3298   -1.0449    1.4153 H       1  UNL1        0.0331
     44 H          -1.9996   -1.1489    0.2368 H       1  UNL1        0.0331
     45 H          -3.3387   -1.6242   -1.4667 H       1  UNL1        0.0826
     46 H          -5.6886    2.0015   -2.7278 H       1  UNL1        0.1466
     47 H          -4.0664    1.7251   -3.4632 H       1  UNL1        0.1466
     48 H          -0.4416   -0.3674    0.8394 H       1  UNL1        0.0640
@<TRIPOS>BOND
     1     1     2    1
     2     2     3    1
     3     3     4   ar
     4     4     5   ar
     5     5     6    1
     6     5     7   ar
     7     7     8   ar
     8     8     9   ar
     9     9    10    1
    10    10    11    2
    11    10    12   am
    12    12    13    1
    13    13    14   ar
    14    14    15   ar
    15    15    16   ar
    16    16    17    1
    17    16    18   ar
    18    18    19    1
    19    19    20    1
    20    20    21    1
    21    19    22    1
    22    22    23    1
    23    23    24    1
    24    24    25    1
    25    24    26    1
    26    24    27    1
    27    23    28    1
    28    28    29    1
    29    29    30    1
    30    29    31    2
    31    18    32   ar
    32     9     3   ar
    33    32    13   ar
    34    31    19    1
    35     1    33    1
    36     1    34    1
    37     1    35    1
    38     4    36    1
    39     7    37    1
    40    12    38    1
    41    14    39    1
    42    15    40    1
    43    20    41    1
    44    20    42    1
    45    22    43    1
    46    22    44    1
    47    23    45    1
    48    30    46    1
    49    30    47    1
    50    32    48    1
