@<TRIPOS>MOLECULE
*****
 66 68 0 0 0
SMALL
GASTEIGER

@<TRIPOS>ATOM
      1 C           5.1276    3.8841    4.3518 C.3     1  UNL1        0.0804
      2 O           3.8107    4.2344    4.7306 O.3     1  UNL1       -0.4796
      3 C           2.7415    3.6356    4.0673 C.ar    1  UNL1        0.2151
      4 C           1.4298    3.9345    4.3897 C.ar    1  UNL1        0.0006
      5 C           0.4089    3.3131    3.7018 C.ar    1  UNL1       -0.0468
      6 C           0.6635    2.3994    2.6985 C.ar    1  UNL1        0.0137
      7 C          -0.4494    1.7633    1.9945 C.ar    1  UNL1       -0.0017
      8 C          -0.9840    0.5848    2.4570 C.ar    1  UNL1       -0.0525
      9 C          -2.0518   -0.0463    1.8008 C.ar    1  UNL1       -0.0490
     10 C          -2.6021    0.4908    0.6720 C.ar    1  UNL1        0.0375
     11 C          -3.7287   -0.1072   -0.0821 C.2     1  UNL1        0.2441
     12 O          -4.1548    0.4736   -1.1160 O.2     1  UNL1       -0.2702
     13 N          -4.3528   -1.2965    0.2963 N.am    1  UNL1       -0.3108
     14 C          -5.4300   -2.0099   -0.3205 C.3     1  UNL1        0.0168
     15 C          -5.2629   -2.5920   -1.6562 C.3     1  UNL1       -0.0222
     16 C          -6.6183   -3.3122   -1.9597 C.3     1  UNL1       -0.0586
     17 C          -5.1203   -1.6048   -2.7870 C.3     1  UNL1       -0.0586
     18 C          -4.2307   -3.6886   -1.7359 C.3     1  UNL1       -0.0586
     19 C          -2.0692    1.6730    0.2042 C.ar    1  UNL1       -0.0351
     20 C          -1.0036    2.3068    0.8552 C.ar    1  UNL1        0.0673
     21 C          -0.4620    3.5445    0.3464 C.2     1  UNL1        0.3374
     22 O           0.4845    4.1051    0.9268 O.2     1  UNL1       -0.2451
     23 O          -0.9974    4.1084   -0.7899 O.3     1  UNL1       -0.4771
     24 C           1.9703    2.1302    2.4087 C.ar    1  UNL1        0.1372
     25 C           2.2462    1.1586    1.3411 C.2     1  UNL1        0.2673
     26 O           1.3235    0.5881    0.7090 O.2     1  UNL1       -0.2682
     27 N           3.5929    0.8395    0.9964 N.am    1  UNL1       -0.2802
     28 C           3.9199   -0.0895   -0.0244 C.ar    1  UNL1        0.0338
     29 C           4.0762    0.3759   -1.3159 C.ar    1  UNL1       -0.0397
     30 C           4.3957   -0.4787   -2.3604 C.ar    1  UNL1       -0.0451
     31 C           4.5634   -1.8256   -2.1151 C.ar    1  UNL1        0.0648
     32 C           4.8980   -2.7792   -3.1591 C.2     1  UNL1        0.3081
     33 N           5.5816   -3.8217   -2.8797 N.2     1  UNL1       -0.0994
     34 N           4.4506   -2.5235   -4.4782 N.pl3   1  UNL1       -0.2466
     35 C           4.4141   -2.3341   -0.8256 C.ar    1  UNL1       -0.0451
     36 C           4.0966   -1.4400    0.1727 C.ar    1  UNL1       -0.0397
     37 N           2.9516    2.7403    3.0841 N.ar    1  UNL1       -0.2076
     38 H           5.2317    2.7843    4.1744 H       1  UNL1        0.0660
     39 H           5.3381    4.4361    3.4012 H       1  UNL1        0.0660
     40 H           5.8639    4.2163    5.1207 H       1  UNL1        0.0660
     41 H           1.2347    4.6636    5.1903 H       1  UNL1        0.0671
     42 H          -0.6091    3.5590    3.9673 H       1  UNL1        0.0626
     43 H          -0.5633    0.1375    3.3536 H       1  UNL1        0.0624
     44 H          -2.4395   -0.9686    2.1978 H       1  UNL1        0.0625
     45 H          -3.9342   -1.7297    1.2077 H       1  UNL1        0.1490
     46 H          -5.7866   -2.7957    0.4273 H       1  UNL1        0.0467
     47 H          -6.3680   -1.3415   -0.3590 H       1  UNL1        0.0467
     48 H          -6.6785   -3.5451   -3.0270 H       1  UNL1        0.0235
     49 H          -6.6370   -4.2061   -1.2991 H       1  UNL1        0.0235
     50 H          -7.3914   -2.6094   -1.6054 H       1  UNL1        0.0235
     51 H          -4.0903   -1.3216   -3.0260 H       1  UNL1        0.0235
     52 H          -5.4658   -2.1187   -3.7660 H       1  UNL1        0.0235
     53 H          -5.8272   -0.7568   -2.7187 H       1  UNL1        0.0235
     54 H          -4.6598   -4.7046   -1.6864 H       1  UNL1        0.0235
     55 H          -3.6008   -3.5881   -0.8085 H       1  UNL1        0.0235
     56 H          -3.6011   -3.5977   -2.6321 H       1  UNL1        0.0235
     57 H          -2.4867    2.1287   -0.6965 H       1  UNL1        0.0633
     58 H          -0.9218    5.1067   -0.9624 H       1  UNL1        0.2954
     59 H           4.3408    1.3424    1.5536 H       1  UNL1        0.1552
     60 H           3.9574    1.4148   -1.5640 H       1  UNL1        0.0636
     61 H           4.5235   -0.1409   -3.3789 H       1  UNL1        0.0627
     62 H           5.8616   -4.5463   -3.5578 H       1  UNL1        0.3633
     63 H           4.1783   -3.3409   -5.0733 H       1  UNL1        0.2884
     64 H           4.3734   -1.5850   -4.8966 H       1  UNL1        0.2884
     65 H           4.5484   -3.3960   -0.6438 H       1  UNL1        0.0627
     66 H           3.9802   -1.8304    1.1731 H       1  UNL1        0.0636
@<TRIPOS>BOND
     1     1     2    1
     2     2     3    1
     3     3     4   ar
     4     4     5   ar
     5     5     6   ar
     6     6     7    1
     7     7     8   ar
     8     8     9   ar
     9     9    10   ar
    10    10    11    1
    11    11    12    2
    12    11    13   am
    13    13    14    1
    14    14    15    1
    15    15    16    1
    16    15    17    1
    17    15    18    1
    18    10    19   ar
    19    19    20   ar
    20    20    21    1
    21    21    22    2
    22    21    23    1
    23     6    24   ar
    24    24    25    1
    25    25    26    2
    26    25    27   am
    27    27    28    1
    28    28    29   ar
    29    29    30   ar
    30    30    31   ar
    31    31    32    1
    32    32    33    2
    33    32    34    1
    34    31    35   ar
    35    35    36   ar
    36    24    37   ar
    37    37     3   ar
    38    20     7   ar
    39    36    28   ar
    40     1    38    1
    41     1    39    1
    42     1    40    1
    43     4    41    1
    44     5    42    1
    45     8    43    1
    46     9    44    1
    47    13    45    1
    48    14    46    1
    49    14    47    1
    50    16    48    1
    51    16    49    1
    52    16    50    1
    53    17    51    1
    54    17    52    1
    55    17    53    1
    56    18    54    1
    57    18    55    1
    58    18    56    1
    59    19    57    1
    60    23    58    1
    61    27    59    1
    62    29    60    1
    63    30    61    1
    64    33    62    1
    65    34    63    1
    66    34    64    1
    67    35    65    1
    68    36    66    1
