
     RDKit          3D

 66 68  0  0  0  0  0  0  0  0999 V2000
    5.1276    3.8841    4.3518 C   0  0  0  0  0  0  0  0  0  0  0  0
    3.8107    4.2344    4.7306 O   0  0  0  0  0  0  0  0  0  0  0  0
    2.7415    3.6356    4.0673 C   0  0  0  0  0  0  0  0  0  0  0  0
    1.4298    3.9345    4.3897 C   0  0  0  0  0  0  0  0  0  0  0  0
    0.4089    3.3131    3.7018 C   0  0  0  0  0  0  0  0  0  0  0  0
    0.6635    2.3994    2.6985 C   0  0  0  0  0  0  0  0  0  0  0  0
   -0.4494    1.7633    1.9945 C   0  0  0  0  0  0  0  0  0  0  0  0
   -0.9840    0.5848    2.4570 C   0  0  0  0  0  0  0  0  0  0  0  0
   -2.0518   -0.0463    1.8008 C   0  0  0  0  0  0  0  0  0  0  0  0
   -2.6021    0.4908    0.6720 C   0  0  0  0  0  0  0  0  0  0  0  0
   -3.7287   -0.1072   -0.0821 C   0  0  0  0  0  0  0  0  0  0  0  0
   -4.1548    0.4736   -1.1160 O   0  0  0  0  0  0  0  0  0  0  0  0
   -4.3528   -1.2965    0.2963 N   0  0  0  0  0  0  0  0  0  0  0  0
   -5.4300   -2.0099   -0.3205 C   0  0  0  0  0  0  0  0  0  0  0  0
   -5.2629   -2.5920   -1.6562 C   0  0  0  0  0  0  0  0  0  0  0  0
   -6.6183   -3.3122   -1.9597 C   0  0  0  0  0  0  0  0  0  0  0  0
   -5.1203   -1.6048   -2.7870 C   0  0  0  0  0  0  0  0  0  0  0  0
   -4.2307   -3.6886   -1.7359 C   0  0  0  0  0  0  0  0  0  0  0  0
   -2.0692    1.6730    0.2042 C   0  0  0  0  0  0  0  0  0  0  0  0
   -1.0036    2.3068    0.8552 C   0  0  0  0  0  0  0  0  0  0  0  0
   -0.4620    3.5445    0.3464 C   0  0  0  0  0  0  0  0  0  0  0  0
    0.4845    4.1051    0.9268 O   0  0  0  0  0  0  0  0  0  0  0  0
   -0.9974    4.1084   -0.7899 O   0  0  0  0  0  0  0  0  0  0  0  0
    1.9703    2.1302    2.4087 C   0  0  0  0  0  0  0  0  0  0  0  0
    2.2462    1.1586    1.3411 C   0  0  0  0  0  0  0  0  0  0  0  0
    1.3235    0.5881    0.7090 O   0  0  0  0  0  0  0  0  0  0  0  0
    3.5929    0.8395    0.9964 N   0  0  0  0  0  0  0  0  0  0  0  0
    3.9199   -0.0895   -0.0244 C   0  0  0  0  0  0  0  0  0  0  0  0
    4.0762    0.3759   -1.3159 C   0  0  0  0  0  0  0  0  0  0  0  0
    4.3957   -0.4787   -2.3604 C   0  0  0  0  0  0  0  0  0  0  0  0
    4.5634   -1.8256   -2.1151 C   0  0  0  0  0  0  0  0  0  0  0  0
    4.8980   -2.7792   -3.1591 C   0  0  0  0  0  0  0  0  0  0  0  0
    5.5816   -3.8217   -2.8797 N   0  0  0  0  0  0  0  0  0  0  0  0
    4.4506   -2.5235   -4.4782 N   0  0  0  0  0  0  0  0  0  0  0  0
    4.4141   -2.3341   -0.8256 C   0  0  0  0  0  0  0  0  0  0  0  0
    4.0966   -1.4400    0.1727 C   0  0  0  0  0  0  0  0  0  0  0  0
    2.9516    2.7403    3.0841 N   0  0  0  0  0  0  0  0  0  0  0  0
    5.2317    2.7843    4.1744 H   0  0  0  0  0  0  0  0  0  0  0  0
    5.3381    4.4361    3.4012 H   0  0  0  0  0  0  0  0  0  0  0  0
    5.8639    4.2163    5.1207 H   0  0  0  0  0  0  0  0  0  0  0  0
    1.2347    4.6636    5.1903 H   0  0  0  0  0  0  0  0  0  0  0  0
   -0.6091    3.5590    3.9673 H   0  0  0  0  0  0  0  0  0  0  0  0
   -0.5633    0.1375    3.3536 H   0  0  0  0  0  0  0  0  0  0  0  0
   -2.4395   -0.9686    2.1978 H   0  0  0  0  0  0  0  0  0  0  0  0
   -3.9342   -1.7297    1.2077 H   0  0  0  0  0  0  0  0  0  0  0  0
   -5.7866   -2.7957    0.4273 H   0  0  0  0  0  0  0  0  0  0  0  0
   -6.3680   -1.3415   -0.3590 H   0  0  0  0  0  0  0  0  0  0  0  0
   -6.6785   -3.5451   -3.0270 H   0  0  0  0  0  0  0  0  0  0  0  0
   -6.6370   -4.2061   -1.2991 H   0  0  0  0  0  0  0  0  0  0  0  0
   -7.3914   -2.6094   -1.6054 H   0  0  0  0  0  0  0  0  0  0  0  0
   -4.0903   -1.3216   -3.0260 H   0  0  0  0  0  0  0  0  0  0  0  0
   -5.4658   -2.1187   -3.7660 H   0  0  0  0  0  0  0  0  0  0  0  0
   -5.8272   -0.7568   -2.7187 H   0  0  0  0  0  0  0  0  0  0  0  0
   -4.6598   -4.7046   -1.6864 H   0  0  0  0  0  0  0  0  0  0  0  0
   -3.6008   -3.5881   -0.8085 H   0  0  0  0  0  0  0  0  0  0  0  0
   -3.6011   -3.5977   -2.6321 H   0  0  0  0  0  0  0  0  0  0  0  0
   -2.4867    2.1287   -0.6965 H   0  0  0  0  0  0  0  0  0  0  0  0
   -0.9218    5.1067   -0.9624 H   0  0  0  0  0  0  0  0  0  0  0  0
    4.3408    1.3424    1.5536 H   0  0  0  0  0  0  0  0  0  0  0  0
    3.9574    1.4148   -1.5640 H   0  0  0  0  0  0  0  0  0  0  0  0
    4.5235   -0.1409   -3.3789 H   0  0  0  0  0  0  0  0  0  0  0  0
    5.8616   -4.5463   -3.5578 H   0  0  0  0  0  0  0  0  0  0  0  0
    4.1783   -3.3409   -5.0733 H   0  0  0  0  0  0  0  0  0  0  0  0
    4.3734   -1.5850   -4.8966 H   0  0  0  0  0  0  0  0  0  0  0  0
    4.5484   -3.3960   -0.6438 H   0  0  0  0  0  0  0  0  0  0  0  0
    3.9802   -1.8304    1.1731 H   0  0  0  0  0  0  0  0  0  0  0  0
  1  2  1  0
  2  3  1  0
  3  4  2  0
  4  5  1  0
  5  6  2  0
  6  7  1  0
  7  8  2  0
  8  9  1  0
  9 10  2  0
 10 11  1  0
 11 12  2  0
 11 13  1  0
 13 14  1  0
 14 15  1  0
 15 16  1  0
 15 17  1  0
 15 18  1  0
 10 19  1  0
 19 20  2  0
 20 21  1  0
 21 22  2  0
 21 23  1  0
  6 24  1  0
 24 25  1  0
 25 26  2  0
 25 27  1  0
 27 28  1  0
 28 29  2  0
 29 30  1  0
 30 31  2  0
 31 32  1  0
 32 33  2  3
 32 34  1  0
 31 35  1  0
 35 36  2  0
 24 37  2  0
 37  3  1  0
 20  7  1  0
 36 28  1  0
  1 38  1  0
  1 39  1  0
  1 40  1  0
  4 41  1  0
  5 42  1  0
  8 43  1  0
  9 44  1  0
 13 45  1  0
 14 46  1  0
 14 47  1  0
 16 48  1  0
 16 49  1  0
 16 50  1  0
 17 51  1  0
 17 52  1  0
 17 53  1  0
 18 54  1  0
 18 55  1  0
 18 56  1  0
 19 57  1  0
 23 58  1  0
 27 59  1  0
 29 60  1  0
 30 61  1  0
 33 62  1  0
 34 63  1  0
 34 64  1  0
 35 65  1  0
 36 66  1  0
M  END
$$$$
