@<TRIPOS>MOLECULE
*****
 67 71 0 0 0
SMALL
GASTEIGER

@<TRIPOS>ATOM
      1 C          -4.2829    1.7145    2.1110 C.3     1  UNL1       -0.0414
      2 C          -5.7531    1.6061    1.8794 C.3     1  UNL1        0.0489
      3 O          -6.1230    0.8167    0.8037 O.3     1  UNL1       -0.3404
      4 C          -5.6576    1.2141   -0.4136 C.3     1  UNL1        0.2236
      5 O          -6.7723    1.5766   -1.2364 O.3     1  UNL1       -0.4331
      6 C          -7.1217    0.4861   -2.0465 C.2     1  UNL1        0.3113
      7 O          -8.0464    0.3657   -2.8871 O.2     1  UNL1       -0.2507
      8 C          -6.1526   -0.6287   -1.7492 C.3     1  UNL1        0.0692
      9 C          -4.9973    0.1781   -1.2607 C.3     1  UNL1        0.0955
     10 N          -3.9201   -0.5474   -0.6675 N.am    1  UNL1       -0.3044
     11 C          -2.5365   -0.6057   -1.0364 C.2     1  UNL1        0.2357
     12 O          -2.5186    0.1598   -2.0313 O.2     1  UNL1       -0.2737
     13 C          -1.8607   -1.4927   -0.1055 C.3     1  UNL1        0.1213
     14 C          -2.1221   -1.2285    1.3559 C.3     1  UNL1       -0.0226
     15 C          -1.5715   -2.3635    2.1658 C.3     1  UNL1       -0.0332
     16 C          -0.8558   -3.4290    1.3665 C.3     1  UNL1        0.0343
     17 N           0.0797   -2.8048    0.4088 N.am    1  UNL1       -0.2172
     18 N          -0.4484   -1.6380   -0.2251 N.am    1  UNL1       -0.2043
     19 C           0.3617   -0.6885   -0.9068 C.2     1  UNL1        0.2528
     20 O          -0.1993    0.4221   -0.9850 O.2     1  UNL1       -0.2720
     21 C           1.7197   -0.8603   -1.4996 C.3     1  UNL1        0.1018
     22 C           2.0502   -2.2893   -1.7803 C.3     1  UNL1       -0.0176
     23 C           2.4689   -3.0992   -0.5974 C.3     1  UNL1        0.0277
     24 C           1.3426   -3.4666    0.2877 C.2     1  UNL1        0.2319
     25 O           1.4821   -4.4805    1.0369 O.2     1  UNL1       -0.2741
     26 N           2.7406   -0.2961   -0.6489 N.am    1  UNL1       -0.2987
     27 C           3.6791    0.7666   -0.9264 C.2     1  UNL1        0.2636
     28 O           3.3936    1.0914   -2.1023 O.2     1  UNL1       -0.2685
     29 C           4.5817    1.0984    0.1472 C.ar    1  UNL1        0.1330
     30 N           4.5549    0.4674    1.3147 N.ar    1  UNL1       -0.2497
     31 C           5.3890    0.7828    2.2919 C.ar    1  UNL1        0.0290
     32 C           6.3345    1.7731    2.1770 C.ar    1  UNL1       -0.0358
     33 C           6.4063    2.4573    0.9924 C.ar    1  UNL1       -0.0143
     34 C           7.3471    3.4534    0.8576 C.ar    1  UNL1       -0.0539
     35 C           7.4402    4.1616   -0.3322 C.ar    1  UNL1       -0.0612
     36 C           6.5663    3.8428   -1.3781 C.ar    1  UNL1       -0.0611
     37 C           5.6465    2.8253   -1.1631 C.ar    1  UNL1       -0.0518
     38 C           5.5173    2.0972   -0.0024 C.ar    1  UNL1        0.0126
     39 H          -3.6661    1.8147    1.1998 H       1  UNL1        0.0252
     40 H          -3.8789    0.9178    2.7723 H       1  UNL1        0.0252
     41 H          -4.1059    2.6617    2.7026 H       1  UNL1        0.0252
     42 H          -6.2147    1.1389    2.7875 H       1  UNL1        0.0558
     43 H          -6.1742    2.6313    1.8189 H       1  UNL1        0.0558
     44 H          -5.0373    2.1433   -0.2692 H       1  UNL1        0.1076
     45 H          -5.8653   -1.1961   -2.6365 H       1  UNL1        0.0398
     46 H          -6.6547   -1.2265   -0.9641 H       1  UNL1        0.0398
     47 H          -4.6248    0.7479   -2.1630 H       1  UNL1        0.0565
     48 H          -4.5019   -1.0009    0.1082 H       1  UNL1        0.1493
     49 H          -2.3128   -2.5267   -0.2811 H       1  UNL1        0.0615
     50 H          -1.5498   -0.3127    1.6070 H       1  UNL1        0.0289
     51 H          -3.1595   -1.0514    1.6237 H       1  UNL1        0.0289
     52 H          -2.3706   -2.8489    2.7414 H       1  UNL1        0.0282
     53 H          -0.8422   -1.9921    2.9174 H       1  UNL1        0.0282
     54 H          -0.2217   -4.0380    2.0398 H       1  UNL1        0.0483
     55 H          -1.5695   -4.1056    0.8663 H       1  UNL1        0.0483
     56 H           1.7388   -0.3075   -2.4851 H       1  UNL1        0.0595
     57 H           1.1200   -2.7747   -2.1778 H       1  UNL1        0.0292
     58 H           2.7876   -2.3928   -2.6119 H       1  UNL1        0.0292
     59 H           2.8294   -4.0858   -1.0227 H       1  UNL1        0.0360
     60 H           3.3016   -2.6997   -0.0126 H       1  UNL1        0.0360
     61 H           2.7337   -0.7829    0.2965 H       1  UNL1        0.1498
     62 H           5.2588    0.1885    3.1937 H       1  UNL1        0.0830
     63 H           6.9746    1.9686    3.0190 H       1  UNL1        0.0639
     64 H           8.0371    3.7242    1.6440 H       1  UNL1        0.0624
     65 H           8.1555    4.9440   -0.4829 H       1  UNL1        0.0618
     66 H           6.6326    4.3877   -2.3035 H       1  UNL1        0.0618
     67 H           5.0182    2.6356   -1.9926 H       1  UNL1        0.0624
@<TRIPOS>BOND
     1     1     2    1
     2     2     3    1
     3     3     4    1
     4     4     5    1
     5     5     6    1
     6     6     7    2
     7     6     8    1
     8     8     9    1
     9     9    10    1
    10    10    11   am
    11    11    12    2
    12    11    13    1
    13    13    14    1
    14    14    15    1
    15    15    16    1
    16    16    17    1
    17    17    18    1
    18    18    19   am
    19    19    20    2
    20    19    21    1
    21    21    22    1
    22    22    23    1
    23    23    24    1
    24    24    25    2
    25    21    26    1
    26    26    27   am
    27    27    28    2
    28    27    29    1
    29    29    30   ar
    30    30    31   ar
    31    31    32   ar
    32    32    33   ar
    33    33    34   ar
    34    34    35   ar
    35    35    36   ar
    36    36    37   ar
    37    37    38   ar
    38     9     4    1
    39    18    13    1
    40    38    29   ar
    41    24    17   am
    42    38    33   ar
    43     1    39    1
    44     1    40    1
    45     1    41    1
    46     2    42    1
    47     2    43    1
    48     4    44    1
    49     8    45    1
    50     8    46    1
    51     9    47    1
    52    10    48    1
    53    13    49    1
    54    14    50    1
    55    14    51    1
    56    15    52    1
    57    15    53    1
    58    16    54    1
    59    16    55    1
    60    21    56    1
    61    22    57    1
    62    22    58    1
    63    23    59    1
    64    23    60    1
    65    26    61    1
    66    31    62    1
    67    32    63    1
    68    34    64    1
    69    35    65    1
    70    36    66    1
    71    37    67    1
