@<TRIPOS>MOLECULE
*****
 44 46 0 0 0
SMALL
GASTEIGER

@<TRIPOS>ATOM
      1 O           2.4923    0.5436   -2.4809 O.2     1  UNL1       -0.2524
      2 C           2.2913    0.0410   -1.2874 C.2     1  UNL1        0.3050
      3 N           3.1910    0.4286   -0.2707 N.am    1  UNL1       -0.2811
      4 C           4.2625    1.3420   -0.6846 C.3     1  UNL1        0.0396
      5 C           4.7929    2.2118    0.3851 C.3     1  UNL1        0.0635
      6 O           4.2933    1.9076    1.6430 O.3     1  UNL1       -0.3767
      7 C           4.4109    0.5086    1.7875 C.3     1  UNL1        0.0635
      8 C           3.1092   -0.0086    1.1022 C.3     1  UNL1        0.0396
      9 N           1.1860   -0.8151   -1.2379 N.am    1  UNL1       -0.2825
     10 C           0.8010   -1.4875   -0.0354 C.3     1  UNL1        0.0319
     11 C          -0.5692   -2.1583   -0.2698 C.3     1  UNL1        0.0281
     12 N          -1.4146   -1.1868   -0.8685 N.pl3   1  UNL1       -0.3269
     13 C          -2.5452   -0.6130   -0.2441 C.ar    1  UNL1        0.0298
     14 C          -2.8753   -0.8898    1.0823 C.ar    1  UNL1       -0.0401
     15 C          -3.9860   -0.3281    1.6861 C.ar    1  UNL1       -0.0484
     16 C          -4.8200    0.5322    1.0060 C.ar    1  UNL1        0.0549
     17 C          -6.0078    1.1240    1.6742 C.3     1  UNL1        0.4174
     18 F          -5.8320    1.0923    3.0301 F       1  UNL1       -0.1659
     19 F          -7.1866    0.5211    1.2846 F       1  UNL1       -0.1659
     20 F          -6.0631    2.4711    1.2918 F       1  UNL1       -0.1659
     21 C          -4.5123    0.8180   -0.3022 C.ar    1  UNL1       -0.0484
     22 C          -3.3887    0.2492   -0.9115 C.ar    1  UNL1       -0.0401
     23 C          -1.0568   -0.7759   -2.2223 C.3     1  UNL1        0.0281
     24 C           0.4167   -0.9997   -2.4753 C.3     1  UNL1        0.0319
     25 H           3.8670    1.9316   -1.5341 H       1  UNL1        0.0488
     26 H           5.0705    0.6930   -1.1146 H       1  UNL1        0.0488
     27 H           4.5544    3.2716    0.1289 H       1  UNL1        0.0575
     28 H           5.9157    2.1186    0.4974 H       1  UNL1        0.0575
     29 H           4.4411    0.2024    2.8323 H       1  UNL1        0.0575
     30 H           5.2963    0.1228    1.2554 H       1  UNL1        0.0575
     31 H           2.3237    0.5371    1.6934 H       1  UNL1        0.0488
     32 H           3.0608   -1.0829    1.2319 H       1  UNL1        0.0488
     33 H           1.4563   -2.3666    0.2115 H       1  UNL1        0.0480
     34 H           0.7138   -0.8805    0.8649 H       1  UNL1        0.0480
     35 H          -0.3593   -2.9382   -1.0622 H       1  UNL1        0.0479
     36 H          -0.9249   -2.6588    0.6238 H       1  UNL1        0.0479
     37 H          -2.2574   -1.5592    1.6719 H       1  UNL1        0.0636
     38 H          -4.2528   -0.5396    2.7259 H       1  UNL1        0.0624
     39 H          -5.1721    1.4933   -0.8262 H       1  UNL1        0.0624
     40 H          -3.2163    0.5256   -1.9522 H       1  UNL1        0.0636
     41 H          -1.6496   -1.3839   -2.9259 H       1  UNL1        0.0479
     42 H          -1.2690    0.2886   -2.4082 H       1  UNL1        0.0479
     43 H           0.7816   -0.2785   -3.2157 H       1  UNL1        0.0480
     44 H           0.6306   -2.0249   -2.8242 H       1  UNL1        0.0480
@<TRIPOS>BOND
     1     1     2    2
     2     2     3   am
     3     3     4    1
     4     4     5    1
     5     5     6    1
     6     6     7    1
     7     7     8    1
     8     2     9   am
     9     9    10    1
    10    10    11    1
    11    11    12    1
    12    12    13    1
    13    13    14   ar
    14    14    15   ar
    15    15    16   ar
    16    16    17    1
    17    17    18    1
    18    17    19    1
    19    17    20    1
    20    16    21   ar
    21    21    22   ar
    22    12    23    1
    23    23    24    1
    24     8     3    1
    25    24     9    1
    26    22    13   ar
    27     4    25    1
    28     4    26    1
    29     5    27    1
    30     5    28    1
    31     7    29    1
    32     7    30    1
    33     8    31    1
    34     8    32    1
    35    10    33    1
    36    10    34    1
    37    11    35    1
    38    11    36    1
    39    14    37    1
    40    15    38    1
    41    21    39    1
    42    22    40    1
    43    23    41    1
    44    23    42    1
    45    24    43    1
    46    24    44    1
