
     RDKit          3D

 42 45  0  0  0  0  0  0  0  0999 V2000
   -2.8929   -0.7431    1.9138 C   0  0  0  0  0  0  0  0  0  0  0  0
   -1.5976   -1.1315    1.6623 O   0  0  0  0  0  0  0  0  0  0  0  0
   -1.2655   -1.2179    0.3228 C   0  0  2  0  0  0  0  0  0  0  0  0
   -2.0513   -2.1621   -0.4678 C   0  0  1  0  0  0  0  0  0  0  0  0
   -1.5169   -2.6510   -1.7638 N   0  0  0  0  0  0  0  0  0  0  0  0
   -1.2291   -3.4160   -0.5687 C   0  0  1  0  0  0  0  0  0  0  0  0
    0.1450   -3.1633   -0.0254 C   0  0  0  0  0  0  0  0  0  0  0  0
    0.0740   -1.7468    0.2611 N   0  0  0  0  0  0  0  0  0  0  0  0
    0.9319   -0.6204    0.5286 C   0  0  0  0  0  0  0  0  0  0  0  0
    0.2766    0.4819    0.2045 C   0  0  0  0  0  0  0  0  0  0  0  0
   -1.0695    0.1402   -0.3033 C   0  0  1  0  0  0  0  0  0  0  0  0
   -1.1381    0.0986   -1.8020 C   0  0  0  0  0  0  0  0  0  0  0  0
   -0.9555    1.4066   -2.2962 O   0  0  0  0  0  0  0  0  0  0  0  0
   -1.7863    2.4814   -2.0149 C   0  0  0  0  0  0  0  0  0  0  0  0
   -1.4160    3.7154   -2.6194 N   0  0  0  0  0  0  0  0  0  0  0  0
   -2.7874    2.3576   -1.2792 O   0  0  0  0  0  0  0  0  0  0  0  0
    1.0495    1.6954    0.4363 C   0  0  0  0  0  0  0  0  0  0  0  0
    0.5528    2.8177    0.1743 O   0  0  0  0  0  0  0  0  0  0  0  0
    2.4045    1.7522    0.9661 C   0  0  0  0  0  0  0  0  0  0  0  0
    3.1012    2.9754    1.1673 N   0  0  0  0  0  0  0  0  0  0  0  0
    3.0186    0.6226    1.2752 C   0  0  0  0  0  0  0  0  0  0  0  0
    4.3842    0.6181    1.8128 C   0  0  0  0  0  0  0  0  0  0  0  0
    2.3089   -0.6311    1.0710 C   0  0  0  0  0  0  0  0  0  0  0  0
    2.9061   -1.6901    1.3694 O   0  0  0  0  0  0  0  0  0  0  0  0
   -3.1925    0.2318    1.5330 H   0  0  0  0  0  0  0  0  0  0  0  0
   -3.0013   -0.6958    3.0172 H   0  0  0  0  0  0  0  0  0  0  0  0
   -3.6263   -1.5230    1.5765 H   0  0  0  0  0  0  0  0  0  0  0  0
   -3.1560   -2.2403   -0.3970 H   0  0  0  0  0  0  0  0  0  0  0  0
   -2.1757   -3.0989   -2.4076 H   0  0  0  0  0  0  0  0  0  0  0  0
   -1.7108   -4.4021   -0.4285 H   0  0  0  0  0  0  0  0  0  0  0  0
    0.2638   -3.6590    0.9614 H   0  0  0  0  0  0  0  0  0  0  0  0
    0.9520   -3.4290   -0.7323 H   0  0  0  0  0  0  0  0  0  0  0  0
   -1.7937    0.8257    0.1727 H   0  0  0  0  0  0  0  0  0  0  0  0
   -0.2726   -0.4882   -2.1696 H   0  0  0  0  0  0  0  0  0  0  0  0
   -2.0825   -0.3117   -2.1569 H   0  0  0  0  0  0  0  0  0  0  0  0
   -2.0104    4.2301   -3.2933 H   0  0  0  0  0  0  0  0  0  0  0  0
   -0.4816    4.1431   -2.3747 H   0  0  0  0  0  0  0  0  0  0  0  0
    3.1900    3.3516    2.1447 H   0  0  0  0  0  0  0  0  0  0  0  0
    3.3690    3.2004    0.1861 H   0  0  0  0  0  0  0  0  0  0  0  0
    5.0509   -0.1190    1.3190 H   0  0  0  0  0  0  0  0  0  0  0  0
    4.3433    0.3959    2.8876 H   0  0  0  0  0  0  0  0  0  0  0  0
    4.8877    1.5986    1.6848 H   0  0  0  0  0  0  0  0  0  0  0  0
  1  2  1  0
  3  2  1  1
  3  4  1  0
  4  5  1  0
  5  6  1  0
  6  7  1  0
  7  8  1  0
  8  9  1  0
  9 10  2  0
 10 11  1  0
 11 12  1  0
 12 13  1  0
 13 14  1  0
 14 15  1  0
 14 16  2  0
 10 17  1  0
 17 18  2  0
 17 19  1  0
 19 20  1  0
 19 21  2  0
 21 22  1  0
 21 23  1  0
 23 24  2  0
  8  3  1  0
 23  9  1  0
 11  3  1  0
  6  4  1  0
  1 25  1  0
  1 26  1  0
  1 27  1  0
  4 28  1  6
  5 29  1  0
  6 30  1  6
  7 31  1  0
  7 32  1  0
 11 33  1  1
 12 34  1  0
 12 35  1  0
 15 36  1  0
 15 37  1  0
 20 38  1  0
 20 39  1  0
 22 40  1  0
 22 41  1  0
 22 42  1  0
M  END
$$$$
