@<TRIPOS>MOLECULE
*****
 32 33 0 0 0
SMALL
GASTEIGER

@<TRIPOS>ATOM
      1 C          -5.8191   -0.7268    0.3309 C.3     1  UNL1       -0.0014
      2 C          -4.8246    0.1483   -0.3325 C.2     1  UNL1        0.1601
      3 O          -5.1681    1.1320   -1.0315 O.2     1  UNL1       -0.2924
      4 C          -3.4055   -0.1295   -0.1775 C.ar    1  UNL1        0.0172
      5 C          -2.4686    0.6754   -0.7884 C.ar    1  UNL1       -0.0495
      6 C          -1.1304    0.3746   -0.6142 C.ar    1  UNL1       -0.0399
      7 C          -0.6889   -0.6816    0.1347 C.ar    1  UNL1        0.0313
      8 N           0.6631   -0.9865    0.3342 N.pl3   1  UNL1       -0.3145
      9 C           1.7356   -0.0555    0.2877 C.ar    1  UNL1        0.0321
     10 C           1.5811    1.2783    0.5391 C.ar    1  UNL1       -0.0405
     11 C           2.6924    2.1235    0.4528 C.ar    1  UNL1       -0.0592
     12 C           3.9434    1.6335    0.1185 C.ar    1  UNL1       -0.0477
     13 C           4.1117    0.2888   -0.1369 C.ar    1  UNL1        0.0606
     14 C           5.4256   -0.2722   -0.4952 C.2     1  UNL1        0.3369
     15 O           5.4979   -1.5070   -0.7131 O.2     1  UNL1       -0.2451
     16 O           6.5551    0.4886   -0.5987 O.3     1  UNL1       -0.4771
     17 C           2.9945   -0.5113   -0.0423 C.ar    1  UNL1       -0.0266
     18 C          -1.6687   -1.4620    0.7290 C.ar    1  UNL1       -0.0399
     19 C          -3.0065   -1.2009    0.5831 C.ar    1  UNL1       -0.0495
     20 H          -5.5116   -0.8483    1.3933 H       1  UNL1        0.0309
     21 H          -5.9042   -1.7161   -0.1347 H       1  UNL1        0.0309
     22 H          -6.7993   -0.1923    0.3188 H       1  UNL1        0.0309
     23 H          -2.7702    1.5232   -1.3907 H       1  UNL1        0.0625
     24 H          -0.4341    1.0217   -1.1211 H       1  UNL1        0.0636
     25 H           0.8922   -1.9974    0.5346 H       1  UNL1        0.1522
     26 H           0.6390    1.7234    0.8165 H       1  UNL1        0.0636
     27 H           2.5682    3.1810    0.6520 H       1  UNL1        0.0618
     28 H           4.7936    2.2962    0.0551 H       1  UNL1        0.0626
     29 H           7.4777    0.1192   -0.3240 H       1  UNL1        0.2954
     30 H           3.1318   -1.5820   -0.2462 H       1  UNL1        0.0644
     31 H          -1.3566   -2.3210    1.3390 H       1  UNL1        0.0636
     32 H          -3.7468   -1.8172    1.0513 H       1  UNL1        0.0625
@<TRIPOS>BOND
     1     1     2    1
     2     2     3    2
     3     2     4    1
     4     4     5   ar
     5     5     6   ar
     6     6     7   ar
     7     7     8    1
     8     8     9    1
     9     9    10   ar
    10    10    11   ar
    11    11    12   ar
    12    12    13   ar
    13    13    14    1
    14    14    15    2
    15    14    16    1
    16    13    17   ar
    17     7    18   ar
    18    18    19   ar
    19    19     4   ar
    20    17     9   ar
    21     1    20    1
    22     1    21    1
    23     1    22    1
    24     5    23    1
    25     6    24    1
    26     8    25    1
    27    10    26    1
    28    11    27    1
    29    12    28    1
    30    16    29    1
    31    17    30    1
    32    18    31    1
    33    19    32    1
