
     RDKit          3D

 32 33  0  0  0  0  0  0  0  0999 V2000
   -5.8191   -0.7268    0.3309 C   0  0  0  0  0  0  0  0  0  0  0  0
   -4.8246    0.1483   -0.3325 C   0  0  0  0  0  0  0  0  0  0  0  0
   -5.1681    1.1320   -1.0315 O   0  0  0  0  0  0  0  0  0  0  0  0
   -3.4055   -0.1295   -0.1775 C   0  0  0  0  0  0  0  0  0  0  0  0
   -2.4686    0.6754   -0.7884 C   0  0  0  0  0  0  0  0  0  0  0  0
   -1.1304    0.3746   -0.6142 C   0  0  0  0  0  0  0  0  0  0  0  0
   -0.6889   -0.6816    0.1347 C   0  0  0  0  0  0  0  0  0  0  0  0
    0.6631   -0.9865    0.3342 N   0  0  0  0  0  0  0  0  0  0  0  0
    1.7356   -0.0555    0.2877 C   0  0  0  0  0  0  0  0  0  0  0  0
    1.5811    1.2783    0.5391 C   0  0  0  0  0  0  0  0  0  0  0  0
    2.6924    2.1235    0.4528 C   0  0  0  0  0  0  0  0  0  0  0  0
    3.9434    1.6335    0.1185 C   0  0  0  0  0  0  0  0  0  0  0  0
    4.1117    0.2888   -0.1369 C   0  0  0  0  0  0  0  0  0  0  0  0
    5.4256   -0.2722   -0.4952 C   0  0  0  0  0  0  0  0  0  0  0  0
    5.4979   -1.5070   -0.7131 O   0  0  0  0  0  0  0  0  0  0  0  0
    6.5551    0.4886   -0.5987 O   0  0  0  0  0  0  0  0  0  0  0  0
    2.9945   -0.5113   -0.0423 C   0  0  0  0  0  0  0  0  0  0  0  0
   -1.6687   -1.4620    0.7290 C   0  0  0  0  0  0  0  0  0  0  0  0
   -3.0065   -1.2009    0.5831 C   0  0  0  0  0  0  0  0  0  0  0  0
   -5.5116   -0.8483    1.3933 H   0  0  0  0  0  0  0  0  0  0  0  0
   -5.9042   -1.7161   -0.1347 H   0  0  0  0  0  0  0  0  0  0  0  0
   -6.7993   -0.1923    0.3188 H   0  0  0  0  0  0  0  0  0  0  0  0
   -2.7702    1.5232   -1.3907 H   0  0  0  0  0  0  0  0  0  0  0  0
   -0.4341    1.0217   -1.1211 H   0  0  0  0  0  0  0  0  0  0  0  0
    0.8922   -1.9974    0.5346 H   0  0  0  0  0  0  0  0  0  0  0  0
    0.6390    1.7234    0.8165 H   0  0  0  0  0  0  0  0  0  0  0  0
    2.5682    3.1810    0.6520 H   0  0  0  0  0  0  0  0  0  0  0  0
    4.7936    2.2962    0.0551 H   0  0  0  0  0  0  0  0  0  0  0  0
    7.4777    0.1192   -0.3240 H   0  0  0  0  0  0  0  0  0  0  0  0
    3.1318   -1.5820   -0.2462 H   0  0  0  0  0  0  0  0  0  0  0  0
   -1.3566   -2.3210    1.3390 H   0  0  0  0  0  0  0  0  0  0  0  0
   -3.7468   -1.8172    1.0513 H   0  0  0  0  0  0  0  0  0  0  0  0
  1  2  1  0
  2  3  2  0
  2  4  1  0
  4  5  2  0
  5  6  1  0
  6  7  2  0
  7  8  1  0
  8  9  1  0
  9 10  2  0
 10 11  1  0
 11 12  2  0
 12 13  1  0
 13 14  1  0
 14 15  2  0
 14 16  1  0
 13 17  2  0
  7 18  1  0
 18 19  2  0
 19  4  1  0
 17  9  1  0
  1 20  1  0
  1 21  1  0
  1 22  1  0
  5 23  1  0
  6 24  1  0
  8 25  1  0
 10 26  1  0
 11 27  1  0
 12 28  1  0
 16 29  1  0
 17 30  1  0
 18 31  1  0
 19 32  1  0
M  END
$$$$
