
     RDKit          3D

 94 97  0  0  0  0  0  0  0  0999 V2000
   -3.2560    0.0287    1.1861 C   0  0  2  0  0  0  0  0  0  0  0  0
   -2.8144   -1.3165    0.7312 C   0  0  0  0  0  0  0  0  0  0  0  0
   -3.6455   -2.4195    1.2467 C   0  0  0  0  0  0  0  0  0  0  0  0
   -3.2835   -2.9682    2.4910 C   0  0  0  0  0  0  0  0  0  0  0  0
   -3.9028   -3.9995    3.1582 C   0  0  0  0  0  0  0  0  0  0  0  0
   -5.0026   -4.5629    2.5456 C   0  0  0  0  0  0  0  0  0  0  0  0
   -5.4379   -4.0957    1.3228 C   0  0  0  0  0  0  0  0  0  0  0  0
   -4.7503   -3.0628    0.7393 C   0  0  0  0  0  0  0  0  0  0  0  0
   -4.6260    0.4507    0.7897 C   0  0  0  0  0  0  0  0  0  0  0  0
   -4.9290    0.5879   -0.9240 S   0  0  0  0  0  0  0  0  0  0  0  0
   -4.5015   -0.5781   -1.7493 O   0  0  0  0  0  0  0  0  0  0  0  0
   -4.0830    1.7591   -1.4420 O   0  0  0  0  0  0  0  0  0  0  0  0
   -6.5994    1.0763   -1.2979 C   0  0  0  0  0  0  0  0  0  0  0  0
   -6.8879    2.4317   -0.6692 C   0  0  0  0  0  0  0  0  0  0  0  0
   -6.7109    1.2734   -2.8003 C   0  0  0  0  0  0  0  0  0  0  0  0
   -7.6283    0.0783   -0.8961 C   0  0  0  0  0  0  0  0  0  0  0  0
   -2.2288    1.0829    0.8139 C   0  0  0  0  0  0  0  0  0  0  0  0
   -2.6894    2.2701    1.3413 O   0  0  0  0  0  0  0  0  0  0  0  0
   -1.1448    1.3701    0.2403 N   0  0  0  0  0  0  0  0  0  0  0  0
   -0.2069    0.6009   -0.4801 C   0  0  1  0  0  0  0  0  0  0  0  0
    0.0416    1.1034   -1.8828 C   0  0  0  0  0  0  0  0  0  0  0  0
    0.5438    2.4896   -1.9143 C   0  0  0  0  0  0  0  0  0  0  0  0
    0.8229    3.0838   -3.1480 C   0  0  0  0  0  0  0  0  0  0  0  0
    1.2558    4.3251   -2.8740 N   0  0  0  0  0  0  0  0  0  0  0  0
    1.2359    4.4664   -1.5303 C   0  0  0  0  0  0  0  0  0  0  0  0
    0.8006    3.3486   -0.9159 N   0  0  0  0  0  0  0  0  0  0  0  0
    1.0931    0.3499    0.2510 C   0  0  0  0  0  0  0  0  0  0  0  0
    0.7440   -0.1131    1.5166 O   0  0  0  0  0  0  0  0  0  0  0  0
    2.3255    0.5012   -0.1373 N   0  0  0  0  0  0  0  0  0  0  0  0
    3.4943    0.2366    0.6307 C   0  0  1  0  0  0  0  0  0  0  0  0
    4.4008   -0.7172   -0.1610 C   0  0  0  0  0  0  0  0  0  0  0  0
    3.6958   -2.0320   -0.4528 C   0  0  0  0  0  0  0  0  0  0  0  0
    3.2792   -2.7683    0.7794 C   0  0  0  0  0  0  0  0  0  0  0  0
    4.4819   -3.3936    1.4097 C   0  0  0  0  0  0  0  0  0  0  0  0
    4.9219   -4.5720    0.5702 C   0  0  0  0  0  0  0  0  0  0  0  0
    4.4816   -4.3457   -0.8518 C   0  0  0  0  0  0  0  0  0  0  0  0
    4.6150   -2.8887   -1.2655 C   0  0  0  0  0  0  0  0  0  0  0  0
    4.2592    1.5236    0.8371 C   0  0  1  0  0  0  0  0  0  0  0  0
    5.4078    1.3199    1.6143 O   0  0  0  0  0  0  0  0  0  0  0  0
    4.7444    2.1187   -0.4799 C   0  0  1  0  0  0  0  0  0  0  0  0
    3.7316    2.3690   -1.3783 O   0  0  0  0  0  0  0  0  0  0  0  0
    5.3723    3.4608   -0.1328 C   0  0  0  0  0  0  0  0  0  0  0  0
    5.9557    4.3272   -1.1874 C   0  0  0  0  0  0  0  0  0  0  0  0
    6.8820    3.5725   -0.2741 C   0  0  0  0  0  0  0  0  0  0  0  0
   -3.2457    0.0024    2.3083 H   0  0  0  0  0  0  0  0  0  0  0  0
   -2.7748   -1.3790   -0.3588 H   0  0  0  0  0  0  0  0  0  0  0  0
   -1.7763   -1.4979    1.1283 H   0  0  0  0  0  0  0  0  0  0  0  0
   -2.4121   -2.5465    3.0114 H   0  0  0  0  0  0  0  0  0  0  0  0
   -3.5472   -4.3475    4.1091 H   0  0  0  0  0  0  0  0  0  0  0  0
   -5.5441   -5.3758    3.0055 H   0  0  0  0  0  0  0  0  0  0  0  0
   -6.2899   -4.4920    0.7916 H   0  0  0  0  0  0  0  0  0  0  0  0
   -5.0786   -2.6909   -0.2176 H   0  0  0  0  0  0  0  0  0  0  0  0
   -5.3363   -0.2374    1.3123 H   0  0  0  0  0  0  0  0  0  0  0  0
   -4.8056    1.4388    1.2794 H   0  0  0  0  0  0  0  0  0  0  0  0
   -7.9256    2.7284   -0.8156 H   0  0  0  0  0  0  0  0  0  0  0  0
   -6.6327    2.3858    0.4029 H   0  0  0  0  0  0  0  0  0  0  0  0
   -6.2568    3.1978   -1.1599 H   0  0  0  0  0  0  0  0  0  0  0  0
   -7.7791    1.1259   -3.1271 H   0  0  0  0  0  0  0  0  0  0  0  0
   -6.1369    0.4536   -3.2767 H   0  0  0  0  0  0  0  0  0  0  0  0
   -6.3212    2.2643   -3.1273 H   0  0  0  0  0  0  0  0  0  0  0  0
   -7.2453   -0.9446   -0.7250 H   0  0  0  0  0  0  0  0  0  0  0  0
   -8.0503    0.4226    0.0781 H   0  0  0  0  0  0  0  0  0  0  0  0
   -8.5059    0.1069   -1.6019 H   0  0  0  0  0  0  0  0  0  0  0  0
   -2.3259    3.1881    1.2665 H   0  0  0  0  0  0  0  0  0  0  0  0
   -0.6139   -0.4246   -0.6099 H   0  0  0  0  0  0  0  0  0  0  0  0
   -0.8694    0.9530   -2.4818 H   0  0  0  0  0  0  0  0  0  0  0  0
    0.8397    0.4769   -2.3509 H   0  0  0  0  0  0  0  0  0  0  0  0
    0.7273    2.6666   -4.1599 H   0  0  0  0  0  0  0  0  0  0  0  0
    1.5406    5.3854   -1.0316 H   0  0  0  0  0  0  0  0  0  0  0  0
    0.6735    3.1413    0.0845 H   0  0  0  0  0  0  0  0  0  0  0  0
    1.4341   -0.1192    2.2390 H   0  0  0  0  0  0  0  0  0  0  0  0
    3.3217   -0.2428    1.6102 H   0  0  0  0  0  0  0  0  0  0  0  0
    5.3599   -0.8825    0.3621 H   0  0  0  0  0  0  0  0  0  0  0  0
    4.6368   -0.2712   -1.1529 H   0  0  0  0  0  0  0  0  0  0  0  0
    2.8248   -1.7614   -1.0890 H   0  0  0  0  0  0  0  0  0  0  0  0
    2.6639   -2.1658    1.4695 H   0  0  0  0  0  0  0  0  0  0  0  0
    2.6102   -3.5963    0.4413 H   0  0  0  0  0  0  0  0  0  0  0  0
    5.3276   -2.6467    1.4152 H   0  0  0  0  0  0  0  0  0  0  0  0
    4.2902   -3.7616    2.4408 H   0  0  0  0  0  0  0  0  0  0  0  0
    4.4309   -5.4784    0.9882 H   0  0  0  0  0  0  0  0  0  0  0  0
    6.0385   -4.7170    0.6312 H   0  0  0  0  0  0  0  0  0  0  0  0
    5.1344   -4.9661   -1.5299 H   0  0  0  0  0  0  0  0  0  0  0  0
    3.4549   -4.7410   -1.0214 H   0  0  0  0  0  0  0  0  0  0  0  0
    5.6804   -2.6247   -1.0767 H   0  0  0  0  0  0  0  0  0  0  0  0
    4.3769   -2.8418   -2.3405 H   0  0  0  0  0  0  0  0  0  0  0  0
    3.5781    2.2687    1.2950 H   0  0  0  0  0  0  0  0  0  0  0  0
    5.1058    0.6797    2.3326 H   0  0  0  0  0  0  0  0  0  0  0  0
    5.5211    1.5231   -0.9712 H   0  0  0  0  0  0  0  0  0  0  0  0
    4.0240    2.2276   -2.3091 H   0  0  0  0  0  0  0  0  0  0  0  0
    4.9319    3.9640    0.7361 H   0  0  0  0  0  0  0  0  0  0  0  0
    5.9277    5.4340   -1.0000 H   0  0  0  0  0  0  0  0  0  0  0  0
    5.8928    4.0658   -2.2567 H   0  0  0  0  0  0  0  0  0  0  0  0
    7.4444    4.1243    0.4950 H   0  0  0  0  0  0  0  0  0  0  0  0
    7.4236    2.7550   -0.8036 H   0  0  0  0  0  0  0  0  0  0  0  0
  1  2  1  0
  2  3  1  0
  3  4  2  0
  4  5  1  0
  5  6  2  0
  6  7  1  0
  7  8  2  0
  1  9  1  0
  9 10  1  0
 10 11  2  0
 10 12  2  0
 10 13  1  0
 13 14  1  0
 13 15  1  0
 13 16  1  0
  1 17  1  0
 17 18  1  0
 17 19  2  3
 19 20  1  0
 20 21  1  0
 21 22  1  0
 22 23  2  0
 23 24  1  0
 24 25  2  0
 25 26  1  0
 20 27  1  0
 27 28  1  0
 27 29  2  3
 29 30  1  0
 30 31  1  0
 31 32  1  0
 32 33  1  0
 33 34  1  0
 34 35  1  0
 35 36  1  0
 36 37  1  0
 30 38  1  0
 38 39  1  0
 38 40  1  0
 40 41  1  0
 40 42  1  0
 42 43  1  0
 43 44  1  0
  8  3  1  0
 26 22  1  0
 37 32  1  0
 44 42  1  0
  1 45  1  1
  2 46  1  0
  2 47  1  0
  4 48  1  0
  5 49  1  0
  6 50  1  0
  7 51  1  0
  8 52  1  0
  9 53  1  0
  9 54  1  0
 14 55  1  0
 14 56  1  0
 14 57  1  0
 15 58  1  0
 15 59  1  0
 15 60  1  0
 16 61  1  0
 16 62  1  0
 16 63  1  0
 18 64  1  0
 20 65  1  6
 21 66  1  0
 21 67  1  0
 23 68  1  0
 25 69  1  0
 26 70  1  0
 28 71  1  0
 30 72  1  1
 31 73  1  0
 31 74  1  0
 32 75  1  0
 33 76  1  0
 33 77  1  0
 34 78  1  0
 34 79  1  0
 35 80  1  0
 35 81  1  0
 36 82  1  0
 36 83  1  0
 37 84  1  0
 37 85  1  0
 38 86  1  1
 39 87  1  0
 40 88  1  6
 41 89  1  0
 42 90  1  0
 43 91  1  0
 43 92  1  0
 44 93  1  0
 44 94  1  0
M  END
$$$$
