@<TRIPOS>MOLECULE
*****
 94 97 0 0 0
SMALL
GASTEIGER

@<TRIPOS>ATOM
      1 C          -3.2560    0.0287    1.1861 C.3     1  UNL1        0.0578
      2 C          -2.8144   -1.3165    0.7312 C.3     1  UNL1       -0.0150
      3 C          -3.6455   -2.4195    1.2467 C.ar    1  UNL1       -0.0466
      4 C          -3.2835   -2.9682    2.4910 C.ar    1  UNL1       -0.0586
      5 C          -3.9028   -3.9995    3.1582 C.ar    1  UNL1       -0.0615
      6 C          -5.0026   -4.5629    2.5456 C.ar    1  UNL1       -0.0617
      7 C          -5.4379   -4.0957    1.3228 C.ar    1  UNL1       -0.0615
      8 C          -4.7503   -3.0628    0.7393 C.ar    1  UNL1       -0.0586
      9 C          -4.6260    0.4507    0.7897 C.3     1  UNL1        0.0778
     10 S          -4.9290    0.5879   -0.9240 S.O2    1  UNL1       -0.0255
     11 O          -4.5015   -0.5781   -1.7493 O.2     1  UNL1       -0.1738
     12 O          -4.0830    1.7591   -1.4420 O.2     1  UNL1       -0.1738
     13 C          -6.5994    1.0763   -1.2979 C.3     1  UNL1        0.0795
     14 C          -6.8879    2.4317   -0.6692 C.3     1  UNL1       -0.0405
     15 C          -6.7109    1.2734   -2.8003 C.3     1  UNL1       -0.0405
     16 C          -7.6283    0.0783   -0.8961 C.3     1  UNL1       -0.0405
     17 C          -2.2288    1.0829    0.8139 C.2     1  UNL1        0.1882
     18 O          -2.6894    2.2701    1.3413 O.2     1  UNL1       -0.4954
     19 N          -1.1448    1.3701    0.2403 N.2     1  UNL1       -0.2412
     20 C          -0.2069    0.6009   -0.4801 C.3     1  UNL1        0.1342
     21 C           0.0416    1.1034   -1.8828 C.3     1  UNL1        0.0201
     22 C           0.5438    2.4896   -1.9143 C.ar    1  UNL1        0.0378
     23 C           0.8229    3.0838   -3.1480 C.ar    1  UNL1        0.0485
     24 N           1.2558    4.3251   -2.8740 N.ar    1  UNL1       -0.2440
     25 C           1.2359    4.4664   -1.5303 C.ar    1  UNL1        0.0935
     26 N           0.8006    3.3486   -0.9159 N.ar    1  UNL1       -0.3481
     27 C           1.0931    0.3499    0.2510 C.2     1  UNL1        0.2086
     28 O           0.7440   -0.1131    1.5166 O.2     1  UNL1       -0.4942
     29 N           2.3255    0.5012   -0.1373 N.2     1  UNL1       -0.2469
     30 C           3.4943    0.2366    0.6307 C.3     1  UNL1        0.0828
     31 C           4.4008   -0.7172   -0.1610 C.3     1  UNL1       -0.0251
     32 C           3.6958   -2.0320   -0.4528 C.3     1  UNL1       -0.0390
     33 C           3.2792   -2.7683    0.7794 C.3     1  UNL1       -0.0501
     34 C           4.4819   -3.3936    1.4097 C.3     1  UNL1       -0.0528
     35 C           4.9219   -4.5720    0.5702 C.3     1  UNL1       -0.0530
     36 C           4.4816   -4.3457   -0.8518 C.3     1  UNL1       -0.0528
     37 C           4.6150   -2.8887   -1.2655 C.3     1  UNL1       -0.0501
     38 C           4.2592    1.5236    0.8371 C.3     1  UNL1        0.1035
     39 O           5.4078    1.3199    1.6143 O.3     1  UNL1       -0.3871
     40 C           4.7444    2.1187   -0.4799 C.3     1  UNL1        0.0859
     41 O           3.7316    2.3690   -1.3783 O.3     1  UNL1       -0.3889
     42 C           5.3723    3.4608   -0.1328 C.3     1  UNL1       -0.0124
     43 C           5.9557    4.3272   -1.1874 C.3     1  UNL1       -0.0475
     44 C           6.8820    3.5725   -0.2741 C.3     1  UNL1       -0.0475
     45 H          -3.2457    0.0024    2.3083 H       1  UNL1        0.0414
     46 H          -2.7748   -1.3790   -0.3588 H       1  UNL1        0.0321
     47 H          -1.7763   -1.4979    1.1283 H       1  UNL1        0.0321
     48 H          -2.4121   -2.5465    3.0114 H       1  UNL1        0.0620
     49 H          -3.5472   -4.3475    4.1091 H       1  UNL1        0.0618
     50 H          -5.5441   -5.3758    3.0055 H       1  UNL1        0.0618
     51 H          -6.2899   -4.4920    0.7916 H       1  UNL1        0.0618
     52 H          -5.0786   -2.6909   -0.2176 H       1  UNL1        0.0620
     53 H          -5.3363   -0.2374    1.3123 H       1  UNL1        0.0508
     54 H          -4.8056    1.4388    1.2794 H       1  UNL1        0.0508
     55 H          -7.9256    2.7284   -0.8156 H       1  UNL1        0.0251
     56 H          -6.6327    2.3858    0.4029 H       1  UNL1        0.0251
     57 H          -6.2568    3.1978   -1.1599 H       1  UNL1        0.0251
     58 H          -7.7791    1.1259   -3.1271 H       1  UNL1        0.0251
     59 H          -6.1369    0.4536   -3.2767 H       1  UNL1        0.0251
     60 H          -6.3212    2.2643   -3.1273 H       1  UNL1        0.0251
     61 H          -7.2453   -0.9446   -0.7250 H       1  UNL1        0.0251
     62 H          -8.0503    0.4226    0.0781 H       1  UNL1        0.0251
     63 H          -8.5059    0.1069   -1.6019 H       1  UNL1        0.0251
     64 H          -2.3259    3.1881    1.2665 H       1  UNL1        0.2934
     65 H          -0.6139   -0.4246   -0.6099 H       1  UNL1        0.0647
     66 H          -0.8694    0.9530   -2.4818 H       1  UNL1        0.0354
     67 H           0.8397    0.4769   -2.3509 H       1  UNL1        0.0354
     68 H           0.7273    2.6666   -4.1599 H       1  UNL1        0.0848
     69 H           1.5406    5.3854   -1.0316 H       1  UNL1        0.1027
     70 H           0.6735    3.1413    0.0845 H       1  UNL1        0.1665
     71 H           1.4341   -0.1192    2.2390 H       1  UNL1        0.2935
     72 H           3.3217   -0.2428    1.6102 H       1  UNL1        0.0572
     73 H           5.3599   -0.8825    0.3621 H       1  UNL1        0.0289
     74 H           4.6368   -0.2712   -1.1529 H       1  UNL1        0.0289
     75 H           2.8248   -1.7614   -1.0890 H       1  UNL1        0.0301
     76 H           2.6639   -2.1658    1.4695 H       1  UNL1        0.0268
     77 H           2.6102   -3.5963    0.4413 H       1  UNL1        0.0268
     78 H           5.3276   -2.6467    1.4152 H       1  UNL1        0.0265
     79 H           4.2902   -3.7616    2.4408 H       1  UNL1        0.0265
     80 H           4.4309   -5.4784    0.9882 H       1  UNL1        0.0265
     81 H           6.0385   -4.7170    0.6312 H       1  UNL1        0.0265
     82 H           5.1344   -4.9661   -1.5299 H       1  UNL1        0.0265
     83 H           3.4549   -4.7410   -1.0214 H       1  UNL1        0.0265
     84 H           5.6804   -2.6247   -1.0767 H       1  UNL1        0.0268
     85 H           4.3769   -2.8418   -2.3405 H       1  UNL1        0.0268
     86 H           3.5781    2.2687    1.2950 H       1  UNL1        0.0640
     87 H           5.1058    0.6797    2.3326 H       1  UNL1        0.2100
     88 H           5.5211    1.5231   -0.9712 H       1  UNL1        0.0622
     89 H           4.0240    2.2276   -2.3091 H       1  UNL1        0.2099
     90 H           4.9319    3.9640    0.7361 H       1  UNL1        0.0326
     91 H           5.9277    5.4340   -1.0000 H       1  UNL1        0.0269
     92 H           5.8928    4.0658   -2.2567 H       1  UNL1        0.0269
     93 H           7.4444    4.1243    0.4950 H       1  UNL1        0.0269
     94 H           7.4236    2.7550   -0.8036 H       1  UNL1        0.0269
@<TRIPOS>BOND
     1     1     2    1
     2     2     3    1
     3     3     4   ar
     4     4     5   ar
     5     5     6   ar
     6     6     7   ar
     7     7     8   ar
     8     1     9    1
     9     9    10    1
    10    10    11    2
    11    10    12    2
    12    10    13    1
    13    13    14    1
    14    13    15    1
    15    13    16    1
    16     1    17    1
    17    17    18    1
    18    17    19    2
    19    19    20    1
    20    20    21    1
    21    21    22    1
    22    22    23   ar
    23    23    24   ar
    24    24    25   ar
    25    25    26   ar
    26    20    27    1
    27    27    28    1
    28    27    29    2
    29    29    30    1
    30    30    31    1
    31    31    32    1
    32    32    33    1
    33    33    34    1
    34    34    35    1
    35    35    36    1
    36    36    37    1
    37    30    38    1
    38    38    39    1
    39    38    40    1
    40    40    41    1
    41    40    42    1
    42    42    43    1
    43    43    44    1
    44     8     3   ar
    45    26    22   ar
    46    37    32    1
    47    44    42    1
    48     1    45    1
    49     2    46    1
    50     2    47    1
    51     4    48    1
    52     5    49    1
    53     6    50    1
    54     7    51    1
    55     8    52    1
    56     9    53    1
    57     9    54    1
    58    14    55    1
    59    14    56    1
    60    14    57    1
    61    15    58    1
    62    15    59    1
    63    15    60    1
    64    16    61    1
    65    16    62    1
    66    16    63    1
    67    18    64    1
    68    20    65    1
    69    21    66    1
    70    21    67    1
    71    23    68    1
    72    25    69    1
    73    26    70    1
    74    28    71    1
    75    30    72    1
    76    31    73    1
    77    31    74    1
    78    32    75    1
    79    33    76    1
    80    33    77    1
    81    34    78    1
    82    34    79    1
    83    35    80    1
    84    35    81    1
    85    36    82    1
    86    36    83    1
    87    37    84    1
    88    37    85    1
    89    38    86    1
    90    39    87    1
    91    40    88    1
    92    41    89    1
    93    42    90    1
    94    43    91    1
    95    43    92    1
    96    44    93    1
    97    44    94    1
