@<TRIPOS>MOLECULE
*****
 33 34 0 0 0
SMALL
GASTEIGER

@<TRIPOS>ATOM
      1 C           3.6398    1.6602    0.1951 C.3     1  UNL1        0.0124
      2 N           2.8105    0.4898    0.4602 N.am    1  UNL1       -0.2277
      3 C           3.3058   -0.8441    0.7103 C.2     1  UNL1        0.3146
      4 O           4.5348   -0.9912    0.6917 O.2     1  UNL1       -0.2518
      5 N           2.3181   -1.8700    0.9564 N.am    1  UNL1       -0.2386
      6 C           0.8890   -1.6551    0.9693 C.2     1  UNL1        0.2393
      7 O           0.4002   -2.5412    1.7326 O.2     1  UNL1       -0.2739
      8 C           0.5232   -0.5040    0.1052 C.3     1  UNL1        0.1417
      9 C           0.8601   -0.8646   -1.3496 C.3     1  UNL1       -0.0389
     10 C           1.3927    0.6260    0.4876 C.2     1  UNL1        0.2416
     11 O           0.8666    1.7129    0.8384 O.2     1  UNL1       -0.2737
     12 C          -0.9057   -0.2078    0.1454 C.2     1  UNL1       -0.0501
     13 C          -1.9483   -0.7358    0.7832 C.2     1  UNL1       -0.0833
     14 C          -3.3764   -0.3680    0.7647 C.3     1  UNL1       -0.0345
     15 C          -3.6527    0.8085   -0.1466 C.3     1  UNL1       -0.0493
     16 C          -2.6757    0.6776   -1.2969 C.3     1  UNL1       -0.0490
     17 C          -1.2916    0.9600   -0.7313 C.3     1  UNL1       -0.0303
     18 H           4.6442    1.4312    0.6472 H       1  UNL1        0.0434
     19 H           3.8363    1.7987   -0.8906 H       1  UNL1        0.0434
     20 H           3.2369    2.5598    0.6597 H       1  UNL1        0.0434
     21 H           2.8226   -2.7797    1.1205 H       1  UNL1        0.1591
     22 H           1.1258    0.0549   -1.9072 H       1  UNL1        0.0247
     23 H           1.6983   -1.5771   -1.3825 H       1  UNL1        0.0247
     24 H          -0.0011   -1.3601   -1.8258 H       1  UNL1        0.0247
     25 H          -1.6542   -1.5708    1.4080 H       1  UNL1        0.0572
     26 H          -3.6467   -0.1276    1.8250 H       1  UNL1        0.0307
     27 H          -3.9711   -1.2395    0.4213 H       1  UNL1        0.0307
     28 H          -3.4599    1.7183    0.4397 H       1  UNL1        0.0268
     29 H          -4.7026    0.7022   -0.4943 H       1  UNL1        0.0268
     30 H          -2.9727    1.4116   -2.0409 H       1  UNL1        0.0268
     31 H          -2.6793   -0.3700   -1.6788 H       1  UNL1        0.0268
     32 H          -1.3650    1.8592   -0.0910 H       1  UNL1        0.0310
     33 H          -0.6021    1.1360   -1.5555 H       1  UNL1        0.0310
@<TRIPOS>BOND
     1     1     2    1
     2     2     3   am
     3     3     4    2
     4     3     5   am
     5     5     6   am
     6     6     7    2
     7     6     8    1
     8     8     9    1
     9     8    10    1
    10    10    11    2
    11     8    12    1
    12    12    13    2
    13    13    14    1
    14    14    15    1
    15    15    16    1
    16    16    17    1
    17    10     2   am
    18    17    12    1
    19     1    18    1
    20     1    19    1
    21     1    20    1
    22     5    21    1
    23     9    22    1
    24     9    23    1
    25     9    24    1
    26    13    25    1
    27    14    26    1
    28    14    27    1
    29    15    28    1
    30    15    29    1
    31    16    30    1
    32    16    31    1
    33    17    32    1
    34    17    33    1
