@<TRIPOS>MOLECULE
*****
 49 52 0 0 0
SMALL
GASTEIGER

@<TRIPOS>ATOM
      1 C           7.2022   -1.3683    0.7500 C.3     1  UNL1        0.0124
      2 C           6.6678   -0.1524    1.4074 C.2     1  UNL1        0.2126
      3 O           7.3534    0.4575    2.2648 O.2     1  UNL1       -0.2759
      4 N           5.3804    0.3705    1.1048 N.am    1  UNL1       -0.2981
      5 C           4.7116    1.5253    1.6399 C.3     1  UNL1        0.0182
      6 C           4.0913    2.1538    0.4219 C.3     1  UNL1        0.0016
      7 C           3.6168    0.9597   -0.3919 C.3     1  UNL1        0.1173
      8 O           2.2932    0.6655   -0.2101 O.3     1  UNL1       -0.4857
      9 C           1.3029    0.5606   -1.1495 C.ar    1  UNL1        0.1394
     10 C           1.5503    0.7554   -2.4877 C.ar    1  UNL1        0.0692
     11 N           0.5017    0.6290   -3.3392 N.ar    1  UNL1       -0.2592
     12 C          -0.7370    0.3270   -2.9205 C.ar    1  UNL1        0.0346
     13 C          -1.0355    0.1222   -1.5881 C.ar    1  UNL1        0.0175
     14 C          -2.4109   -0.2102   -1.1506 C.3     1  UNL1        0.1606
     15 C          -3.0991    1.0104   -0.5598 C.3     1  UNL1        0.1308
     16 O          -4.4093    0.6461   -0.1770 O.3     1  UNL1       -0.4835
     17 C          -4.6444   -0.5871    0.4181 C.ar    1  UNL1        0.1742
     18 C          -3.6466   -1.5390    0.4013 C.ar    1  UNL1        0.1637
     19 C          -3.9337   -2.7488    1.0079 C.ar    1  UNL1       -0.0162
     20 C          -5.1485   -3.0074    1.6033 C.ar    1  UNL1       -0.0574
     21 C          -6.1207   -2.0317    1.6001 C.ar    1  UNL1       -0.0459
     22 C          -5.8708   -0.7958    0.9979 C.ar    1  UNL1        0.0817
     23 C          -6.8663    0.2538    0.9742 C.2     1  UNL1        0.2452
     24 N          -6.5702    1.4945    0.3517 N.am    1  UNL1       -0.3252
     25 O          -8.0104    0.1360    1.4836 O.2     1  UNL1       -0.2703
     26 O          -2.4148   -1.2769   -0.2022 O.3     1  UNL1       -0.4771
     27 C           0.0011    0.2427   -0.7041 C.ar    1  UNL1       -0.0102
     28 C           4.4602   -0.2016    0.1473 C.3     1  UNL1        0.0517
     29 H           7.5793   -1.1502   -0.2891 H       1  UNL1        0.0323
     30 H           8.0067   -1.7755    1.3887 H       1  UNL1        0.0323
     31 H           6.4136   -2.1520    0.6411 H       1  UNL1        0.0323
     32 H           3.9543    1.2721    2.3992 H       1  UNL1        0.0466
     33 H           5.4792    2.1669    2.1101 H       1  UNL1        0.0466
     34 H           4.9037    2.6571   -0.1454 H       1  UNL1        0.0317
     35 H           3.2591    2.8414    0.6606 H       1  UNL1        0.0317
     36 H           3.8558    1.1231   -1.4577 H       1  UNL1        0.0749
     37 H           2.5442    1.0039   -2.8811 H       1  UNL1        0.0867
     38 H          -1.5653    0.2302   -3.6222 H       1  UNL1        0.0833
     39 H          -3.0294   -0.5450   -1.9990 H       1  UNL1        0.0820
     40 H          -3.1491    1.7557   -1.4046 H       1  UNL1        0.0738
     41 H          -2.5494    1.4029    0.3051 H       1  UNL1        0.0738
     42 H          -3.1825   -3.5187    1.0169 H       1  UNL1        0.0655
     43 H          -5.3825   -3.9469    2.0788 H       1  UNL1        0.0619
     44 H          -7.0984   -2.1809    2.0553 H       1  UNL1        0.0626
     45 H          -6.1935    2.2749    0.9565 H       1  UNL1        0.1453
     46 H          -6.7043    1.6770   -0.6695 H       1  UNL1        0.1453
     47 H          -0.1656    0.0926    0.3732 H       1  UNL1        0.0659
     48 H           3.8018   -0.9047    0.7371 H       1  UNL1        0.0501
     49 H           5.0075   -0.7147   -0.6491 H       1  UNL1        0.0501
@<TRIPOS>BOND
     1     1     2    1
     2     2     3    2
     3     2     4   am
     4     4     5    1
     5     5     6    1
     6     6     7    1
     7     7     8    1
     8     8     9    1
     9     9    10   ar
    10    10    11   ar
    11    11    12   ar
    12    12    13   ar
    13    13    14    1
    14    14    15    1
    15    15    16    1
    16    16    17    1
    17    17    18   ar
    18    18    19   ar
    19    19    20   ar
    20    20    21   ar
    21    21    22   ar
    22    22    23    1
    23    23    24   am
    24    23    25    2
    25    18    26    1
    26    13    27   ar
    27     7    28    1
    28    28     4    1
    29    27     9   ar
    30    26    14    1
    31    22    17   ar
    32     1    29    1
    33     1    30    1
    34     1    31    1
    35     5    32    1
    36     5    33    1
    37     6    34    1
    38     6    35    1
    39     7    36    1
    40    10    37    1
    41    12    38    1
    42    14    39    1
    43    15    40    1
    44    15    41    1
    45    19    42    1
    46    20    43    1
    47    21    44    1
    48    24    45    1
    49    24    46    1
    50    27    47    1
    51    28    48    1
    52    28    49    1
