
     RDKit          3D

 49 52  0  0  0  0  0  0  0  0999 V2000
    7.2022   -1.3683    0.7500 C   0  0  0  0  0  0  0  0  0  0  0  0
    6.6678   -0.1524    1.4074 C   0  0  0  0  0  0  0  0  0  0  0  0
    7.3534    0.4575    2.2648 O   0  0  0  0  0  0  0  0  0  0  0  0
    5.3804    0.3705    1.1048 N   0  0  0  0  0  0  0  0  0  0  0  0
    4.7116    1.5253    1.6399 C   0  0  0  0  0  0  0  0  0  0  0  0
    4.0913    2.1538    0.4219 C   0  0  0  0  0  0  0  0  0  0  0  0
    3.6168    0.9597   -0.3919 C   0  0  2  0  0  0  0  0  0  0  0  0
    2.2932    0.6655   -0.2101 O   0  0  0  0  0  0  0  0  0  0  0  0
    1.3029    0.5606   -1.1495 C   0  0  0  0  0  0  0  0  0  0  0  0
    1.5503    0.7554   -2.4877 C   0  0  0  0  0  0  0  0  0  0  0  0
    0.5017    0.6290   -3.3392 N   0  0  0  0  0  0  0  0  0  0  0  0
   -0.7370    0.3270   -2.9205 C   0  0  0  0  0  0  0  0  0  0  0  0
   -1.0355    0.1222   -1.5881 C   0  0  0  0  0  0  0  0  0  0  0  0
   -2.4109   -0.2102   -1.1506 C   0  0  0  0  0  0  0  0  0  0  0  0
   -3.0991    1.0104   -0.5598 C   0  0  0  0  0  0  0  0  0  0  0  0
   -4.4093    0.6461   -0.1770 O   0  0  0  0  0  0  0  0  0  0  0  0
   -4.6444   -0.5871    0.4181 C   0  0  0  0  0  0  0  0  0  0  0  0
   -3.6466   -1.5390    0.4013 C   0  0  0  0  0  0  0  0  0  0  0  0
   -3.9337   -2.7488    1.0079 C   0  0  0  0  0  0  0  0  0  0  0  0
   -5.1485   -3.0074    1.6033 C   0  0  0  0  0  0  0  0  0  0  0  0
   -6.1207   -2.0317    1.6001 C   0  0  0  0  0  0  0  0  0  0  0  0
   -5.8708   -0.7958    0.9979 C   0  0  0  0  0  0  0  0  0  0  0  0
   -6.8663    0.2538    0.9742 C   0  0  0  0  0  0  0  0  0  0  0  0
   -6.5702    1.4945    0.3517 N   0  0  0  0  0  0  0  0  0  0  0  0
   -8.0104    0.1360    1.4836 O   0  0  0  0  0  0  0  0  0  0  0  0
   -2.4148   -1.2769   -0.2022 O   0  0  0  0  0  0  0  0  0  0  0  0
    0.0011    0.2427   -0.7041 C   0  0  0  0  0  0  0  0  0  0  0  0
    4.4602   -0.2016    0.1473 C   0  0  0  0  0  0  0  0  0  0  0  0
    7.5793   -1.1502   -0.2891 H   0  0  0  0  0  0  0  0  0  0  0  0
    8.0067   -1.7755    1.3887 H   0  0  0  0  0  0  0  0  0  0  0  0
    6.4136   -2.1520    0.6411 H   0  0  0  0  0  0  0  0  0  0  0  0
    3.9543    1.2721    2.3992 H   0  0  0  0  0  0  0  0  0  0  0  0
    5.4792    2.1669    2.1101 H   0  0  0  0  0  0  0  0  0  0  0  0
    4.9037    2.6571   -0.1454 H   0  0  0  0  0  0  0  0  0  0  0  0
    3.2591    2.8414    0.6606 H   0  0  0  0  0  0  0  0  0  0  0  0
    3.8558    1.1231   -1.4577 H   0  0  0  0  0  0  0  0  0  0  0  0
    2.5442    1.0039   -2.8811 H   0  0  0  0  0  0  0  0  0  0  0  0
   -1.5653    0.2302   -3.6222 H   0  0  0  0  0  0  0  0  0  0  0  0
   -3.0294   -0.5450   -1.9990 H   0  0  0  0  0  0  0  0  0  0  0  0
   -3.1491    1.7557   -1.4046 H   0  0  0  0  0  0  0  0  0  0  0  0
   -2.5494    1.4029    0.3051 H   0  0  0  0  0  0  0  0  0  0  0  0
   -3.1825   -3.5187    1.0169 H   0  0  0  0  0  0  0  0  0  0  0  0
   -5.3825   -3.9469    2.0788 H   0  0  0  0  0  0  0  0  0  0  0  0
   -7.0984   -2.1809    2.0553 H   0  0  0  0  0  0  0  0  0  0  0  0
   -6.1935    2.2749    0.9565 H   0  0  0  0  0  0  0  0  0  0  0  0
   -6.7043    1.6770   -0.6695 H   0  0  0  0  0  0  0  0  0  0  0  0
   -0.1656    0.0926    0.3732 H   0  0  0  0  0  0  0  0  0  0  0  0
    3.8018   -0.9047    0.7371 H   0  0  0  0  0  0  0  0  0  0  0  0
    5.0075   -0.7147   -0.6491 H   0  0  0  0  0  0  0  0  0  0  0  0
  1  2  1  0
  2  3  2  0
  2  4  1  0
  4  5  1  0
  5  6  1  0
  6  7  1  0
  7  8  1  0
  8  9  1  0
  9 10  2  0
 10 11  1  0
 11 12  2  0
 12 13  1  0
 13 14  1  0
 14 15  1  0
 15 16  1  0
 16 17  1  0
 17 18  2  0
 18 19  1  0
 19 20  2  0
 20 21  1  0
 21 22  2  0
 22 23  1  0
 23 24  1  0
 23 25  2  0
 18 26  1  0
 13 27  2  0
  7 28  1  0
 28  4  1  0
 27  9  1  0
 26 14  1  0
 22 17  1  0
  1 29  1  0
  1 30  1  0
  1 31  1  0
  5 32  1  0
  5 33  1  0
  6 34  1  0
  6 35  1  0
  7 36  1  6
 10 37  1  0
 12 38  1  0
 14 39  1  0
 15 40  1  0
 15 41  1  0
 19 42  1  0
 20 43  1  0
 21 44  1  0
 24 45  1  0
 24 46  1  0
 27 47  1  0
 28 48  1  0
 28 49  1  0
M  END
$$$$
