@<TRIPOS>MOLECULE
*****
 13 12 0 0 0
SMALL
GASTEIGER

@<TRIPOS>ATOM
      1 O           1.5491    0.3229   -0.9048 O.3     1  UNL1       -0.3949
      2 C           0.9469    0.7543    0.2764 C.3     1  UNL1        0.0463
      3 C           0.1280   -0.4133    0.8433 C.3     1  UNL1       -0.0064
      4 C          -0.9078   -0.7808   -0.2016 C.3     1  UNL1        0.0463
      5 O          -1.7088    0.3023   -0.4408 O.3     1  UNL1       -0.3949
      6 H           0.8593    0.3221   -1.6019 H       1  UNL1        0.2094
      7 H           1.7556    1.0510    0.9706 H       1  UNL1        0.0558
      8 H           0.2679    1.6125    0.0953 H       1  UNL1        0.0558
      9 H           0.7961   -1.2775    1.0145 H       1  UNL1        0.0309
     10 H          -0.3564   -0.1280    1.7895 H       1  UNL1        0.0309
     11 H          -1.5756   -1.5723    0.2453 H       1  UNL1        0.0558
     12 H          -0.3961   -1.2053   -1.0872 H       1  UNL1        0.0558
     13 H          -1.3582    1.0121   -0.9985 H       1  UNL1        0.2094
@<TRIPOS>BOND
     1     1     2    1
     2     2     3    1
     3     3     4    1
     4     4     5    1
     5     1     6    1
     6     2     7    1
     7     2     8    1
     8     3     9    1
     9     3    10    1
    10     4    11    1
    11     4    12    1
    12     5    13    1
