@<TRIPOS>MOLECULE
*****
 52 56 0 0 0
SMALL
GASTEIGER

@<TRIPOS>ATOM
      1 O          -3.5452   -0.3866   -2.1937 O.2     1  UNL1       -0.2699
      2 C          -2.6507    0.0259   -1.4204 C.2     1  UNL1        0.2492
      3 C          -2.8991    1.2472   -0.6616 C.ar    1  UNL1        0.0669
      4 C          -2.5787    2.4971   -1.1279 C.ar    1  UNL1       -0.0094
      5 C          -2.8544    3.5824   -0.3384 C.ar    1  UNL1        0.1592
      6 F          -2.5640    4.8593   -0.7350 F       1  UNL1       -0.2025
      7 C          -3.4436    3.4611    0.9103 C.ar    1  UNL1        0.1605
      8 F          -3.7283    4.5008    1.7109 F       1  UNL1       -0.2024
      9 C          -3.7464    2.1805    1.3330 C.ar    1  UNL1        0.0043
     10 C          -3.4919    1.0598    0.5827 C.ar    1  UNL1        0.1011
     11 N          -3.8211   -0.2402    1.0577 N.ar    1  UNL1       -0.1495
     12 N          -4.4511   -0.4841    2.1946 N.ar    1  UNL1       -0.1556
     13 C          -4.6187   -1.8010    2.3695 C.ar    1  UNL1        0.0697
     14 C          -4.0496   -2.4165    1.2573 C.ar    1  UNL1        0.0697
     15 N          -3.5869   -1.3953    0.5082 N.ar    1  UNL1       -0.1556
     16 N          -1.4318   -0.6962   -1.3023 N.am    1  UNL1       -0.2897
     17 C          -1.2335   -1.9227   -2.0895 C.3     1  UNL1        0.0388
     18 C          -1.1241   -3.0589   -1.0800 C.3     1  UNL1        0.0635
     19 O          -0.6847   -2.5661    0.1589 O.3     1  UNL1       -0.3764
     20 C           0.3306   -1.6256   -0.0208 C.3     1  UNL1        0.0666
     21 C          -0.3388   -0.3166   -0.4470 C.3     1  UNL1        0.0537
     22 C           0.6548    0.5805   -1.1511 C.3     1  UNL1       -0.0068
     23 C           1.7761    0.9677   -0.2604 C.ar    1  UNL1       -0.0435
     24 C           1.7347    2.0912    0.5429 C.ar    1  UNL1       -0.0584
     25 C           2.7661    2.4704    1.3760 C.ar    1  UNL1       -0.0594
     26 C           3.8835    1.6704    1.3887 C.ar    1  UNL1       -0.0345
     27 C           3.9614    0.5419    0.6013 C.ar    1  UNL1        0.0864
     28 N           5.1462   -0.2391    0.6641 N.ar    1  UNL1       -0.1503
     29 N           5.9017   -0.5100   -0.3920 N.ar    1  UNL1       -0.1556
     30 C           6.9653   -1.2786   -0.0113 C.ar    1  UNL1        0.0697
     31 C           6.8212   -1.4654    1.3404 C.ar    1  UNL1        0.0697
     32 N           5.7132   -0.8264    1.7237 N.ar    1  UNL1       -0.1556
     33 C           2.9064    0.1798   -0.2319 C.ar    1  UNL1       -0.0313
     34 H          -2.1239    2.6184   -2.0866 H       1  UNL1        0.0655
     35 H          -4.2140    2.0583    2.3192 H       1  UNL1        0.0669
     36 H          -5.0976   -2.3288    3.1988 H       1  UNL1        0.0864
     37 H          -4.0058   -3.4834    1.0681 H       1  UNL1        0.0864
     38 H          -0.3307   -1.8476   -2.7188 H       1  UNL1        0.0487
     39 H          -2.0890   -2.1324   -2.7447 H       1  UNL1        0.0487
     40 H          -0.4830   -3.8692   -1.4244 H       1  UNL1        0.0575
     41 H          -2.1556   -3.4514   -0.9109 H       1  UNL1        0.0575
     42 H           0.8879   -1.5413    0.9092 H       1  UNL1        0.0578
     43 H           0.9988   -2.0145   -0.8094 H       1  UNL1        0.0578
     44 H          -0.7360    0.1444    0.4807 H       1  UNL1        0.0526
     45 H           0.1257    1.5129   -1.4230 H       1  UNL1        0.0332
     46 H           1.0106    0.0196   -2.0429 H       1  UNL1        0.0332
     47 H           0.8384    2.7007    0.5090 H       1  UNL1        0.0620
     48 H           2.7021    3.3690    2.0018 H       1  UNL1        0.0618
     49 H           4.6908    1.9759    2.0472 H       1  UNL1        0.0639
     50 H           7.7629   -1.6620   -0.6557 H       1  UNL1        0.0864
     51 H           7.4879   -2.0259    1.9589 H       1  UNL1        0.0864
     52 H           3.0116   -0.7294   -0.8455 H       1  UNL1        0.0642
@<TRIPOS>BOND
     1     1     2    2
     2     2     3    1
     3     3     4   ar
     4     4     5   ar
     5     5     6    1
     6     5     7   ar
     7     7     8    1
     8     7     9   ar
     9     9    10   ar
    10    10    11    1
    11    11    12   ar
    12    12    13   ar
    13    13    14   ar
    14    14    15   ar
    15     2    16   am
    16    16    17    1
    17    17    18    1
    18    18    19    1
    19    19    20    1
    20    20    21    1
    21    21    22    1
    22    22    23    1
    23    23    24   ar
    24    24    25   ar
    25    25    26   ar
    26    26    27   ar
    27    27    28    1
    28    28    29   ar
    29    29    30   ar
    30    30    31   ar
    31    31    32   ar
    32    27    33   ar
    33    10     3   ar
    34    15    11   ar
    35    21    16    1
    36    33    23   ar
    37    32    28   ar
    38     4    34    1
    39     9    35    1
    40    13    36    1
    41    14    37    1
    42    17    38    1
    43    17    39    1
    44    18    40    1
    45    18    41    1
    46    20    42    1
    47    20    43    1
    48    21    44    1
    49    22    45    1
    50    22    46    1
    51    24    47    1
    52    25    48    1
    53    26    49    1
    54    30    50    1
    55    31    51    1
    56    33    52    1
