@<TRIPOS>MOLECULE
*****
 20 21 0 0 0
SMALL
GASTEIGER

@<TRIPOS>ATOM
      1 O           2.6318   -1.8011   -0.2668 O.3     1  UNL1       -0.5046
      2 C           1.7886   -0.7297   -0.1564 C.ar    1  UNL1        0.1431
      3 C           0.4329   -0.9573   -0.1301 C.ar    1  UNL1        0.1187
      4 N          -0.0659   -2.2087   -0.2119 N.ar    1  UNL1       -0.2511
      5 C          -1.4003   -2.4254   -0.1855 C.ar    1  UNL1        0.0284
      6 C          -2.3026   -1.3596   -0.0726 C.ar    1  UNL1       -0.0428
      7 C          -1.7457   -0.0994    0.0081 C.ar    1  UNL1       -0.0445
      8 C          -0.3864    0.1471   -0.0170 C.ar    1  UNL1        0.0810
      9 C           0.1285    1.4204    0.0659 C.ar    1  UNL1        0.2825
     10 C           1.4911    1.6600    0.0401 C.ar    1  UNL1        0.0198
     11 C           2.2958    0.5442   -0.0733 C.ar    1  UNL1       -0.0116
     12 N          -0.7039    2.5393    0.1818 N.pl3   1  UNL1        0.0803
     13 O          -1.9556    3.0002   -0.1252 O.co2   1  UNL1       -0.5760
     14 O          -0.4347    3.6285    0.7148 O.2     1  UNL1        0.0415
     15 H           2.5591   -2.5414    0.4219 H       1  UNL1        0.2922
     16 H          -1.8714   -3.4014   -0.2462 H       1  UNL1        0.0830
     17 H          -3.3730   -1.4764   -0.0475 H       1  UNL1        0.0633
     18 H          -2.4252    0.7291    0.0953 H       1  UNL1        0.0627
     19 H           1.9492    2.6382    0.1011 H       1  UNL1        0.0687
     20 H           3.3877    0.6935   -0.0967 H       1  UNL1        0.0657
@<TRIPOS>UNITY_ATOM_ATTR
12 1
charge 1
13 1
charge -1
@<TRIPOS>BOND
     1     1     2    1
     2     2     3   ar
     3     3     4   ar
     4     4     5   ar
     5     5     6   ar
     6     6     7   ar
     7     7     8   ar
     8     8     9   ar
     9     9    10   ar
    10    10    11   ar
    11     9    12    1
    12    12    13    1
    13    12    14    2
    14    11     2   ar
    15     8     3   ar
    16     1    15    1
    17     5    16    1
    18     6    17    1
    19     7    18    1
    20    10    19    1
    21    11    20    1
