@<TRIPOS>MOLECULE
*****
 29 31 0 0 0
SMALL
GASTEIGER

@<TRIPOS>ATOM
      1 O          -1.1630    2.4080   -2.1505 O.2     1  UNL1       -0.2869
      2 C          -0.8541    1.4849   -1.3825 C.ar    1  UNL1        0.1966
      3 C           0.4851    1.1370   -1.1589 C.ar    1  UNL1        0.0288
      4 C           0.8162    0.1185   -0.3110 C.ar    1  UNL1        0.1392
      5 C           2.2002   -0.2323   -0.0874 C.ar    1  UNL1        0.0174
      6 C           3.2301    0.4219   -0.6989 C.ar    1  UNL1       -0.0511
      7 C           4.5665    0.0852   -0.4846 C.ar    1  UNL1       -0.0611
      8 C           4.8959   -0.9374    0.3668 C.ar    1  UNL1       -0.0617
      9 C           3.8722   -1.6143    0.9973 C.ar    1  UNL1       -0.0611
     10 C           2.5532   -1.2753    0.7801 C.ar    1  UNL1       -0.0511
     11 O          -0.1726   -0.5329    0.2959 O.2     1  UNL1       -0.4544
     12 C          -1.4346   -0.2358    0.1114 C.ar    1  UNL1        0.1462
     13 C          -2.4490   -0.9338    0.7593 C.ar    1  UNL1        0.0231
     14 C          -3.7794   -0.6460    0.5863 C.ar    1  UNL1        0.1239
     15 O          -4.7379   -1.3774    1.2596 O.3     1  UNL1       -0.5065
     16 C          -4.1634    0.3626   -0.2503 C.ar    1  UNL1        0.0223
     17 C          -3.1876    1.0754   -0.9088 C.ar    1  UNL1        0.1347
     18 O          -3.5616    2.1052   -1.7639 O.3     1  UNL1       -0.5058
     19 C          -1.8316    0.7794   -0.7302 C.ar    1  UNL1        0.1055
     20 H           1.2053    1.7278   -1.6999 H       1  UNL1        0.0693
     21 H           3.0714    1.2277   -1.3752 H       1  UNL1        0.0625
     22 H           5.3568    0.6257   -0.9866 H       1  UNL1        0.0618
     23 H           5.9425   -1.1842    0.5203 H       1  UNL1        0.0618
     24 H           4.1086   -2.4152    1.6653 H       1  UNL1        0.0618
     25 H           1.7575   -1.7938    1.2636 H       1  UNL1        0.0625
     26 H          -2.1524   -1.7306    1.4206 H       1  UNL1        0.0691
     27 H          -5.2764   -2.1167    0.7946 H       1  UNL1        0.2921
     28 H          -5.2096    0.5854   -0.3833 H       1  UNL1        0.0691
     29 H          -4.0884    2.8810   -1.3846 H       1  UNL1        0.2922
@<TRIPOS>BOND
     1     1     2    2
     2     2     3   ar
     3     3     4   ar
     4     4     5    1
     5     5     6   ar
     6     6     7   ar
     7     7     8   ar
     8     8     9   ar
     9     9    10   ar
    10     4    11   ar
    11    11    12   ar
    12    12    13   ar
    13    13    14   ar
    14    14    15    1
    15    14    16   ar
    16    16    17   ar
    17    17    18    1
    18    17    19   ar
    19    19     2   ar
    20    10     5   ar
    21    19    12   ar
    22     3    20    1
    23     6    21    1
    24     7    22    1
    25     8    23    1
    26     9    24    1
    27    10    25    1
    28    13    26    1
    29    15    27    1
    30    16    28    1
    31    18    29    1
