@<TRIPOS>MOLECULE
*****
 62 66 0 0 0
SMALL
GASTEIGER

@<TRIPOS>ATOM
      1 C          -5.3164   -2.1192    0.0774 C.3     1  UNL1       -0.0274
      2 C          -4.9015   -0.7700   -0.5377 C.3     1  UNL1        0.1037
      3 O          -3.5837   -0.6417   -0.4441 O.3     1  UNL1       -0.4725
      4 C          -2.5630    0.0597    0.0010 C.ar    1  UNL1        0.2265
      5 N          -1.3061   -0.4020   -0.2548 N.ar    1  UNL1       -0.2122
      6 C          -0.1754    0.1812    0.1195 C.ar    1  UNL1        0.0770
      7 C           1.1367   -0.3828   -0.1904 C.ar    1  UNL1        0.0025
      8 C           1.1902   -1.5733   -0.9069 C.ar    1  UNL1       -0.0519
      9 C           2.4058   -2.1605   -1.2177 C.ar    1  UNL1       -0.0519
     10 C           3.6055   -1.6116   -0.8441 C.ar    1  UNL1        0.0006
     11 C           4.9350   -1.9417   -0.9907 C.ar    1  UNL1       -0.0240
     12 C           5.6765   -0.9597   -0.3696 C.ar    1  UNL1        0.1053
     13 C           7.1340   -0.9230   -0.2911 C.2     1  UNL1        0.2626
     14 O           7.7731   -0.8244   -1.3867 O.2     1  UNL1       -0.2684
     15 N           7.8095   -0.9940    0.9555 N.am    1  UNL1       -0.3024
     16 C           7.0693   -1.1108    2.1924 C.3     1  UNL1        0.0032
     17 C           9.2615   -0.9397    0.9368 C.3     1  UNL1        0.0032
     18 N           4.8185   -0.0646    0.1368 N.ar    1  UNL1       -0.3393
     19 C           5.1683    1.1347    0.8736 C.3     1  UNL1        0.0126
     20 C           3.5478   -0.4083   -0.1198 C.ar    1  UNL1        0.0500
     21 C           2.3258    0.1612    0.1800 C.ar    1  UNL1       -0.0284
     22 C          -0.2913    1.3583    0.8299 C.ar    1  UNL1       -0.0077
     23 C          -1.5363    1.8737    1.1184 C.ar    1  UNL1        0.0999
     24 N          -1.8989    3.0028    1.7928 N.ar    1  UNL1       -0.1712
     25 N          -3.2055    3.0627    1.8031 N.ar    1  UNL1       -0.2732
     26 C          -3.9721    4.1237    2.4206 C.3     1  UNL1        0.0302
     27 C          -3.7287    2.0068    1.1559 C.ar    1  UNL1        0.0380
     28 C          -2.6782    1.2264    0.7058 C.ar    1  UNL1        0.0812
     29 C          -5.4711   -0.8153   -1.9569 C.3     1  UNL1        0.0196
     30 C          -6.9520   -0.9590   -1.8491 C.3     1  UNL1        0.0182
     31 N          -7.5048    0.1862   -2.5409 N.am    1  UNL1       -0.3149
     32 C          -6.4945    0.7433   -3.3804 C.2     1  UNL1        0.2135
     33 O          -6.6999    1.3781   -4.4689 O.2     1  UNL1       -0.2758
     34 C          -5.2134    0.4214   -2.7139 C.3     1  UNL1        0.0315
     35 H          -5.4045   -2.8996   -0.6762 H       1  UNL1        0.0265
     36 H          -4.5622   -2.4292    0.8566 H       1  UNL1        0.0265
     37 H          -6.2776   -2.0500    0.6192 H       1  UNL1        0.0265
     38 H          -5.5757   -0.0378   -0.0162 H       1  UNL1        0.0734
     39 H           0.3138   -2.0886   -1.2506 H       1  UNL1        0.0624
     40 H           2.4569   -3.0994   -1.7802 H       1  UNL1        0.0624
     41 H           5.3165   -2.8130   -1.5002 H       1  UNL1        0.0646
     42 H           6.0126   -1.3918    2.0143 H       1  UNL1        0.0428
     43 H           7.0444   -0.0919    2.6843 H       1  UNL1        0.0428
     44 H           7.5455   -1.8292    2.9074 H       1  UNL1        0.0428
     45 H           9.6067   -0.3311    0.0715 H       1  UNL1        0.0428
     46 H           9.6022   -0.4141    1.8528 H       1  UNL1        0.0428
     47 H           9.7174   -1.9379    0.8752 H       1  UNL1        0.0428
     48 H           6.2380    1.3469    0.6720 H       1  UNL1        0.0456
     49 H           4.6014    2.0201    0.5364 H       1  UNL1        0.0456
     50 H           4.9994    0.9746    1.9729 H       1  UNL1        0.0456
     51 H           2.3282    1.1009    0.7473 H       1  UNL1        0.0645
     52 H           0.5705    1.9169    1.1849 H       1  UNL1        0.0661
     53 H          -4.4160    3.8550    3.3879 H       1  UNL1        0.0473
     54 H          -4.8156    4.3950    1.7444 H       1  UNL1        0.0473
     55 H          -3.3772    5.0570    2.5345 H       1  UNL1        0.0473
     56 H          -4.7506    1.8089    1.0169 H       1  UNL1        0.0834
     57 H          -5.0530   -1.7013   -2.5032 H       1  UNL1        0.0356
     58 H          -7.3280   -1.9174   -2.2800 H       1  UNL1        0.0466
     59 H          -7.2432   -0.8815   -0.7657 H       1  UNL1        0.0466
     60 H          -8.4837    0.5262   -2.4271 H       1  UNL1        0.1487
     61 H          -4.4157    0.3334   -3.4854 H       1  UNL1        0.0363
     62 H          -5.0149    1.2605   -2.0124 H       1  UNL1        0.0363
@<TRIPOS>BOND
     1     1     2    1
     2     2     3    1
     3     3     4    1
     4     4     5   ar
     5     5     6   ar
     6     6     7    1
     7     7     8   ar
     8     8     9   ar
     9     9    10   ar
    10    10    11   ar
    11    11    12   ar
    12    12    13    1
    13    13    14    2
    14    13    15   am
    15    15    16    1
    16    15    17    1
    17    12    18   ar
    18    18    19    1
    19    18    20   ar
    20    20    21   ar
    21     6    22   ar
    22    22    23   ar
    23    23    24   ar
    24    24    25   ar
    25    25    26    1
    26    25    27   ar
    27    27    28   ar
    28     2    29    1
    29    29    30    1
    30    30    31    1
    31    31    32   am
    32    32    33    2
    33    32    34    1
    34    28     4   ar
    35    34    29    1
    36    21     7   ar
    37    28    23   ar
    38    20    10   ar
    39     1    35    1
    40     1    36    1
    41     1    37    1
    42     2    38    1
    43     8    39    1
    44     9    40    1
    45    11    41    1
    46    16    42    1
    47    16    43    1
    48    16    44    1
    49    17    45    1
    50    17    46    1
    51    17    47    1
    52    19    48    1
    53    19    49    1
    54    19    50    1
    55    21    51    1
    56    22    52    1
    57    26    53    1
    58    26    54    1
    59    26    55    1
    60    27    56    1
    61    29    57    1
    62    30    58    1
    63    30    59    1
    64    31    60    1
    65    34    61    1
    66    34    62    1
