
     RDKit          3D

 62 66  0  0  0  0  0  0  0  0999 V2000
   -5.3164   -2.1192    0.0774 C   0  0  0  0  0  0  0  0  0  0  0  0
   -4.9015   -0.7700   -0.5377 C   0  0  1  0  0  0  0  0  0  0  0  0
   -3.5837   -0.6417   -0.4441 O   0  0  0  0  0  0  0  0  0  0  0  0
   -2.5630    0.0597    0.0010 C   0  0  0  0  0  0  0  0  0  0  0  0
   -1.3061   -0.4020   -0.2548 N   0  0  0  0  0  0  0  0  0  0  0  0
   -0.1754    0.1812    0.1195 C   0  0  0  0  0  0  0  0  0  0  0  0
    1.1367   -0.3828   -0.1904 C   0  0  0  0  0  0  0  0  0  0  0  0
    1.1902   -1.5733   -0.9069 C   0  0  0  0  0  0  0  0  0  0  0  0
    2.4058   -2.1605   -1.2177 C   0  0  0  0  0  0  0  0  0  0  0  0
    3.6055   -1.6116   -0.8441 C   0  0  0  0  0  0  0  0  0  0  0  0
    4.9350   -1.9417   -0.9907 C   0  0  0  0  0  0  0  0  0  0  0  0
    5.6765   -0.9597   -0.3696 C   0  0  0  0  0  0  0  0  0  0  0  0
    7.1340   -0.9230   -0.2911 C   0  0  0  0  0  0  0  0  0  0  0  0
    7.7731   -0.8244   -1.3867 O   0  0  0  0  0  0  0  0  0  0  0  0
    7.8095   -0.9940    0.9555 N   0  0  0  0  0  0  0  0  0  0  0  0
    7.0693   -1.1108    2.1924 C   0  0  0  0  0  0  0  0  0  0  0  0
    9.2615   -0.9397    0.9368 C   0  0  0  0  0  0  0  0  0  0  0  0
    4.8185   -0.0646    0.1368 N   0  0  0  0  0  0  0  0  0  0  0  0
    5.1683    1.1347    0.8736 C   0  0  0  0  0  0  0  0  0  0  0  0
    3.5478   -0.4083   -0.1198 C   0  0  0  0  0  0  0  0  0  0  0  0
    2.3258    0.1612    0.1800 C   0  0  0  0  0  0  0  0  0  0  0  0
   -0.2913    1.3583    0.8299 C   0  0  0  0  0  0  0  0  0  0  0  0
   -1.5363    1.8737    1.1184 C   0  0  0  0  0  0  0  0  0  0  0  0
   -1.8989    3.0028    1.7928 N   0  0  0  0  0  0  0  0  0  0  0  0
   -3.2055    3.0627    1.8031 N   0  0  0  0  0  0  0  0  0  0  0  0
   -3.9721    4.1237    2.4206 C   0  0  0  0  0  0  0  0  0  0  0  0
   -3.7287    2.0068    1.1559 C   0  0  0  0  0  0  0  0  0  0  0  0
   -2.6782    1.2264    0.7058 C   0  0  0  0  0  0  0  0  0  0  0  0
   -5.4711   -0.8153   -1.9569 C   0  0  1  0  0  0  0  0  0  0  0  0
   -6.9520   -0.9590   -1.8491 C   0  0  0  0  0  0  0  0  0  0  0  0
   -7.5048    0.1862   -2.5409 N   0  0  0  0  0  0  0  0  0  0  0  0
   -6.4945    0.7433   -3.3804 C   0  0  0  0  0  0  0  0  0  0  0  0
   -6.6999    1.3781   -4.4689 O   0  0  0  0  0  0  0  0  0  0  0  0
   -5.2134    0.4214   -2.7139 C   0  0  0  0  0  0  0  0  0  0  0  0
   -5.4045   -2.8996   -0.6762 H   0  0  0  0  0  0  0  0  0  0  0  0
   -4.5622   -2.4292    0.8566 H   0  0  0  0  0  0  0  0  0  0  0  0
   -6.2776   -2.0500    0.6192 H   0  0  0  0  0  0  0  0  0  0  0  0
   -5.5757   -0.0378   -0.0162 H   0  0  0  0  0  0  0  0  0  0  0  0
    0.3138   -2.0886   -1.2506 H   0  0  0  0  0  0  0  0  0  0  0  0
    2.4569   -3.0994   -1.7802 H   0  0  0  0  0  0  0  0  0  0  0  0
    5.3165   -2.8130   -1.5002 H   0  0  0  0  0  0  0  0  0  0  0  0
    6.0126   -1.3918    2.0143 H   0  0  0  0  0  0  0  0  0  0  0  0
    7.0444   -0.0919    2.6843 H   0  0  0  0  0  0  0  0  0  0  0  0
    7.5455   -1.8292    2.9074 H   0  0  0  0  0  0  0  0  0  0  0  0
    9.6067   -0.3311    0.0715 H   0  0  0  0  0  0  0  0  0  0  0  0
    9.6022   -0.4141    1.8528 H   0  0  0  0  0  0  0  0  0  0  0  0
    9.7174   -1.9379    0.8752 H   0  0  0  0  0  0  0  0  0  0  0  0
    6.2380    1.3469    0.6720 H   0  0  0  0  0  0  0  0  0  0  0  0
    4.6014    2.0201    0.5364 H   0  0  0  0  0  0  0  0  0  0  0  0
    4.9994    0.9746    1.9729 H   0  0  0  0  0  0  0  0  0  0  0  0
    2.3282    1.1009    0.7473 H   0  0  0  0  0  0  0  0  0  0  0  0
    0.5705    1.9169    1.1849 H   0  0  0  0  0  0  0  0  0  0  0  0
   -4.4160    3.8550    3.3879 H   0  0  0  0  0  0  0  0  0  0  0  0
   -4.8156    4.3950    1.7444 H   0  0  0  0  0  0  0  0  0  0  0  0
   -3.3772    5.0570    2.5345 H   0  0  0  0  0  0  0  0  0  0  0  0
   -4.7506    1.8089    1.0169 H   0  0  0  0  0  0  0  0  0  0  0  0
   -5.0530   -1.7013   -2.5032 H   0  0  0  0  0  0  0  0  0  0  0  0
   -7.3280   -1.9174   -2.2800 H   0  0  0  0  0  0  0  0  0  0  0  0
   -7.2432   -0.8815   -0.7657 H   0  0  0  0  0  0  0  0  0  0  0  0
   -8.4837    0.5262   -2.4271 H   0  0  0  0  0  0  0  0  0  0  0  0
   -4.4157    0.3334   -3.4854 H   0  0  0  0  0  0  0  0  0  0  0  0
   -5.0149    1.2605   -2.0124 H   0  0  0  0  0  0  0  0  0  0  0  0
  1  2  1  0
  2  3  1  0
  3  4  1  0
  4  5  2  0
  5  6  1  0
  6  7  1  0
  7  8  2  0
  8  9  1  0
  9 10  2  0
 10 11  1  0
 11 12  2  0
 12 13  1  0
 13 14  2  0
 13 15  1  0
 15 16  1  0
 15 17  1  0
 12 18  1  0
 18 19  1  0
 18 20  1  0
 20 21  2  0
  6 22  2  0
 22 23  1  0
 23 24  2  0
 24 25  1  0
 25 26  1  0
 25 27  1  0
 27 28  2  0
  2 29  1  0
 29 30  1  0
 30 31  1  0
 31 32  1  0
 32 33  2  0
 32 34  1  0
 28  4  1  0
 34 29  1  0
 21  7  1  0
 28 23  1  0
 20 10  1  0
  1 35  1  0
  1 36  1  0
  1 37  1  0
  2 38  1  1
  8 39  1  0
  9 40  1  0
 11 41  1  0
 16 42  1  0
 16 43  1  0
 16 44  1  0
 17 45  1  0
 17 46  1  0
 17 47  1  0
 19 48  1  0
 19 49  1  0
 19 50  1  0
 21 51  1  0
 22 52  1  0
 26 53  1  0
 26 54  1  0
 26 55  1  0
 27 56  1  0
 29 57  1  6
 30 58  1  0
 30 59  1  0
 31 60  1  0
 34 61  1  0
 34 62  1  0
M  END
$$$$
