@<TRIPOS>MOLECULE
*****
 70 76 0 0 0
SMALL
GASTEIGER

@<TRIPOS>ATOM
      1 O           0.1360    1.3861   -2.9922 O.2     1  UNL1       -0.2662
      2 C          -0.0913    1.1488   -1.7567 C.2     1  UNL1        0.2867
      3 C          -0.7656    2.1744   -1.0090 C.ar    1  UNL1        0.1939
      4 O          -1.1420    3.3287   -1.5036 O.2     1  UNL1       -0.4499
      5 C          -1.7376    4.0739   -0.5911 C.ar    1  UNL1        0.1362
      6 C          -2.2879    5.4271   -0.7893 C.ar    1  UNL1        0.0174
      7 C          -2.8786    6.0478    0.2989 C.ar    1  UNL1       -0.0497
      8 C          -3.4198    7.3137    0.2113 C.ar    1  UNL1       -0.0427
      9 C          -3.3608    7.9583   -0.9966 C.ar    1  UNL1        0.0410
     10 CL         -4.0460    9.5577   -1.1029 Cl      1  UNL1       -0.0835
     11 C          -2.7667    7.3363   -2.0947 C.ar    1  UNL1       -0.0427
     12 C          -2.2286    6.0645   -1.9871 C.ar    1  UNL1       -0.0497
     13 C          -1.7386    3.3326    0.5735 C.ar    1  UNL1       -0.0116
     14 C          -1.1255    2.1162    0.3398 C.ar    1  UNL1        0.0079
     15 C          -0.9756    1.1229    1.3917 C.3     1  UNL1        0.0032
     16 C          -0.7405   -0.2580    0.9384 C.ar    1  UNL1       -0.0198
     17 C          -1.2131   -1.1235    1.9166 C.ar    1  UNL1       -0.0354
     18 C          -1.1599   -2.4970    1.8211 C.ar    1  UNL1        0.0301
     19 N          -1.6474   -3.3490    2.8576 N.pl3   1  UNL1       -0.3275
     20 C          -1.8716   -4.7579    2.5756 C.3     1  UNL1        0.0248
     21 C          -3.1467   -5.2688    3.2175 C.3     1  UNL1        0.0117
     22 N          -3.4260   -4.7225    4.5044 N.3     1  UNL1       -0.3130
     23 C          -3.4085   -3.2697    4.4363 C.3     1  UNL1        0.0117
     24 C          -1.9337   -2.9137    4.2026 C.3     1  UNL1        0.0248
     25 C          -0.5971   -3.0006    0.6701 C.ar    1  UNL1       -0.0389
     26 C          -0.1098   -2.1698   -0.3394 C.ar    1  UNL1       -0.0382
     27 C          -0.1925   -0.8203   -0.1804 C.ar    1  UNL1        0.0406
     28 N           0.3610   -0.1204   -1.2761 N.am    1  UNL1       -0.2603
     29 C           1.4829   -0.6788   -1.9949 C.3     1  UNL1        0.0458
     30 C           2.7380   -0.1765   -1.3034 C.ar    1  UNL1       -0.0220
     31 C           2.6384    0.7149   -0.2619 C.ar    1  UNL1       -0.0565
     32 C           3.7553    1.1814    0.4184 C.ar    1  UNL1       -0.0614
     33 C           5.0132    0.7464    0.0497 C.ar    1  UNL1       -0.0612
     34 C           5.1051   -0.1393   -0.9868 C.ar    1  UNL1       -0.0537
     35 C           3.9821   -0.6184   -1.6832 C.ar    1  UNL1       -0.0117
     36 C           4.1974   -1.5471   -2.8000 C.ar    1  UNL1        0.0005
     37 C           3.8255   -1.2666   -4.0860 C.ar    1  UNL1       -0.0511
     38 C           4.0447   -2.2200   -5.0972 C.ar    1  UNL1       -0.0430
     39 C           4.6314   -3.4279   -4.7914 C.ar    1  UNL1        0.0276
     40 N           4.9844   -3.6764   -3.5354 N.ar    1  UNL1       -0.2627
     41 C           4.7845   -2.7711   -2.5306 C.ar    1  UNL1        0.0353
     42 H          -2.9287    5.5443    1.2579 H       1  UNL1        0.0625
     43 H          -3.8662    7.7387    1.1028 H       1  UNL1        0.0632
     44 H          -2.7525    7.8972   -3.0165 H       1  UNL1        0.0632
     45 H          -1.7738    5.5856   -2.8242 H       1  UNL1        0.0625
     46 H          -2.1636    3.6808    1.5114 H       1  UNL1        0.0658
     47 H          -0.1804    1.3729    2.1390 H       1  UNL1        0.0363
     48 H          -1.9297    1.1214    1.9792 H       1  UNL1        0.0363
     49 H          -1.6632   -0.7071    2.8272 H       1  UNL1        0.0639
     50 H          -2.0322   -4.8722    1.4818 H       1  UNL1        0.0476
     51 H          -0.9826   -5.3224    2.9244 H       1  UNL1        0.0476
     52 H          -4.0296   -5.1302    2.5576 H       1  UNL1        0.0439
     53 H          -3.0058   -6.3739    3.3538 H       1  UNL1        0.0439
     54 H          -2.7276   -5.0000    5.2282 H       1  UNL1        0.1220
     55 H          -4.0124   -2.9112    3.5522 H       1  UNL1        0.0439
     56 H          -3.8331   -2.7798    5.3146 H       1  UNL1        0.0439
     57 H          -1.3863   -3.5533    4.9592 H       1  UNL1        0.0476
     58 H          -1.7778   -1.8698    4.4234 H       1  UNL1        0.0476
     59 H          -0.5046   -4.0817    0.5062 H       1  UNL1        0.0637
     60 H           0.3063   -2.5711   -1.2250 H       1  UNL1        0.0637
     61 H           1.5472   -0.2162   -3.0177 H       1  UNL1        0.0518
     62 H           1.6101   -1.7519   -2.0157 H       1  UNL1        0.0518
     63 H           1.6908    1.0818    0.0625 H       1  UNL1        0.0621
     64 H           3.6930    1.8797    1.2369 H       1  UNL1        0.0618
     65 H           5.9219    1.0773    0.5461 H       1  UNL1        0.0618
     66 H           6.0748   -0.5264   -1.3323 H       1  UNL1        0.0624
     67 H           3.3818   -0.3276   -4.3671 H       1  UNL1        0.0625
     68 H           3.7661   -2.0383   -6.1226 H       1  UNL1        0.0633
     69 H           4.8063   -4.1786   -5.5777 H       1  UNL1        0.0829
     70 H           5.0835   -3.0066   -1.5224 H       1  UNL1        0.0836
@<TRIPOS>BOND
     1     1     2    2
     2     2     3    1
     3     3     4   ar
     4     4     5   ar
     5     5     6    1
     6     6     7   ar
     7     7     8   ar
     8     8     9   ar
     9     9    10    1
    10     9    11   ar
    11    11    12   ar
    12     5    13   ar
    13    13    14   ar
    14    14    15    1
    15    15    16    1
    16    16    17   ar
    17    17    18   ar
    18    18    19    1
    19    19    20    1
    20    20    21    1
    21    21    22    1
    22    22    23    1
    23    23    24    1
    24    18    25   ar
    25    25    26   ar
    26    26    27   ar
    27    27    28    1
    28    28    29    1
    29    29    30    1
    30    30    31   ar
    31    31    32   ar
    32    32    33   ar
    33    33    34   ar
    34    34    35   ar
    35    35    36    1
    36    36    37   ar
    37    37    38   ar
    38    38    39   ar
    39    39    40   ar
    40    40    41   ar
    41    28     2   am
    42    35    30   ar
    43    41    36   ar
    44    14     3   ar
    45    27    16   ar
    46    12     6   ar
    47    24    19    1
    48     7    42    1
    49     8    43    1
    50    11    44    1
    51    12    45    1
    52    13    46    1
    53    15    47    1
    54    15    48    1
    55    17    49    1
    56    20    50    1
    57    20    51    1
    58    21    52    1
    59    21    53    1
    60    22    54    1
    61    23    55    1
    62    23    56    1
    63    24    57    1
    64    24    58    1
    65    25    59    1
    66    26    60    1
    67    29    61    1
    68    29    62    1
    69    31    63    1
    70    32    64    1
    71    33    65    1
    72    34    66    1
    73    37    67    1
    74    38    68    1
    75    39    69    1
    76    41    70    1
