@<TRIPOS>MOLECULE
*****
 45 47 0 0 0
SMALL
GASTEIGER

@<TRIPOS>ATOM
      1 O           0.6740   -0.5167    1.4482 O.2     1  UNL1       -0.2751
      2 C           0.9190   -1.0033    0.2821 C.2     1  UNL1        0.2214
      3 N          -0.0256   -0.6328   -0.6971 N.am    1  UNL1       -0.2847
      4 C          -1.1485    0.1968   -0.4196 C.ar    1  UNL1        0.0413
      5 C          -1.0022    1.5672   -0.5585 C.ar    1  UNL1       -0.0381
      6 C          -2.0315    2.4358   -0.3116 C.ar    1  UNL1       -0.0355
      7 C          -3.2622    1.9605    0.0888 C.ar    1  UNL1        0.0844
      8 S          -4.6172    3.0497    0.4176 S.3     1  UNL1       -0.0506
      9 O          -5.1042    2.9184    1.8076 O.2     1  UNL1       -0.1803
     10 O          -4.2037    4.4482    0.0792 O.2     1  UNL1       -0.1803
     11 O          -5.8974    2.6638   -0.6286 O.co2   1  UNL1       -0.7201
     12 C          -3.3965    0.5966    0.2236 C.ar    1  UNL1        0.0077
     13 C          -4.6367    0.1296    0.6262 C.ar    1  UNL1       -0.0522
     14 C          -4.8028   -1.2295    0.7702 C.ar    1  UNL1       -0.0611
     15 C          -3.7621   -2.0977    0.5199 C.ar    1  UNL1       -0.0611
     16 C          -2.5215   -1.6517    0.1186 C.ar    1  UNL1       -0.0522
     17 C          -2.3657   -0.2870   -0.0227 C.ar    1  UNL1        0.0051
     18 C           2.0921   -1.8345    0.1390 C.3     1  UNL1        0.0485
     19 C           1.7059   -3.2621   -0.1460 C.3     1  UNL1        0.0021
     20 S           0.7666   -3.3319   -1.6831 S.3     1  UNL1       -0.1775
     21 C           3.0737   -1.3670   -0.9043 C.3     1  UNL1       -0.0158
     22 C           3.5646    0.0002   -0.5690 C.ar    1  UNL1       -0.0466
     23 C           2.9281    1.1339   -1.0213 C.ar    1  UNL1       -0.0586
     24 C           3.4137    2.3672   -0.6889 C.ar    1  UNL1       -0.0615
     25 C           4.5273    2.5368    0.0895 C.ar    1  UNL1       -0.0617
     26 C           5.1751    1.4094    0.5497 C.ar    1  UNL1       -0.0615
     27 C           4.6959    0.1575    0.2219 C.ar    1  UNL1       -0.0586
     28 H           0.0978   -0.9619   -1.6562 H       1  UNL1        0.1548
     29 H          -0.0403    1.9485   -0.8721 H       1  UNL1        0.0637
     30 H          -1.8836    3.5024   -0.4298 H       1  UNL1        0.0637
     31 H          -5.4460    0.8216    0.8197 H       1  UNL1        0.0624
     32 H          -5.7799   -1.5824    1.0864 H       1  UNL1        0.0618
     33 H          -3.9609   -3.1591    0.6529 H       1  UNL1        0.0618
     34 H          -1.7067   -2.3359   -0.0771 H       1  UNL1        0.0624
     35 H           2.6499   -1.8560    1.1193 H       1  UNL1        0.0405
     36 H           1.1461   -3.7235    0.6965 H       1  UNL1        0.0381
     37 H           2.6153   -3.8915   -0.2925 H       1  UNL1        0.0381
     38 H          -0.2228   -4.3002   -1.5731 H       1  UNL1        0.1017
     39 H           3.9596   -2.0359   -0.8517 H       1  UNL1        0.0321
     40 H           2.6900   -1.4177   -1.9242 H       1  UNL1        0.0321
     41 H           2.0505    0.9952   -1.6348 H       1  UNL1        0.0620
     42 H           2.8862    3.2543   -1.0635 H       1  UNL1        0.0618
     43 H           4.8777    3.5381    0.3287 H       1  UNL1        0.0618
     44 H           6.0623    1.5389    1.1700 H       1  UNL1        0.0618
     45 H           5.2467   -0.6925    0.6126 H       1  UNL1        0.0620
@<TRIPOS>UNITY_ATOM_ATTR
11 1
charge -1
@<TRIPOS>BOND
     1     1     2    2
     2     2     3   am
     3     3     4    1
     4     4     5   ar
     5     5     6   ar
     6     6     7   ar
     7     7     8    1
     8     8     9    2
     9     8    10    2
    10     8    11    1
    11     7    12   ar
    12    12    13   ar
    13    13    14   ar
    14    14    15   ar
    15    15    16   ar
    16    16    17   ar
    17     2    18    1
    18    18    19    1
    19    19    20    1
    20    18    21    1
    21    21    22    1
    22    22    23   ar
    23    23    24   ar
    24    24    25   ar
    25    25    26   ar
    26    26    27   ar
    27    17     4   ar
    28    27    22   ar
    29    17    12   ar
    30     3    28    1
    31     5    29    1
    32     6    30    1
    33    13    31    1
    34    14    32    1
    35    15    33    1
    36    16    34    1
    37    18    35    1
    38    19    36    1
    39    19    37    1
    40    20    38    1
    41    21    39    1
    42    21    40    1
    43    23    41    1
    44    24    42    1
    45    25    43    1
    46    26    44    1
    47    27    45    1
