@<TRIPOS>MOLECULE
*****
 45 47 0 0 0
SMALL
GASTEIGER

@<TRIPOS>ATOM
      1 C           5.2132    3.6203   -0.5143 C.3     1  UNL1        0.0788
      2 O           4.3081    2.7929    0.1521 O.3     1  UNL1       -0.4951
      3 C           4.4098    1.4175    0.0505 C.ar    1  UNL1        0.1204
      4 C           5.4272    0.8515   -0.7257 C.ar    1  UNL1       -0.0199
      5 C           5.5359   -0.5180   -0.8324 C.ar    1  UNL1       -0.0580
      6 C           4.6454   -1.3333   -0.1770 C.ar    1  UNL1       -0.0568
      7 C           3.6317   -0.8117    0.5954 C.ar    1  UNL1       -0.0266
      8 C           2.7084   -1.7331    1.2752 C.3     1  UNL1        0.0410
      9 N           1.5593   -2.1140    0.5289 N.am    1  UNL1       -0.2841
     10 C           1.5000   -3.2484   -0.3655 C.3     1  UNL1        0.0050
     11 C           0.3511   -1.3240    0.6583 C.2     1  UNL1        0.3065
     12 O           0.3950   -0.3506    1.4291 O.2     1  UNL1       -0.2523
     13 N          -0.8056   -1.6385   -0.0464 N.am    1  UNL1       -0.2693
     14 C          -2.0157   -0.9322    0.0181 C.ar    1  UNL1        0.0348
     15 C          -2.2672    0.1822    0.7833 C.ar    1  UNL1       -0.0399
     16 C          -3.5037    0.8428    0.8014 C.ar    1  UNL1       -0.0522
     17 C          -4.5271    0.3671    0.0218 C.ar    1  UNL1       -0.0148
     18 C          -5.8488    0.9739   -0.0366 C.ar    1  UNL1        0.0193
     19 C          -7.0469    0.3267   -0.2609 C.ar    1  UNL1        0.0568
     20 N          -8.0421    1.2406   -0.2401 N.ar    1  UNL1       -0.1817
     21 N          -7.5161    2.4139   -0.0147 N.ar    1  UNL1       -0.2841
     22 C          -6.1668    2.2985    0.1174 C.ar    1  UNL1        0.0300
     23 C          -4.2836   -0.7501   -0.7488 C.ar    1  UNL1       -0.0522
     24 C          -3.0874   -1.3939   -0.7700 C.ar    1  UNL1       -0.0399
     25 C           3.5376    0.5588    0.6914 C.ar    1  UNL1       -0.0153
     26 H           4.9542    4.6772   -0.4675 H       1  UNL1        0.0660
     27 H           5.3508    3.3513   -1.5855 H       1  UNL1        0.0660
     28 H           6.2202    3.5042   -0.0267 H       1  UNL1        0.0660
     29 H           6.1241    1.4962   -1.2387 H       1  UNL1        0.0654
     30 H           6.3180   -0.9589   -1.4293 H       1  UNL1        0.0619
     31 H           4.7582   -2.3901   -0.2812 H       1  UNL1        0.0621
     32 H           2.4231   -1.2711    2.2654 H       1  UNL1        0.0514
     33 H           3.2462   -2.6777    1.5715 H       1  UNL1        0.0514
     34 H           2.4313   -3.8249   -0.3670 H       1  UNL1        0.0429
     35 H           1.3131   -2.9169   -1.4167 H       1  UNL1        0.0429
     36 H           0.6173   -3.8595   -0.0650 H       1  UNL1        0.0429
     37 H          -0.7605   -2.4921   -0.6896 H       1  UNL1        0.1564
     38 H          -1.4996    0.5941    1.4113 H       1  UNL1        0.0636
     39 H          -3.6724    1.7144    1.4112 H       1  UNL1        0.0624
     40 H          -7.1464   -0.7298   -0.4226 H       1  UNL1        0.0854
     41 H          -8.0394    3.3170    0.0565 H       1  UNL1        0.1882
     42 H          -5.4619    3.0866    0.3076 H       1  UNL1        0.0830
     43 H          -5.0835   -1.1392   -1.3719 H       1  UNL1        0.0624
     44 H          -2.9532   -2.2565   -1.3865 H       1  UNL1        0.0636
     45 H           2.7489    1.0366    1.2956 H       1  UNL1        0.0657
@<TRIPOS>BOND
     1     1     2    1
     2     2     3    1
     3     3     4   ar
     4     4     5   ar
     5     5     6   ar
     6     6     7   ar
     7     7     8    1
     8     8     9    1
     9     9    10    1
    10     9    11   am
    11    11    12    2
    12    11    13   am
    13    13    14    1
    14    14    15   ar
    15    15    16   ar
    16    16    17   ar
    17    17    18    1
    18    18    19   ar
    19    19    20   ar
    20    20    21   ar
    21    21    22   ar
    22    17    23   ar
    23    23    24   ar
    24     7    25   ar
    25    25     3   ar
    26    24    14   ar
    27    22    18   ar
    28     1    26    1
    29     1    27    1
    30     1    28    1
    31     4    29    1
    32     5    30    1
    33     6    31    1
    34     8    32    1
    35     8    33    1
    36    10    34    1
    37    10    35    1
    38    10    36    1
    39    13    37    1
    40    15    38    1
    41    16    39    1
    42    19    40    1
    43    21    41    1
    44    22    42    1
    45    23    43    1
    46    24    44    1
    47    25    45    1
