@<TRIPOS>MOLECULE
*****
 54 57 0 0 0
SMALL
GASTEIGER

@<TRIPOS>ATOM
      1 C           4.6413   -3.1422   -1.8305 C.3     1  UNL1        0.0790
      2 O           5.4174   -2.2899   -1.0142 O.3     1  UNL1       -0.4914
      3 C           4.7483   -1.2731   -0.3499 C.ar    1  UNL1        0.1623
      4 C           3.3942   -1.0557   -0.4421 C.ar    1  UNL1       -0.0038
      5 C           2.7528   -0.0396    0.2258 C.ar    1  UNL1        0.0441
      6 C           1.3942    0.1888    0.1382 C.ar    1  UNL1        0.1340
      7 N           0.5782   -0.6472   -0.6435 N.pl3   1  UNL1       -0.2989
      8 C          -0.8162   -0.3523   -0.7902 C.ar    1  UNL1        0.0325
      9 C          -1.3494    0.9043   -0.8177 C.ar    1  UNL1       -0.0388
     10 C          -2.7277    1.0758   -0.9239 C.ar    1  UNL1       -0.0387
     11 C          -3.6034    0.0142   -1.0055 C.ar    1  UNL1        0.0338
     12 N          -5.0234    0.1951   -1.0979 N.am    1  UNL1       -0.2815
     13 C          -5.7447    0.2436    0.1183 C.2     1  UNL1        0.2483
     14 O          -5.0822    0.1234    1.2063 O.2     1  UNL1       -0.2699
     15 C          -7.1785    0.4183    0.2411 C.ar    1  UNL1        0.0370
     16 C          -7.7751    0.4438    1.4764 C.ar    1  UNL1       -0.0496
     17 C          -9.1312    0.6081    1.6002 C.ar    1  UNL1       -0.0610
     18 C          -9.8905    0.7484    0.4538 C.ar    1  UNL1       -0.0617
     19 C          -9.3141    0.7263   -0.7983 C.ar    1  UNL1       -0.0610
     20 C          -7.9490    0.5593   -0.8829 C.ar    1  UNL1       -0.0496
     21 C          -3.0379   -1.2382   -0.9769 C.ar    1  UNL1       -0.0387
     22 C          -1.6891   -1.4213   -0.8728 C.ar    1  UNL1       -0.0388
     23 N           0.8200    1.2181    0.8270 N.ar    1  UNL1       -0.2200
     24 C           1.5455    2.0284    1.5993 C.ar    1  UNL1        0.1187
     25 N           2.8641    1.8269    1.7005 N.ar    1  UNL1       -0.2352
     26 C           3.4827    0.8087    1.0288 C.ar    1  UNL1        0.0797
     27 C           4.8319    0.6082    1.1339 C.ar    1  UNL1        0.0098
     28 C           5.5188   -0.4237    0.4616 C.ar    1  UNL1        0.1641
     29 O           6.8017   -0.5143    0.6377 O.3     1  UNL1       -0.4860
     30 C           8.0322   -0.3353    1.0062 C.3     1  UNL1        0.1127
     31 C           8.5793    1.0370    0.5554 C.3     1  UNL1        0.0783
     32 O           7.8627    2.0883    1.0746 O.3     1  UNL1       -0.3917
     33 H           4.2619   -2.5463   -2.6821 H       1  UNL1        0.0660
     34 H           3.7769   -3.5735   -1.2858 H       1  UNL1        0.0660
     35 H           5.2953   -3.9558   -2.2579 H       1  UNL1        0.0660
     36 H           2.8191   -1.7357   -1.0857 H       1  UNL1        0.0663
     37 H           0.8892   -1.4908   -1.1485 H       1  UNL1        0.1536
     38 H          -0.7036    1.7811   -0.7711 H       1  UNL1        0.0637
     39 H          -3.1240    2.0814   -0.9440 H       1  UNL1        0.0637
     40 H          -5.5079    0.2868   -1.9932 H       1  UNL1        0.1551
     41 H          -7.1742    0.3329    2.3852 H       1  UNL1        0.0625
     42 H          -9.6073    0.6295    2.5913 H       1  UNL1        0.0618
     43 H         -10.9655    0.8779    0.5697 H       1  UNL1        0.0618
     44 H          -9.8874    0.8342   -1.7079 H       1  UNL1        0.0618
     45 H          -7.4939    0.5429   -1.8833 H       1  UNL1        0.0625
     46 H          -3.7040   -2.1122   -1.0403 H       1  UNL1        0.0637
     47 H          -1.2932   -2.4186   -0.8545 H       1  UNL1        0.0637
     48 H           1.0326    2.8378    2.1303 H       1  UNL1        0.1048
     49 H           5.3698    1.2938    1.7794 H       1  UNL1        0.0677
     50 H           8.8207   -1.0448    0.5987 H       1  UNL1        0.0720
     51 H           8.1831   -0.2895    2.1358 H       1  UNL1        0.0720
     52 H           9.6407    1.0692    0.9306 H       1  UNL1        0.0591
     53 H           8.6274    1.1000   -0.5475 H       1  UNL1        0.0591
     54 H           7.7914    2.0723    2.0419 H       1  UNL1        0.2095
@<TRIPOS>BOND
     1     1     2    1
     2     2     3    1
     3     3     4   ar
     4     4     5   ar
     5     5     6   ar
     6     6     7    1
     7     7     8    1
     8     8     9   ar
     9     9    10   ar
    10    10    11   ar
    11    11    12    1
    12    12    13   am
    13    13    14    2
    14    13    15    1
    15    15    16   ar
    16    16    17   ar
    17    17    18   ar
    18    18    19   ar
    19    19    20   ar
    20    11    21   ar
    21    21    22   ar
    22     6    23   ar
    23    23    24   ar
    24    24    25   ar
    25    25    26   ar
    26    26    27   ar
    27    27    28   ar
    28    28    29    1
    29    29    30    1
    30    30    31    1
    31    31    32    1
    32    28     3   ar
    33    26     5   ar
    34    22     8   ar
    35    20    15   ar
    36     1    33    1
    37     1    34    1
    38     1    35    1
    39     4    36    1
    40     7    37    1
    41     9    38    1
    42    10    39    1
    43    12    40    1
    44    16    41    1
    45    17    42    1
    46    18    43    1
    47    19    44    1
    48    20    45    1
    49    21    46    1
    50    22    47    1
    51    24    48    1
    52    27    49    1
    53    30    50    1
    54    30    51    1
    55    31    52    1
    56    31    53    1
    57    32    54    1
