
     RDKit          3D

 54 57  0  0  0  0  0  0  0  0999 V2000
    4.6413   -3.1422   -1.8305 C   0  0  0  0  0  0  0  0  0  0  0  0
    5.4174   -2.2899   -1.0142 O   0  0  0  0  0  0  0  0  0  0  0  0
    4.7483   -1.2731   -0.3499 C   0  0  0  0  0  0  0  0  0  0  0  0
    3.3942   -1.0557   -0.4421 C   0  0  0  0  0  0  0  0  0  0  0  0
    2.7528   -0.0396    0.2258 C   0  0  0  0  0  0  0  0  0  0  0  0
    1.3942    0.1888    0.1382 C   0  0  0  0  0  0  0  0  0  0  0  0
    0.5782   -0.6472   -0.6435 N   0  0  0  0  0  0  0  0  0  0  0  0
   -0.8162   -0.3523   -0.7902 C   0  0  0  0  0  0  0  0  0  0  0  0
   -1.3494    0.9043   -0.8177 C   0  0  0  0  0  0  0  0  0  0  0  0
   -2.7277    1.0758   -0.9239 C   0  0  0  0  0  0  0  0  0  0  0  0
   -3.6034    0.0142   -1.0055 C   0  0  0  0  0  0  0  0  0  0  0  0
   -5.0234    0.1951   -1.0979 N   0  0  0  0  0  0  0  0  0  0  0  0
   -5.7447    0.2436    0.1183 C   0  0  0  0  0  0  0  0  0  0  0  0
   -5.0822    0.1234    1.2063 O   0  0  0  0  0  0  0  0  0  0  0  0
   -7.1785    0.4183    0.2411 C   0  0  0  0  0  0  0  0  0  0  0  0
   -7.7751    0.4438    1.4764 C   0  0  0  0  0  0  0  0  0  0  0  0
   -9.1312    0.6081    1.6002 C   0  0  0  0  0  0  0  0  0  0  0  0
   -9.8905    0.7484    0.4538 C   0  0  0  0  0  0  0  0  0  0  0  0
   -9.3141    0.7263   -0.7983 C   0  0  0  0  0  0  0  0  0  0  0  0
   -7.9490    0.5593   -0.8829 C   0  0  0  0  0  0  0  0  0  0  0  0
   -3.0379   -1.2382   -0.9769 C   0  0  0  0  0  0  0  0  0  0  0  0
   -1.6891   -1.4213   -0.8728 C   0  0  0  0  0  0  0  0  0  0  0  0
    0.8200    1.2181    0.8270 N   0  0  0  0  0  0  0  0  0  0  0  0
    1.5455    2.0284    1.5993 C   0  0  0  0  0  0  0  0  0  0  0  0
    2.8641    1.8269    1.7005 N   0  0  0  0  0  0  0  0  0  0  0  0
    3.4827    0.8087    1.0288 C   0  0  0  0  0  0  0  0  0  0  0  0
    4.8319    0.6082    1.1339 C   0  0  0  0  0  0  0  0  0  0  0  0
    5.5188   -0.4237    0.4616 C   0  0  0  0  0  0  0  0  0  0  0  0
    6.8017   -0.5143    0.6377 O   0  0  0  0  0  0  0  0  0  0  0  0
    8.0322   -0.3353    1.0062 C   0  0  0  0  0  0  0  0  0  0  0  0
    8.5793    1.0370    0.5554 C   0  0  0  0  0  0  0  0  0  0  0  0
    7.8627    2.0883    1.0746 O   0  0  0  0  0  0  0  0  0  0  0  0
    4.2619   -2.5463   -2.6821 H   0  0  0  0  0  0  0  0  0  0  0  0
    3.7769   -3.5735   -1.2858 H   0  0  0  0  0  0  0  0  0  0  0  0
    5.2953   -3.9558   -2.2579 H   0  0  0  0  0  0  0  0  0  0  0  0
    2.8191   -1.7357   -1.0857 H   0  0  0  0  0  0  0  0  0  0  0  0
    0.8892   -1.4908   -1.1485 H   0  0  0  0  0  0  0  0  0  0  0  0
   -0.7036    1.7811   -0.7711 H   0  0  0  0  0  0  0  0  0  0  0  0
   -3.1240    2.0814   -0.9440 H   0  0  0  0  0  0  0  0  0  0  0  0
   -5.5079    0.2868   -1.9932 H   0  0  0  0  0  0  0  0  0  0  0  0
   -7.1742    0.3329    2.3852 H   0  0  0  0  0  0  0  0  0  0  0  0
   -9.6073    0.6295    2.5913 H   0  0  0  0  0  0  0  0  0  0  0  0
  -10.9655    0.8779    0.5697 H   0  0  0  0  0  0  0  0  0  0  0  0
   -9.8874    0.8342   -1.7079 H   0  0  0  0  0  0  0  0  0  0  0  0
   -7.4939    0.5429   -1.8833 H   0  0  0  0  0  0  0  0  0  0  0  0
   -3.7040   -2.1122   -1.0403 H   0  0  0  0  0  0  0  0  0  0  0  0
   -1.2932   -2.4186   -0.8545 H   0  0  0  0  0  0  0  0  0  0  0  0
    1.0326    2.8378    2.1303 H   0  0  0  0  0  0  0  0  0  0  0  0
    5.3698    1.2938    1.7794 H   0  0  0  0  0  0  0  0  0  0  0  0
    8.8207   -1.0448    0.5987 H   0  0  0  0  0  0  0  0  0  0  0  0
    8.1831   -0.2895    2.1358 H   0  0  0  0  0  0  0  0  0  0  0  0
    9.6407    1.0692    0.9306 H   0  0  0  0  0  0  0  0  0  0  0  0
    8.6274    1.1000   -0.5475 H   0  0  0  0  0  0  0  0  0  0  0  0
    7.7914    2.0723    2.0419 H   0  0  0  0  0  0  0  0  0  0  0  0
  1  2  1  0
  2  3  1  0
  3  4  2  0
  4  5  1  0
  5  6  2  0
  6  7  1  0
  7  8  1  0
  8  9  2  0
  9 10  1  0
 10 11  2  0
 11 12  1  0
 12 13  1  0
 13 14  2  0
 13 15  1  0
 15 16  2  0
 16 17  1  0
 17 18  2  0
 18 19  1  0
 19 20  2  0
 11 21  1  0
 21 22  2  0
  6 23  1  0
 23 24  2  0
 24 25  1  0
 25 26  2  0
 26 27  1  0
 27 28  2  0
 28 29  1  0
 29 30  1  0
 30 31  1  0
 31 32  1  0
 28  3  1  0
 26  5  1  0
 22  8  1  0
 20 15  1  0
  1 33  1  0
  1 34  1  0
  1 35  1  0
  4 36  1  0
  7 37  1  0
  9 38  1  0
 10 39  1  0
 12 40  1  0
 16 41  1  0
 17 42  1  0
 18 43  1  0
 19 44  1  0
 20 45  1  0
 21 46  1  0
 22 47  1  0
 24 48  1  0
 27 49  1  0
 30 50  1  0
 30 51  1  0
 31 52  1  0
 31 53  1  0
 32 54  1  0
M  END
$$$$
