@<TRIPOS>MOLECULE
*****
 67 71 0 0 0
SMALL
GASTEIGER

@<TRIPOS>ATOM
      1 O           5.9473   -1.5009   -2.0135 O.3     1  UNL1       -0.3934
      2 C           6.1609   -1.2272   -0.6684 C.3     1  UNL1        0.0622
      3 C           4.9109   -1.0860    0.1476 C.3     1  UNL1        0.0621
      4 C           5.2438   -0.8947    1.6236 C.3     1  UNL1        0.1011
      5 O           5.8166   -2.0333    2.1666 O.3     1  UNL1       -0.3875
      6 C           6.0751    0.3263    1.7787 C.3     1  UNL1        0.1095
      7 O           6.3444    0.5554    3.1398 O.3     1  UNL1       -0.3866
      8 C           5.3911    1.5074    1.1484 C.3     1  UNL1        0.0962
      9 O           6.2034    2.1672    0.2171 O.3     1  UNL1       -0.3879
     10 C           4.0715    1.1181    0.5904 C.3     1  UNL1        0.0279
     11 N           4.0322   -0.0470   -0.2181 N.3     1  UNL1       -0.2923
     12 C           3.6646    0.1350   -1.5586 C.3     1  UNL1       -0.0006
     13 C           2.2853    0.5901   -1.8684 C.3     1  UNL1       -0.0401
     14 C           1.2394   -0.3412   -1.4128 C.3     1  UNL1       -0.0498
     15 C           1.1553   -0.6034    0.0653 C.3     1  UNL1       -0.0294
     16 C          -0.0132   -1.5553    0.2541 C.3     1  UNL1        0.0481
     17 O          -1.1638   -1.0000   -0.2270 O.3     1  UNL1       -0.3752
     18 C          -1.5043    0.1492    0.4117 C.3     1  UNL1        0.0732
     19 C          -2.7909    0.7261   -0.0677 C.ar    1  UNL1       -0.0142
     20 C          -2.8651    1.8198   -0.8937 C.ar    1  UNL1       -0.0552
     21 C          -4.1102    2.3174   -1.3098 C.ar    1  UNL1       -0.0536
     22 C          -5.2873    1.7165   -0.8965 C.ar    1  UNL1       -0.0167
     23 C          -6.5247    2.2040   -1.3047 C.ar    1  UNL1       -0.0534
     24 C          -7.6553    1.5598   -0.8572 C.ar    1  UNL1       -0.0534
     25 C          -7.6078    0.4664   -0.0323 C.ar    1  UNL1       -0.0167
     26 C          -8.7210   -0.1891    0.4240 C.ar    1  UNL1       -0.0540
     27 C          -8.6279   -1.2899    1.2556 C.ar    1  UNL1       -0.0606
     28 C          -7.3964   -1.7649    1.6542 C.ar    1  UNL1       -0.0540
     29 C          -6.2772   -1.0932    1.1859 C.ar    1  UNL1       -0.0167
     30 C          -5.0519   -1.6017    1.6093 C.ar    1  UNL1       -0.0534
     31 C          -3.9350   -0.9511    1.1568 C.ar    1  UNL1       -0.0531
     32 C          -3.9616    0.1345    0.3388 C.ar    1  UNL1       -0.0113
     33 C          -5.2043    0.6264   -0.0729 C.ar    1  UNL1       -0.0021
     34 C          -6.3695    0.0011    0.3591 C.ar    1  UNL1       -0.0025
     35 H           5.9626   -2.4796   -2.1430 H       1  UNL1        0.2095
     36 H           6.8139   -2.0575   -0.2729 H       1  UNL1        0.0573
     37 H           6.8016   -0.2975   -0.6769 H       1  UNL1        0.0573
     38 H           4.4265   -2.1041    0.1183 H       1  UNL1        0.0511
     39 H           4.2482   -0.7774    2.1423 H       1  UNL1        0.0636
     40 H           6.7999   -2.0297    2.1682 H       1  UNL1        0.2100
     41 H           7.0408    0.1702    1.2360 H       1  UNL1        0.0646
     42 H           7.2237    1.0426    3.1731 H       1  UNL1        0.2100
     43 H           5.2238    2.2461    1.9851 H       1  UNL1        0.0633
     44 H           5.6725    2.9421   -0.1034 H       1  UNL1        0.2099
     45 H           3.3453    1.1013    1.4364 H       1  UNL1        0.0453
     46 H           3.7111    1.9689   -0.0665 H       1  UNL1        0.0453
     47 H           4.4038    0.8490   -2.0266 H       1  UNL1        0.0427
     48 H           3.8409   -0.8230   -2.1128 H       1  UNL1        0.0427
     49 H           2.0513    1.5970   -1.4412 H       1  UNL1        0.0278
     50 H           2.2210    0.7747   -2.9870 H       1  UNL1        0.0278
     51 H           1.3346   -1.3628   -1.9035 H       1  UNL1        0.0266
     52 H           0.2579    0.0336   -1.8068 H       1  UNL1        0.0266
     53 H           2.1001   -1.1467    0.4187 H       1  UNL1        0.0287
     54 H           1.0383    0.2907    0.6914 H       1  UNL1        0.0287
     55 H           0.2260   -2.5273   -0.2375 H       1  UNL1        0.0560
     56 H          -0.1554   -1.7255    1.3594 H       1  UNL1        0.0560
     57 H          -0.7051    0.9246    0.1893 H       1  UNL1        0.0610
     58 H          -1.4631    0.0289    1.5089 H       1  UNL1        0.0610
     59 H          -1.9563    2.2859   -1.2144 H       1  UNL1        0.0621
     60 H          -4.1865    3.1767   -1.9595 H       1  UNL1        0.0624
     61 H          -6.5743    3.0533   -1.9460 H       1  UNL1        0.0624
     62 H          -8.6438    1.9051   -1.1501 H       1  UNL1        0.0624
     63 H          -9.6855    0.2037    0.0963 H       1  UNL1        0.0624
     64 H          -9.5593   -1.7704    1.5861 H       1  UNL1        0.0618
     65 H          -7.3089   -2.6405    2.3163 H       1  UNL1        0.0624
     66 H          -5.0076   -2.4606    2.2573 H       1  UNL1        0.0624
     67 H          -2.9718   -1.3339    1.4761 H       1  UNL1        0.0624
@<TRIPOS>BOND
     1     1     2    1
     2     2     3    1
     3     3     4    1
     4     4     5    1
     5     4     6    1
     6     6     7    1
     7     6     8    1
     8     8     9    1
     9     8    10    1
    10    10    11    1
    11    11    12    1
    12    12    13    1
    13    13    14    1
    14    14    15    1
    15    15    16    1
    16    16    17    1
    17    17    18    1
    18    18    19    1
    19    19    20   ar
    20    20    21   ar
    21    21    22   ar
    22    22    23   ar
    23    23    24   ar
    24    24    25   ar
    25    25    26   ar
    26    26    27   ar
    27    27    28   ar
    28    28    29   ar
    29    29    30   ar
    30    30    31   ar
    31    31    32   ar
    32    32    33   ar
    33    33    34   ar
    34    11     3    1
    35    32    19   ar
    36    33    22   ar
    37    34    25   ar
    38    34    29   ar
    39     1    35    1
    40     2    36    1
    41     2    37    1
    42     3    38    1
    43     4    39    1
    44     5    40    1
    45     6    41    1
    46     7    42    1
    47     8    43    1
    48     9    44    1
    49    10    45    1
    50    10    46    1
    51    12    47    1
    52    12    48    1
    53    13    49    1
    54    13    50    1
    55    14    51    1
    56    14    52    1
    57    15    53    1
    58    15    54    1
    59    16    55    1
    60    16    56    1
    61    18    57    1
    62    18    58    1
    63    20    59    1
    64    21    60    1
    65    23    61    1
    66    24    62    1
    67    26    63    1
    68    27    64    1
    69    28    65    1
    70    30    66    1
    71    31    67    1
