
     RDKit          3D

 31 32  0  0  0  0  0  0  0  0999 V2000
   -4.9534    0.3853    0.0160 C   0  0  0  0  0  0  0  0  0  0  0  0
   -4.3098   -0.2943   -1.0359 O   0  0  0  0  0  0  0  0  0  0  0  0
   -2.9432   -0.5206   -0.9246 C   0  0  0  0  0  0  0  0  0  0  0  0
   -2.1982   -0.1117    0.1618 C   0  0  0  0  0  0  0  0  0  0  0  0
   -0.8510   -0.3205    0.2991 C   0  0  0  0  0  0  0  0  0  0  0  0
   -0.1916   -0.9872   -0.7218 C   0  0  0  0  0  0  0  0  0  0  0  0
    1.2045   -1.2490   -0.6698 N   0  0  0  0  0  0  0  0  0  0  0  0
    2.0398   -0.5886    0.2621 C   0  0  0  0  0  0  0  0  0  0  0  0
    2.6471   -1.3887    1.2237 C   0  0  0  0  0  0  0  0  0  0  0  0
    3.4752   -0.8190    2.1648 C   0  0  0  0  0  0  0  0  0  0  0  0
    3.6692    0.5427    2.1117 C   0  0  0  0  0  0  0  0  0  0  0  0
    3.0736    1.3467    1.1628 C   0  0  0  0  0  0  0  0  0  0  0  0
    2.2315    0.7660    0.2045 C   0  0  0  0  0  0  0  0  0  0  0  0
    1.6680    1.6368   -0.8073 C   0  0  0  0  0  0  0  0  0  0  0  0
    0.9626    1.2534   -1.7647 O   0  0  0  0  0  0  0  0  0  0  0  0
    1.8989    3.0250   -0.7588 O   0  0  0  0  0  0  0  0  0  0  0  0
   -0.8975   -1.4100   -1.8195 C   0  0  0  0  0  0  0  0  0  0  0  0
   -2.2399   -1.1876   -1.9285 C   0  0  0  0  0  0  0  0  0  0  0  0
   -5.9823    0.7309   -0.2816 H   0  0  0  0  0  0  0  0  0  0  0  0
   -4.3970    1.3237    0.2923 H   0  0  0  0  0  0  0  0  0  0  0  0
   -5.1059   -0.2370    0.9163 H   0  0  0  0  0  0  0  0  0  0  0  0
   -2.7026    0.4111    0.9676 H   0  0  0  0  0  0  0  0  0  0  0  0
   -0.2764    0.0010    1.1488 H   0  0  0  0  0  0  0  0  0  0  0  0
    1.6038   -1.9596   -1.3539 H   0  0  0  0  0  0  0  0  0  0  0  0
    2.4895   -2.4688    1.2612 H   0  0  0  0  0  0  0  0  0  0  0  0
    3.9636   -1.4388    2.9328 H   0  0  0  0  0  0  0  0  0  0  0  0
    4.3188    1.0076    2.8471 H   0  0  0  0  0  0  0  0  0  0  0  0
    3.2365    2.4153    1.1350 H   0  0  0  0  0  0  0  0  0  0  0  0
    1.7677    3.5953   -1.6064 H   0  0  0  0  0  0  0  0  0  0  0  0
   -0.3980   -1.9414   -2.6435 H   0  0  0  0  0  0  0  0  0  0  0  0
   -2.8038   -1.5180   -2.7911 H   0  0  0  0  0  0  0  0  0  0  0  0
  1  2  1  0
  2  3  1  0
  3  4  2  0
  4  5  1  0
  5  6  2  0
  6  7  1  0
  7  8  1  0
  8  9  2  0
  9 10  1  0
 10 11  2  0
 11 12  1  0
 12 13  2  0
 13 14  1  0
 14 15  2  0
 14 16  1  0
  6 17  1  0
 17 18  2  0
 18  3  1  0
 13  8  1  0
  1 19  1  0
  1 20  1  0
  1 21  1  0
  4 22  1  0
  5 23  1  0
  7 24  1  0
  9 25  1  0
 10 26  1  0
 11 27  1  0
 12 28  1  0
 16 29  1  0
 17 30  1  0
 18 31  1  0
M  END
$$$$
