@<TRIPOS>MOLECULE
*****
 31 32 0 0 0
SMALL
GASTEIGER

@<TRIPOS>ATOM
      1 C          -4.9534    0.3853    0.0160 C.3     1  UNL1        0.0788
      2 O          -4.3098   -0.2943   -1.0359 O.3     1  UNL1       -0.4951
      3 C          -2.9432   -0.5206   -0.9246 C.ar    1  UNL1        0.1202
      4 C          -2.1982   -0.1117    0.1618 C.ar    1  UNL1       -0.0182
      5 C          -0.8510   -0.3205    0.2991 C.ar    1  UNL1       -0.0371
      6 C          -0.1916   -0.9872   -0.7218 C.ar    1  UNL1        0.0315
      7 N           1.2045   -1.2490   -0.6698 N.pl3   1  UNL1       -0.3138
      8 C           2.0398   -0.5886    0.2621 C.ar    1  UNL1        0.0454
      9 C           2.6471   -1.3887    1.2237 C.ar    1  UNL1       -0.0397
     10 C           3.4752   -0.8190    2.1648 C.ar    1  UNL1       -0.0600
     11 C           3.6692    0.5427    2.1117 C.ar    1  UNL1       -0.0609
     12 C           3.0736    1.3467    1.1628 C.ar    1  UNL1       -0.0460
     13 C           2.2315    0.7660    0.2045 C.ar    1  UNL1        0.0799
     14 C           1.6680    1.6368   -0.8073 C.2     1  UNL1        0.3386
     15 O           0.9626    1.2534   -1.7647 O.2     1  UNL1       -0.2451
     16 O           1.8989    3.0250   -0.7588 O.3     1  UNL1       -0.4771
     17 C          -0.8975   -1.4100   -1.8195 C.ar    1  UNL1       -0.0371
     18 C          -2.2399   -1.1876   -1.9285 C.ar    1  UNL1       -0.0182
     19 H          -5.9823    0.7309   -0.2816 H       1  UNL1        0.0660
     20 H          -4.3970    1.3237    0.2923 H       1  UNL1        0.0660
     21 H          -5.1059   -0.2370    0.9163 H       1  UNL1        0.0660
     22 H          -2.7026    0.4111    0.9676 H       1  UNL1        0.0655
     23 H          -0.2764    0.0010    1.1488 H       1  UNL1        0.0637
     24 H           1.6038   -1.9596   -1.3539 H       1  UNL1        0.1522
     25 H           2.4895   -2.4688    1.2612 H       1  UNL1        0.0636
     26 H           3.9636   -1.4388    2.9328 H       1  UNL1        0.0618
     27 H           4.3188    1.0076    2.8471 H       1  UNL1        0.0618
     28 H           3.2365    2.4153    1.1350 H       1  UNL1        0.0626
     29 H           1.7677    3.5953   -1.6064 H       1  UNL1        0.2954
     30 H          -0.3980   -1.9414   -2.6435 H       1  UNL1        0.0637
     31 H          -2.8038   -1.5180   -2.7911 H       1  UNL1        0.0655
@<TRIPOS>BOND
     1     1     2    1
     2     2     3    1
     3     3     4   ar
     4     4     5   ar
     5     5     6   ar
     6     6     7    1
     7     7     8    1
     8     8     9   ar
     9     9    10   ar
    10    10    11   ar
    11    11    12   ar
    12    12    13   ar
    13    13    14    1
    14    14    15    2
    15    14    16    1
    16     6    17   ar
    17    17    18   ar
    18    18     3   ar
    19    13     8   ar
    20     1    19    1
    21     1    20    1
    22     1    21    1
    23     4    22    1
    24     5    23    1
    25     7    24    1
    26     9    25    1
    27    10    26    1
    28    11    27    1
    29    12    28    1
    30    16    29    1
    31    17    30    1
    32    18    31    1
