@<TRIPOS>MOLECULE
*****
 35 35 0 0 0
SMALL
GASTEIGER

@<TRIPOS>ATOM
      1 O           2.3739    2.6663   -1.0248 O.3     1  UNL1       -0.3864
      2 C           1.3589    1.8313   -0.6743 C.3     1  UNL1        0.1141
      3 C           0.0239    2.1633   -1.3633 C.3     1  UNL1        0.1346
      4 O           0.3547    2.2133   -2.7122 O.3     1  UNL1       -0.3841
      5 C          -0.6573    0.8724   -0.9844 C.3     1  UNL1        0.1988
      6 O          -1.9323    0.7398   -1.3760 O.3     1  UNL1       -0.2536
      7 P          -3.0781    0.5388   -0.1868 P.3     1  UNL1        0.4856
      8 O          -4.5788    0.2381   -0.8556 O.3     1  UNL1       -0.3022
      9 O          -3.0958    1.6357    0.8464 O.2     1  UNL1       -0.2268
     10 O          -2.6139   -0.8680    0.6749 O.3     1  UNL1       -0.1861
     11 P          -3.9849   -1.6071    1.3521 P.3     1  UNL1        0.4808
     12 O          -3.8909   -1.5403    3.0528 O.3     1  UNL1       -0.3023
     13 O          -5.4139   -0.9127    0.8009 O.3     1  UNL1       -0.3023
     14 O          -3.9321   -3.0700    0.9773 O.2     1  UNL1       -0.2271
     15 O           0.2354   -0.0750   -1.4540 O.3     1  UNL1       -0.3400
     16 C           1.5022    0.4178   -1.1929 C.3     1  UNL1        0.1139
     17 C           2.2907   -0.4443   -0.2196 C.3     1  UNL1        0.0879
     18 O           3.5486    0.0660    0.0253 O.3     1  UNL1       -0.2841
     19 P           4.4203   -0.8987    1.1101 P.3     1  UNL1        0.4724
     20 O           4.6290   -2.4177    0.3699 O.3     1  UNL1       -0.3026
     21 O           3.5835   -1.1361    2.5531 O.3     1  UNL1       -0.3026
     22 O           5.7960   -0.3154    1.3315 O.2     1  UNL1       -0.2275
     23 H           2.9926    2.7263   -0.2284 H       1  UNL1        0.2100
     24 H           1.1375    1.7819    0.4075 H       1  UNL1        0.0648
     25 H          -0.4375    3.0610   -0.9688 H       1  UNL1        0.0671
     26 H           0.0116    1.3840   -3.1344 H       1  UNL1        0.2101
     27 H          -0.6161    0.8184    0.1301 H       1  UNL1        0.0943
     28 H          -4.7916    0.9259   -1.5228 H       1  UNL1        0.2220
     29 H          -4.8039   -1.7354    3.3968 H       1  UNL1        0.2220
     30 H          -5.8422   -1.5451    0.1742 H       1  UNL1        0.2220
     31 H           2.1124    0.5123   -2.1317 H       1  UNL1        0.0647
     32 H           2.4407   -1.4482   -0.6661 H       1  UNL1        0.0592
     33 H           1.6873   -0.5395    0.7137 H       1  UNL1        0.0592
     34 H           4.9988   -2.3180   -0.5400 H       1  UNL1        0.2220
     35 H           4.1716   -1.2782    3.3194 H       1  UNL1        0.2220
@<TRIPOS>BOND
     1     1     2    1
     2     2     3    1
     3     3     4    1
     4     3     5    1
     5     5     6    1
     6     6     7    1
     7     7     8    1
     8     7     9    2
     9     7    10    1
    10    10    11    1
    11    11    12    1
    12    11    13    1
    13    11    14    2
    14     5    15    1
    15    15    16    1
    16    16    17    1
    17    17    18    1
    18    18    19    1
    19    19    20    1
    20    19    21    1
    21    19    22    2
    22    16     2    1
    23     1    23    1
    24     2    24    1
    25     3    25    1
    26     4    26    1
    27     5    27    1
    28     8    28    1
    29    12    29    1
    30    13    30    1
    31    16    31    1
    32    17    32    1
    33    17    33    1
    34    20    34    1
    35    21    35    1
