
     RDKit          3D

 35 35  0  0  0  0  0  0  0  0999 V2000
    2.3739    2.6663   -1.0248 O   0  0  0  0  0  0  0  0  0  0  0  0
    1.3589    1.8313   -0.6743 C   0  0  1  0  0  0  0  0  0  0  0  0
    0.0239    2.1633   -1.3633 C   0  0  1  0  0  0  0  0  0  0  0  0
    0.3547    2.2133   -2.7122 O   0  0  0  0  0  0  0  0  0  0  0  0
   -0.6573    0.8724   -0.9844 C   0  0  1  0  0  0  0  0  0  0  0  0
   -1.9323    0.7398   -1.3760 O   0  0  0  0  0  0  0  0  0  0  0  0
   -3.0781    0.5388   -0.1868 P   0  0  0  0  0  0  0  0  0  0  0  0
   -4.5788    0.2381   -0.8556 O   0  0  0  0  0  0  0  0  0  0  0  0
   -3.0958    1.6357    0.8464 O   0  0  0  0  0  0  0  0  0  0  0  0
   -2.6139   -0.8680    0.6749 O   0  0  0  0  0  0  0  0  0  0  0  0
   -3.9849   -1.6071    1.3521 P   0  0  0  0  0  0  0  0  0  0  0  0
   -3.8909   -1.5403    3.0528 O   0  0  0  0  0  0  0  0  0  0  0  0
   -5.4139   -0.9127    0.8009 O   0  0  0  0  0  0  0  0  0  0  0  0
   -3.9321   -3.0700    0.9773 O   0  0  0  0  0  0  0  0  0  0  0  0
    0.2354   -0.0750   -1.4540 O   0  0  0  0  0  0  0  0  0  0  0  0
    1.5022    0.4178   -1.1929 C   0  0  2  0  0  0  0  0  0  0  0  0
    2.2907   -0.4443   -0.2196 C   0  0  0  0  0  0  0  0  0  0  0  0
    3.5486    0.0660    0.0253 O   0  0  0  0  0  0  0  0  0  0  0  0
    4.4203   -0.8987    1.1101 P   0  0  0  0  0  0  0  0  0  0  0  0
    4.6290   -2.4177    0.3699 O   0  0  0  0  0  0  0  0  0  0  0  0
    3.5835   -1.1361    2.5531 O   0  0  0  0  0  0  0  0  0  0  0  0
    5.7960   -0.3154    1.3315 O   0  0  0  0  0  0  0  0  0  0  0  0
    2.9926    2.7263   -0.2284 H   0  0  0  0  0  0  0  0  0  0  0  0
    1.1375    1.7819    0.4075 H   0  0  0  0  0  0  0  0  0  0  0  0
   -0.4375    3.0610   -0.9688 H   0  0  0  0  0  0  0  0  0  0  0  0
    0.0116    1.3840   -3.1344 H   0  0  0  0  0  0  0  0  0  0  0  0
   -0.6161    0.8184    0.1301 H   0  0  0  0  0  0  0  0  0  0  0  0
   -4.7916    0.9259   -1.5228 H   0  0  0  0  0  0  0  0  0  0  0  0
   -4.8039   -1.7354    3.3968 H   0  0  0  0  0  0  0  0  0  0  0  0
   -5.8422   -1.5451    0.1742 H   0  0  0  0  0  0  0  0  0  0  0  0
    2.1124    0.5123   -2.1317 H   0  0  0  0  0  0  0  0  0  0  0  0
    2.4407   -1.4482   -0.6661 H   0  0  0  0  0  0  0  0  0  0  0  0
    1.6873   -0.5395    0.7137 H   0  0  0  0  0  0  0  0  0  0  0  0
    4.9988   -2.3180   -0.5400 H   0  0  0  0  0  0  0  0  0  0  0  0
    4.1716   -1.2782    3.3194 H   0  0  0  0  0  0  0  0  0  0  0  0
  1  2  1  0
  2  3  1  0
  3  4  1  0
  3  5  1  0
  5  6  1  0
  6  7  1  0
  7  8  1  0
  7  9  2  0
  7 10  1  0
 10 11  1  0
 11 12  1  0
 11 13  1  0
 11 14  2  0
  5 15  1  0
 15 16  1  0
 16 17  1  0
 17 18  1  0
 18 19  1  0
 19 20  1  0
 19 21  1  0
 19 22  2  0
 16  2  1  0
  1 23  1  0
  2 24  1  1
  3 25  1  1
  4 26  1  0
  5 27  1  1
  8 28  1  0
 12 29  1  0
 13 30  1  0
 16 31  1  6
 17 32  1  0
 17 33  1  0
 20 34  1  0
 21 35  1  0
M  END
$$$$
