
     RDKit          3D

 43 46  0  0  0  0  0  0  0  0999 V2000
   -0.6191    1.9950    0.0193 C   0  0  0  0  0  0  0  0  0  0  0  0
   -0.0015    0.6060    0.1859 C   0  0  1  0  0  0  0  0  0  0  0  0
    1.4711    0.8061    0.4422 C   0  0  0  0  0  0  0  0  0  0  0  0
    2.0118   -0.3409    1.1787 C   0  0  0  0  0  0  0  0  0  0  0  0
    1.3097   -0.8351    2.2542 C   0  0  0  0  0  0  0  0  0  0  0  0
    2.0018   -1.8562    2.7515 N   0  0  0  0  0  0  0  0  0  0  0  0
    3.0842   -1.9805    2.0081 N   0  0  0  0  0  0  0  0  0  0  0  0
    3.1415   -1.0884    1.0406 N   0  0  0  0  0  0  0  0  0  0  0  0
    4.1428   -0.9046    0.0439 C   0  0  0  0  0  0  0  0  0  0  0  0
    4.3541    0.2907   -0.5365 N   0  0  0  0  0  0  0  0  0  0  0  0
    5.3158    0.4518   -1.4888 C   0  0  0  0  0  0  0  0  0  0  0  0
    6.1044   -0.6157   -1.8858 C   0  0  0  0  0  0  0  0  0  0  0  0
    7.0678   -0.4623   -2.8372 F   0  0  0  0  0  0  0  0  0  0  0  0
    5.8699   -1.8306   -1.2774 C   0  0  0  0  0  0  0  0  0  0  0  0
    4.9027   -1.9335   -0.3385 N   0  0  0  0  0  0  0  0  0  0  0  0
    0.0176   -0.1252    2.5499 C   0  0  0  0  0  0  0  0  0  0  0  0
   -0.6891   -0.0430    1.2745 N   0  0  0  0  0  0  0  0  0  0  0  0
   -1.9771   -0.6028    1.1814 C   0  0  0  0  0  0  0  0  0  0  0  0
   -2.4605   -1.1547    2.2188 O   0  0  0  0  0  0  0  0  0  0  0  0
   -2.7866   -0.5876   -0.0323 C   0  0  0  0  0  0  0  0  0  0  0  0
   -2.6909   -1.5877   -0.9459 C   0  0  0  0  0  0  0  0  0  0  0  0
   -3.4752   -1.5443   -2.0962 C   0  0  0  0  0  0  0  0  0  0  0  0
   -4.3509   -0.4916   -2.3168 C   0  0  0  0  0  0  0  0  0  0  0  0
   -4.4363    0.5149   -1.3805 C   0  0  0  0  0  0  0  0  0  0  0  0
   -5.3450    1.6684   -1.5445 C   0  0  0  0  0  0  0  0  0  0  0  0
   -6.2287    1.6874   -0.4871 F   0  0  0  0  0  0  0  0  0  0  0  0
   -4.5741    2.8334   -1.5258 F   0  0  0  0  0  0  0  0  0  0  0  0
   -5.9943    1.6077   -2.7459 F   0  0  0  0  0  0  0  0  0  0  0  0
   -3.6461    0.4478   -0.2462 C   0  0  0  0  0  0  0  0  0  0  0  0
   -3.7515    1.4638    0.6742 F   0  0  0  0  0  0  0  0  0  0  0  0
   -1.3031    2.0106   -0.8719 H   0  0  0  0  0  0  0  0  0  0  0  0
    0.1936    2.7373   -0.1314 H   0  0  0  0  0  0  0  0  0  0  0  0
   -1.1919    2.2623    0.9113 H   0  0  0  0  0  0  0  0  0  0  0  0
   -0.1914    0.0544   -0.7590 H   0  0  0  0  0  0  0  0  0  0  0  0
    1.9604    0.9676   -0.5389 H   0  0  0  0  0  0  0  0  0  0  0  0
    1.5597    1.6978    1.1027 H   0  0  0  0  0  0  0  0  0  0  0  0
    5.4612    1.4249   -1.9363 H   0  0  0  0  0  0  0  0  0  0  0  0
    6.4785   -2.6737   -1.5776 H   0  0  0  0  0  0  0  0  0  0  0  0
   -0.5588   -0.6290    3.3279 H   0  0  0  0  0  0  0  0  0  0  0  0
    0.2677    0.9177    2.8483 H   0  0  0  0  0  0  0  0  0  0  0  0
   -2.0259   -2.4277   -0.8215 H   0  0  0  0  0  0  0  0  0  0  0  0
   -3.4425   -2.3074   -2.8550 H   0  0  0  0  0  0  0  0  0  0  0  0
   -4.9756   -0.4230   -3.1970 H   0  0  0  0  0  0  0  0  0  0  0  0
  1  2  1  0
  2  3  1  0
  3  4  1  0
  4  5  2  0
  5  6  1  0
  6  7  2  0
  7  8  1  0
  8  9  1  0
  9 10  2  0
 10 11  1  0
 11 12  2  0
 12 13  1  0
 12 14  1  0
 14 15  2  0
  5 16  1  0
 16 17  1  0
 17 18  1  0
 18 19  2  0
 18 20  1  0
 20 21  2  0
 21 22  1  0
 22 23  2  0
 23 24  1  0
 24 25  1  0
 25 26  1  0
 25 27  1  0
 25 28  1  0
 24 29  2  0
 29 30  1  0
 17  2  1  0
 29 20  1  0
  8  4  1  0
 15  9  1  0
  1 31  1  0
  1 32  1  0
  1 33  1  0
  2 34  1  6
  3 35  1  0
  3 36  1  0
 11 37  1  0
 14 38  1  0
 16 39  1  0
 16 40  1  0
 21 41  1  0
 22 42  1  0
 23 43  1  0
M  END
$$$$
