@<TRIPOS>MOLECULE
*****
 43 46 0 0 0
SMALL
GASTEIGER

@<TRIPOS>ATOM
      1 C          -0.6191    1.9950    0.0193 C.3     1  UNL1       -0.0460
      2 C          -0.0015    0.6060    0.1859 C.3     1  UNL1        0.0293
      3 C           1.4711    0.8061    0.4422 C.3     1  UNL1        0.0101
      4 C           2.0118   -0.3409    1.1787 C.ar    1  UNL1        0.0745
      5 C           1.3097   -0.8351    2.2542 C.ar    1  UNL1        0.1038
      6 N           2.0018   -1.8562    2.7515 N.ar    1  UNL1       -0.1322
      7 N           3.0842   -1.9805    2.0081 N.ar    1  UNL1       -0.0576
      8 N           3.1415   -1.0884    1.0406 N.ar    1  UNL1       -0.1820
      9 C           4.1428   -0.9046    0.0439 C.ar    1  UNL1        0.2530
     10 N           4.3541    0.2907   -0.5365 N.ar    1  UNL1       -0.2161
     11 C           5.3158    0.4518   -1.4888 C.ar    1  UNL1        0.0681
     12 C           6.1044   -0.6157   -1.8858 C.ar    1  UNL1        0.1595
     13 F           7.0678   -0.4623   -2.8372 F       1  UNL1       -0.2023
     14 C           5.8699   -1.8306   -1.2774 C.ar    1  UNL1        0.0681
     15 N           4.9027   -1.9335   -0.3385 N.ar    1  UNL1       -0.2161
     16 C           0.0176   -0.1252    2.5499 C.3     1  UNL1        0.0610
     17 N          -0.6891   -0.0430    1.2745 N.am    1  UNL1       -0.2884
     18 C          -1.9771   -0.6028    1.1814 C.2     1  UNL1        0.2500
     19 O          -2.4605   -1.1547    2.2188 O.2     1  UNL1       -0.2699
     20 C          -2.7866   -0.5876   -0.0323 C.ar    1  UNL1        0.0726
     21 C          -2.6909   -1.5877   -0.9459 C.ar    1  UNL1       -0.0468
     22 C          -3.4752   -1.5443   -2.0962 C.ar    1  UNL1       -0.0603
     23 C          -4.3509   -0.4916   -2.3168 C.ar    1  UNL1       -0.0473
     24 C          -4.4363    0.5149   -1.3805 C.ar    1  UNL1        0.0906
     25 C          -5.3450    1.6684   -1.5445 C.3     1  UNL1        0.4201
     26 F          -6.2287    1.6874   -0.4871 F       1  UNL1       -0.1658
     27 F          -4.5741    2.8334   -1.5258 F       1  UNL1       -0.1658
     28 F          -5.9943    1.6077   -2.7459 F       1  UNL1       -0.1658
     29 C          -3.6461    0.4478   -0.2462 C.ar    1  UNL1        0.1471
     30 F          -3.7515    1.4638    0.6742 F       1  UNL1       -0.2041
     31 H          -1.3031    2.0106   -0.8719 H       1  UNL1        0.0248
     32 H           0.1936    2.7373   -0.1314 H       1  UNL1        0.0248
     33 H          -1.1919    2.2623    0.9113 H       1  UNL1        0.0248
     34 H          -0.1914    0.0544   -0.7590 H       1  UNL1        0.0502
     35 H           1.9604    0.9676   -0.5389 H       1  UNL1        0.0347
     36 H           1.5597    1.6978    1.1027 H       1  UNL1        0.0347
     37 H           5.4612    1.4249   -1.9363 H       1  UNL1        0.0860
     38 H           6.4785   -2.6737   -1.5776 H       1  UNL1        0.0860
     39 H          -0.5588   -0.6290    3.3279 H       1  UNL1        0.0530
     40 H           0.2677    0.9177    2.8483 H       1  UNL1        0.0530
     41 H          -2.0259   -2.4277   -0.8215 H       1  UNL1        0.0626
     42 H          -3.4425   -2.3074   -2.8550 H       1  UNL1        0.0618
     43 H          -4.9756   -0.4230   -3.1970 H       1  UNL1        0.0624
@<TRIPOS>BOND
     1     1     2    1
     2     2     3    1
     3     3     4    1
     4     4     5   ar
     5     5     6   ar
     6     6     7   ar
     7     7     8   ar
     8     8     9    1
     9     9    10   ar
    10    10    11   ar
    11    11    12   ar
    12    12    13    1
    13    12    14   ar
    14    14    15   ar
    15     5    16    1
    16    16    17    1
    17    17    18   am
    18    18    19    2
    19    18    20    1
    20    20    21   ar
    21    21    22   ar
    22    22    23   ar
    23    23    24   ar
    24    24    25    1
    25    25    26    1
    26    25    27    1
    27    25    28    1
    28    24    29   ar
    29    29    30    1
    30    17     2    1
    31    29    20   ar
    32     8     4   ar
    33    15     9   ar
    34     1    31    1
    35     1    32    1
    36     1    33    1
    37     2    34    1
    38     3    35    1
    39     3    36    1
    40    11    37    1
    41    14    38    1
    42    16    39    1
    43    16    40    1
    44    21    41    1
    45    22    42    1
    46    23    43    1
