@<TRIPOS>MOLECULE
*****
 37 39 0 0 0
SMALL
GASTEIGER

@<TRIPOS>ATOM
      1 C          -3.8644   -2.1779   -0.7676 C.3     1  UNL1       -0.0155
      2 N          -2.5834   -2.1815   -0.0984 N.3     1  UNL1       -0.3159
      3 C          -1.7258   -1.1499   -0.6800 C.3     1  UNL1        0.0122
      4 C          -2.3517    0.1915   -0.5226 C.3     1  UNL1       -0.0119
      5 C          -1.4306    1.2364    0.0152 C.ar    1  UNL1       -0.0421
      6 C          -2.0031    2.3668    0.5332 C.ar    1  UNL1       -0.0582
      7 C          -1.2233    3.3810    1.0501 C.ar    1  UNL1       -0.0615
      8 C           0.1466    3.2164    1.0266 C.ar    1  UNL1       -0.0615
      9 C           0.7448    2.1004    0.5166 C.ar    1  UNL1       -0.0577
     10 C          -0.0581    1.1022    0.0063 C.ar    1  UNL1       -0.0367
     11 C           0.4840   -0.1494   -0.5705 C.3     1  UNL1        0.0109
     12 C           1.9094   -0.3309   -0.3797 C.ar    1  UNL1       -0.0384
     13 C           2.8123    0.1336   -1.2945 C.ar    1  UNL1       -0.0565
     14 C           4.1541   -0.0681   -1.0600 C.ar    1  UNL1       -0.0417
     15 C           4.6219   -0.7104    0.0440 C.ar    1  UNL1        0.0593
     16 CL          6.3473   -0.9320    0.2784 Cl      1  UNL1       -0.0820
     17 C           3.7194   -1.1812    0.9702 C.ar    1  UNL1        0.0595
     18 CL          4.3335   -2.0020    2.3794 Cl      1  UNL1       -0.0820
     19 C           2.3639   -0.9823    0.7418 C.ar    1  UNL1       -0.0382
     20 C          -0.3664   -1.2782   -0.0282 C.3     1  UNL1       -0.0264
     21 H          -4.3401   -3.1697   -0.6083 H       1  UNL1        0.0388
     22 H          -3.7152   -1.9576   -1.8431 H       1  UNL1        0.0388
     23 H          -4.5229   -1.3823   -0.3687 H       1  UNL1        0.0388
     24 H          -2.7383   -2.0099    0.9099 H       1  UNL1        0.1219
     25 H          -1.5763   -1.4053   -1.7582 H       1  UNL1        0.0464
     26 H          -2.7583    0.5070   -1.5137 H       1  UNL1        0.0328
     27 H          -3.2075    0.1140    0.1852 H       1  UNL1        0.0328
     28 H          -3.0921    2.4925    0.5494 H       1  UNL1        0.0620
     29 H          -1.6719    4.2945    1.4693 H       1  UNL1        0.0618
     30 H           0.8111    3.9957    1.4265 H       1  UNL1        0.0618
     31 H           1.8196    1.9482    0.4871 H       1  UNL1        0.0621
     32 H           0.2748   -0.1102   -1.6714 H       1  UNL1        0.0398
     33 H           2.5250    0.6592   -2.2070 H       1  UNL1        0.0621
     34 H           4.8712    0.2994   -1.7840 H       1  UNL1        0.0633
     35 H           1.7055   -1.3805    1.5152 H       1  UNL1        0.0635
     36 H           0.0226   -2.2693   -0.2659 H       1  UNL1        0.0289
     37 H          -0.4378   -1.2104    1.0886 H       1  UNL1        0.0289
@<TRIPOS>BOND
     1     1     2    1
     2     2     3    1
     3     3     4    1
     4     4     5    1
     5     5     6   ar
     6     6     7   ar
     7     7     8   ar
     8     8     9   ar
     9     9    10   ar
    10    10    11    1
    11    11    12    1
    12    12    13   ar
    13    13    14   ar
    14    14    15   ar
    15    15    16    1
    16    15    17   ar
    17    17    18    1
    18    17    19   ar
    19    11    20    1
    20    20     3    1
    21    10     5   ar
    22    19    12   ar
    23     1    21    1
    24     1    22    1
    25     1    23    1
    26     2    24    1
    27     3    25    1
    28     4    26    1
    29     4    27    1
    30     6    28    1
    31     7    29    1
    32     8    30    1
    33     9    31    1
    34    11    32    1
    35    13    33    1
    36    14    34    1
    37    19    35    1
    38    20    36    1
    39    20    37    1
