
     RDKit          3D

 37 39  0  0  0  0  0  0  0  0999 V2000
   -3.8644   -2.1779   -0.7676 C   0  0  0  0  0  0  0  0  0  0  0  0
   -2.5834   -2.1815   -0.0984 N   0  0  0  0  0  0  0  0  0  0  0  0
   -1.7258   -1.1499   -0.6800 C   0  0  1  0  0  0  0  0  0  0  0  0
   -2.3517    0.1915   -0.5226 C   0  0  0  0  0  0  0  0  0  0  0  0
   -1.4306    1.2364    0.0152 C   0  0  0  0  0  0  0  0  0  0  0  0
   -2.0031    2.3668    0.5332 C   0  0  0  0  0  0  0  0  0  0  0  0
   -1.2233    3.3810    1.0501 C   0  0  0  0  0  0  0  0  0  0  0  0
    0.1466    3.2164    1.0266 C   0  0  0  0  0  0  0  0  0  0  0  0
    0.7448    2.1004    0.5166 C   0  0  0  0  0  0  0  0  0  0  0  0
   -0.0581    1.1022    0.0063 C   0  0  0  0  0  0  0  0  0  0  0  0
    0.4840   -0.1494   -0.5705 C   0  0  1  0  0  0  0  0  0  0  0  0
    1.9094   -0.3309   -0.3797 C   0  0  0  0  0  0  0  0  0  0  0  0
    2.8123    0.1336   -1.2945 C   0  0  0  0  0  0  0  0  0  0  0  0
    4.1541   -0.0681   -1.0600 C   0  0  0  0  0  0  0  0  0  0  0  0
    4.6219   -0.7104    0.0440 C   0  0  0  0  0  0  0  0  0  0  0  0
    6.3473   -0.9320    0.2784 Cl  0  0  0  0  0  0  0  0  0  0  0  0
    3.7194   -1.1812    0.9702 C   0  0  0  0  0  0  0  0  0  0  0  0
    4.3335   -2.0020    2.3794 Cl  0  0  0  0  0  0  0  0  0  0  0  0
    2.3639   -0.9823    0.7418 C   0  0  0  0  0  0  0  0  0  0  0  0
   -0.3664   -1.2782   -0.0282 C   0  0  0  0  0  0  0  0  0  0  0  0
   -4.3401   -3.1697   -0.6083 H   0  0  0  0  0  0  0  0  0  0  0  0
   -3.7152   -1.9576   -1.8431 H   0  0  0  0  0  0  0  0  0  0  0  0
   -4.5229   -1.3823   -0.3687 H   0  0  0  0  0  0  0  0  0  0  0  0
   -2.7383   -2.0099    0.9099 H   0  0  0  0  0  0  0  0  0  0  0  0
   -1.5763   -1.4053   -1.7582 H   0  0  0  0  0  0  0  0  0  0  0  0
   -2.7583    0.5070   -1.5137 H   0  0  0  0  0  0  0  0  0  0  0  0
   -3.2075    0.1140    0.1852 H   0  0  0  0  0  0  0  0  0  0  0  0
   -3.0921    2.4925    0.5494 H   0  0  0  0  0  0  0  0  0  0  0  0
   -1.6719    4.2945    1.4693 H   0  0  0  0  0  0  0  0  0  0  0  0
    0.8111    3.9957    1.4265 H   0  0  0  0  0  0  0  0  0  0  0  0
    1.8196    1.9482    0.4871 H   0  0  0  0  0  0  0  0  0  0  0  0
    0.2748   -0.1102   -1.6714 H   0  0  0  0  0  0  0  0  0  0  0  0
    2.5250    0.6592   -2.2070 H   0  0  0  0  0  0  0  0  0  0  0  0
    4.8712    0.2994   -1.7840 H   0  0  0  0  0  0  0  0  0  0  0  0
    1.7055   -1.3805    1.5152 H   0  0  0  0  0  0  0  0  0  0  0  0
    0.0226   -2.2693   -0.2659 H   0  0  0  0  0  0  0  0  0  0  0  0
   -0.4378   -1.2104    1.0886 H   0  0  0  0  0  0  0  0  0  0  0  0
  1  2  1  0
  2  3  1  0
  3  4  1  0
  4  5  1  0
  5  6  2  0
  6  7  1  0
  7  8  2  0
  8  9  1  0
  9 10  2  0
 10 11  1  0
 11 12  1  0
 12 13  2  0
 13 14  1  0
 14 15  2  0
 15 16  1  0
 15 17  1  0
 17 18  1  0
 17 19  2  0
 11 20  1  0
 20  3  1  0
 10  5  1  0
 19 12  1  0
  1 21  1  0
  1 22  1  0
  1 23  1  0
  2 24  1  0
  3 25  1  6
  4 26  1  0
  4 27  1  0
  6 28  1  0
  7 29  1  0
  8 30  1  0
  9 31  1  0
 11 32  1  6
 13 33  1  0
 14 34  1  0
 19 35  1  0
 20 36  1  0
 20 37  1  0
M  END
$$$$
