@<TRIPOS>MOLECULE
*****
 75 78 0 0 0
SMALL
GASTEIGER

@<TRIPOS>ATOM
      1 C           7.2567    5.1458    0.5836 C.3     1  UNL1        0.0790
      2 O           7.3974    3.8579    1.1461 O.3     1  UNL1       -0.4915
      3 C           6.3961    2.8845    0.9650 C.ar    1  UNL1        0.1615
      4 C           5.2669    3.1951    0.2317 C.ar    1  UNL1       -0.0160
      5 C           4.3063    2.1857    0.0857 C.ar    1  UNL1       -0.0548
      6 C           4.4906    0.9371    0.6546 C.ar    1  UNL1       -0.0422
      7 C           3.4580   -0.1440    0.4961 C.3     1  UNL1       -0.0119
      8 C           3.7243   -0.9566   -0.7459 C.3     1  UNL1        0.0158
      9 N           2.7494   -1.9873   -0.8918 N.pl3   1  UNL1       -0.3131
     10 C           1.3809   -1.6441   -1.0917 C.ar    1  UNL1        0.2169
     11 N           1.0037   -0.3557   -1.1566 N.ar    1  UNL1       -0.2221
     12 C          -0.2796   -0.0180   -1.3432 C.ar    1  UNL1        0.0466
     13 C          -1.2387   -1.0108   -1.4722 C.ar    1  UNL1        0.0945
     14 C          -2.6253   -0.6342   -1.6987 C.2     1  UNL1        0.2489
     15 O          -3.4788   -1.5167   -1.9348 O.2     1  UNL1       -0.2700
     16 N          -2.9972    0.7332   -1.6481 N.am    1  UNL1       -0.3112
     17 C          -4.3683    1.1413   -1.8676 C.3     1  UNL1        0.0133
     18 C          -5.2516    0.5101   -0.8420 C.3     1  UNL1       -0.0215
     19 C          -4.9032    0.8745    0.5635 C.3     1  UNL1        0.0161
     20 N          -4.9982    2.2988    0.7877 N.am    1  UNL1       -0.3014
     21 C          -6.2221    2.9979    1.2133 C.3     1  UNL1        0.0151
     22 C          -5.8101    4.4239    1.3911 C.3     1  UNL1       -0.0289
     23 C          -4.6851    4.5563    0.3680 C.3     1  UNL1        0.0256
     24 C          -3.9583    3.2654    0.6388 C.2     1  UNL1        0.2156
     25 O          -2.7338    3.0711    0.7175 O.2     1  UNL1       -0.2756
     26 C          -0.8190   -2.3381   -1.4004 C.ar    1  UNL1        0.1362
     27 N          -1.7405   -3.4155   -1.5113 N.pl3   1  UNL1       -0.3255
     28 C          -1.1576   -4.7706   -1.4223 C.3     1  UNL1        0.0220
     29 C          -2.2287   -5.8319   -1.5884 C.3     1  UNL1       -0.0345
     30 C          -3.0924   -5.5743   -0.3704 C.3     1  UNL1       -0.0513
     31 C          -2.1668   -4.9867    0.6884 C.3     1  UNL1       -0.0513
     32 C          -0.7843   -4.9781    0.0272 C.3     1  UNL1       -0.0345
     33 N           0.4933   -2.6233   -1.2104 N.ar    1  UNL1       -0.1990
     34 C           5.6246    0.6668    1.3758 C.ar    1  UNL1       -0.0131
     35 C           6.5939    1.6464    1.5380 C.ar    1  UNL1        0.1617
     36 O           7.7656    1.4170    2.2652 O.3     1  UNL1       -0.4914
     37 C           7.9269    0.1340    2.8354 C.3     1  UNL1        0.0790
     38 H           8.0871    5.7725    0.9962 H       1  UNL1        0.0660
     39 H           6.2694    5.6115    0.8065 H       1  UNL1        0.0660
     40 H           7.4004    5.1406   -0.5253 H       1  UNL1        0.0660
     41 H           5.1232    4.1611   -0.2101 H       1  UNL1        0.0655
     42 H           3.4170    2.3601   -0.4659 H       1  UNL1        0.0621
     43 H           2.4406    0.2819    0.5462 H       1  UNL1        0.0328
     44 H           3.6165   -0.8620    1.3558 H       1  UNL1        0.0328
     45 H           3.7514   -0.2487   -1.6029 H       1  UNL1        0.0465
     46 H           4.7569   -1.3685   -0.6630 H       1  UNL1        0.0465
     47 H           3.0169   -3.0215   -0.8549 H       1  UNL1        0.1489
     48 H          -0.4929    1.0347   -1.3867 H       1  UNL1        0.0839
     49 H          -2.3193    1.4779   -1.4568 H       1  UNL1        0.1490
     50 H          -4.4856    2.2354   -1.7888 H       1  UNL1        0.0462
     51 H          -4.6731    0.7856   -2.8775 H       1  UNL1        0.0462
     52 H          -5.3079   -0.5943   -0.8959 H       1  UNL1        0.0295
     53 H          -6.3219    0.8503   -1.0191 H       1  UNL1        0.0295
     54 H          -3.8730    0.4895    0.7745 H       1  UNL1        0.0465
     55 H          -5.5525    0.3331    1.3008 H       1  UNL1        0.0465
     56 H          -6.9508    2.9651    0.3653 H       1  UNL1        0.0465
     57 H          -6.5845    2.4865    2.1019 H       1  UNL1        0.0465
     58 H          -5.4464    4.5766    2.4214 H       1  UNL1        0.0285
     59 H          -6.6625    5.0708    1.1551 H       1  UNL1        0.0285
     60 H          -5.1237    4.4665   -0.6262 H       1  UNL1        0.0359
     61 H          -4.0555    5.4251    0.5487 H       1  UNL1        0.0359
     62 H          -2.7479   -3.3918   -1.6390 H       1  UNL1        0.1478
     63 H          -0.3214   -4.8951   -2.1077 H       1  UNL1        0.0498
     64 H          -2.7782   -5.6340   -2.5301 H       1  UNL1        0.0283
     65 H          -1.7365   -6.8044   -1.5595 H       1  UNL1        0.0283
     66 H          -3.5806   -6.5007   -0.0057 H       1  UNL1        0.0266
     67 H          -3.8338   -4.8036   -0.6561 H       1  UNL1        0.0266
     68 H          -2.4174   -3.9606    0.9566 H       1  UNL1        0.0266
     69 H          -2.1344   -5.6317    1.6028 H       1  UNL1        0.0266
     70 H          -0.1607   -4.1798    0.4469 H       1  UNL1        0.0283
     71 H          -0.3252   -5.9818    0.1118 H       1  UNL1        0.0283
     72 H           5.8151   -0.3074    1.8446 H       1  UNL1        0.0658
     73 H           7.0159   -0.0770    3.4679 H       1  UNL1        0.0660
     74 H           8.7581    0.2356    3.5863 H       1  UNL1        0.0660
     75 H           8.1228   -0.6544    2.1048 H       1  UNL1        0.0660
@<TRIPOS>BOND
     1     1     2    1
     2     2     3    1
     3     3     4   ar
     4     4     5   ar
     5     5     6   ar
     6     6     7    1
     7     7     8    1
     8     8     9    1
     9     9    10    1
    10    10    11   ar
    11    11    12   ar
    12    12    13   ar
    13    13    14    1
    14    14    15    2
    15    14    16   am
    16    16    17    1
    17    17    18    1
    18    18    19    1
    19    19    20    1
    20    20    21    1
    21    21    22    1
    22    22    23    1
    23    23    24    1
    24    24    25    2
    25    13    26   ar
    26    26    27    1
    27    27    28    1
    28    28    29    1
    29    29    30    1
    30    30    31    1
    31    31    32    1
    32    26    33   ar
    33     6    34   ar
    34    34    35   ar
    35    35    36    1
    36    36    37    1
    37    35     3   ar
    38    33    10   ar
    39    24    20   am
    40    32    28    1
    41     1    38    1
    42     1    39    1
    43     1    40    1
    44     4    41    1
    45     5    42    1
    46     7    43    1
    47     7    44    1
    48     8    45    1
    49     8    46    1
    50     9    47    1
    51    12    48    1
    52    16    49    1
    53    17    50    1
    54    17    51    1
    55    18    52    1
    56    18    53    1
    57    19    54    1
    58    19    55    1
    59    21    56    1
    60    21    57    1
    61    22    58    1
    62    22    59    1
    63    23    60    1
    64    23    61    1
    65    27    62    1
    66    28    63    1
    67    29    64    1
    68    29    65    1
    69    30    66    1
    70    30    67    1
    71    31    68    1
    72    31    69    1
    73    32    70    1
    74    32    71    1
    75    34    72    1
    76    37    73    1
    77    37    74    1
    78    37    75    1
