
     RDKit          3D

 75 78  0  0  0  0  0  0  0  0999 V2000
    7.2567    5.1458    0.5836 C   0  0  0  0  0  0  0  0  0  0  0  0
    7.3974    3.8579    1.1461 O   0  0  0  0  0  0  0  0  0  0  0  0
    6.3961    2.8845    0.9650 C   0  0  0  0  0  0  0  0  0  0  0  0
    5.2669    3.1951    0.2317 C   0  0  0  0  0  0  0  0  0  0  0  0
    4.3063    2.1857    0.0857 C   0  0  0  0  0  0  0  0  0  0  0  0
    4.4906    0.9371    0.6546 C   0  0  0  0  0  0  0  0  0  0  0  0
    3.4580   -0.1440    0.4961 C   0  0  0  0  0  0  0  0  0  0  0  0
    3.7243   -0.9566   -0.7459 C   0  0  0  0  0  0  0  0  0  0  0  0
    2.7494   -1.9873   -0.8918 N   0  0  0  0  0  0  0  0  0  0  0  0
    1.3809   -1.6441   -1.0917 C   0  0  0  0  0  0  0  0  0  0  0  0
    1.0037   -0.3557   -1.1566 N   0  0  0  0  0  0  0  0  0  0  0  0
   -0.2796   -0.0180   -1.3432 C   0  0  0  0  0  0  0  0  0  0  0  0
   -1.2387   -1.0108   -1.4722 C   0  0  0  0  0  0  0  0  0  0  0  0
   -2.6253   -0.6342   -1.6987 C   0  0  0  0  0  0  0  0  0  0  0  0
   -3.4788   -1.5167   -1.9348 O   0  0  0  0  0  0  0  0  0  0  0  0
   -2.9972    0.7332   -1.6481 N   0  0  0  0  0  0  0  0  0  0  0  0
   -4.3683    1.1413   -1.8676 C   0  0  0  0  0  0  0  0  0  0  0  0
   -5.2516    0.5101   -0.8420 C   0  0  0  0  0  0  0  0  0  0  0  0
   -4.9032    0.8745    0.5635 C   0  0  0  0  0  0  0  0  0  0  0  0
   -4.9982    2.2988    0.7877 N   0  0  0  0  0  0  0  0  0  0  0  0
   -6.2221    2.9979    1.2133 C   0  0  0  0  0  0  0  0  0  0  0  0
   -5.8101    4.4239    1.3911 C   0  0  0  0  0  0  0  0  0  0  0  0
   -4.6851    4.5563    0.3680 C   0  0  0  0  0  0  0  0  0  0  0  0
   -3.9583    3.2654    0.6388 C   0  0  0  0  0  0  0  0  0  0  0  0
   -2.7338    3.0711    0.7175 O   0  0  0  0  0  0  0  0  0  0  0  0
   -0.8190   -2.3381   -1.4004 C   0  0  0  0  0  0  0  0  0  0  0  0
   -1.7405   -3.4155   -1.5113 N   0  0  0  0  0  0  0  0  0  0  0  0
   -1.1576   -4.7706   -1.4223 C   0  0  0  0  0  0  0  0  0  0  0  0
   -2.2287   -5.8319   -1.5884 C   0  0  0  0  0  0  0  0  0  0  0  0
   -3.0924   -5.5743   -0.3704 C   0  0  0  0  0  0  0  0  0  0  0  0
   -2.1668   -4.9867    0.6884 C   0  0  0  0  0  0  0  0  0  0  0  0
   -0.7843   -4.9781    0.0272 C   0  0  0  0  0  0  0  0  0  0  0  0
    0.4933   -2.6233   -1.2104 N   0  0  0  0  0  0  0  0  0  0  0  0
    5.6246    0.6668    1.3758 C   0  0  0  0  0  0  0  0  0  0  0  0
    6.5939    1.6464    1.5380 C   0  0  0  0  0  0  0  0  0  0  0  0
    7.7656    1.4170    2.2652 O   0  0  0  0  0  0  0  0  0  0  0  0
    7.9269    0.1340    2.8354 C   0  0  0  0  0  0  0  0  0  0  0  0
    8.0871    5.7725    0.9962 H   0  0  0  0  0  0  0  0  0  0  0  0
    6.2694    5.6115    0.8065 H   0  0  0  0  0  0  0  0  0  0  0  0
    7.4004    5.1406   -0.5253 H   0  0  0  0  0  0  0  0  0  0  0  0
    5.1232    4.1611   -0.2101 H   0  0  0  0  0  0  0  0  0  0  0  0
    3.4170    2.3601   -0.4659 H   0  0  0  0  0  0  0  0  0  0  0  0
    2.4406    0.2819    0.5462 H   0  0  0  0  0  0  0  0  0  0  0  0
    3.6165   -0.8620    1.3558 H   0  0  0  0  0  0  0  0  0  0  0  0
    3.7514   -0.2487   -1.6029 H   0  0  0  0  0  0  0  0  0  0  0  0
    4.7569   -1.3685   -0.6630 H   0  0  0  0  0  0  0  0  0  0  0  0
    3.0169   -3.0215   -0.8549 H   0  0  0  0  0  0  0  0  0  0  0  0
   -0.4929    1.0347   -1.3867 H   0  0  0  0  0  0  0  0  0  0  0  0
   -2.3193    1.4779   -1.4568 H   0  0  0  0  0  0  0  0  0  0  0  0
   -4.4856    2.2354   -1.7888 H   0  0  0  0  0  0  0  0  0  0  0  0
   -4.6731    0.7856   -2.8775 H   0  0  0  0  0  0  0  0  0  0  0  0
   -5.3079   -0.5943   -0.8959 H   0  0  0  0  0  0  0  0  0  0  0  0
   -6.3219    0.8503   -1.0191 H   0  0  0  0  0  0  0  0  0  0  0  0
   -3.8730    0.4895    0.7745 H   0  0  0  0  0  0  0  0  0  0  0  0
   -5.5525    0.3331    1.3008 H   0  0  0  0  0  0  0  0  0  0  0  0
   -6.9508    2.9651    0.3653 H   0  0  0  0  0  0  0  0  0  0  0  0
   -6.5845    2.4865    2.1019 H   0  0  0  0  0  0  0  0  0  0  0  0
   -5.4464    4.5766    2.4214 H   0  0  0  0  0  0  0  0  0  0  0  0
   -6.6625    5.0708    1.1551 H   0  0  0  0  0  0  0  0  0  0  0  0
   -5.1237    4.4665   -0.6262 H   0  0  0  0  0  0  0  0  0  0  0  0
   -4.0555    5.4251    0.5487 H   0  0  0  0  0  0  0  0  0  0  0  0
   -2.7479   -3.3918   -1.6390 H   0  0  0  0  0  0  0  0  0  0  0  0
   -0.3214   -4.8951   -2.1077 H   0  0  0  0  0  0  0  0  0  0  0  0
   -2.7782   -5.6340   -2.5301 H   0  0  0  0  0  0  0  0  0  0  0  0
   -1.7365   -6.8044   -1.5595 H   0  0  0  0  0  0  0  0  0  0  0  0
   -3.5806   -6.5007   -0.0057 H   0  0  0  0  0  0  0  0  0  0  0  0
   -3.8338   -4.8036   -0.6561 H   0  0  0  0  0  0  0  0  0  0  0  0
   -2.4174   -3.9606    0.9566 H   0  0  0  0  0  0  0  0  0  0  0  0
   -2.1344   -5.6317    1.6028 H   0  0  0  0  0  0  0  0  0  0  0  0
   -0.1607   -4.1798    0.4469 H   0  0  0  0  0  0  0  0  0  0  0  0
   -0.3252   -5.9818    0.1118 H   0  0  0  0  0  0  0  0  0  0  0  0
    5.8151   -0.3074    1.8446 H   0  0  0  0  0  0  0  0  0  0  0  0
    7.0159   -0.0770    3.4679 H   0  0  0  0  0  0  0  0  0  0  0  0
    8.7581    0.2356    3.5863 H   0  0  0  0  0  0  0  0  0  0  0  0
    8.1228   -0.6544    2.1048 H   0  0  0  0  0  0  0  0  0  0  0  0
  1  2  1  0
  2  3  1  0
  3  4  2  0
  4  5  1  0
  5  6  2  0
  6  7  1  0
  7  8  1  0
  8  9  1  0
  9 10  1  0
 10 11  2  0
 11 12  1  0
 12 13  2  0
 13 14  1  0
 14 15  2  0
 14 16  1  0
 16 17  1  0
 17 18  1  0
 18 19  1  0
 19 20  1  0
 20 21  1  0
 21 22  1  0
 22 23  1  0
 23 24  1  0
 24 25  2  0
 13 26  1  0
 26 27  1  0
 27 28  1  0
 28 29  1  0
 29 30  1  0
 30 31  1  0
 31 32  1  0
 26 33  2  0
  6 34  1  0
 34 35  2  0
 35 36  1  0
 36 37  1  0
 35  3  1  0
 33 10  1  0
 24 20  1  0
 32 28  1  0
  1 38  1  0
  1 39  1  0
  1 40  1  0
  4 41  1  0
  5 42  1  0
  7 43  1  0
  7 44  1  0
  8 45  1  0
  8 46  1  0
  9 47  1  0
 12 48  1  0
 16 49  1  0
 17 50  1  0
 17 51  1  0
 18 52  1  0
 18 53  1  0
 19 54  1  0
 19 55  1  0
 21 56  1  0
 21 57  1  0
 22 58  1  0
 22 59  1  0
 23 60  1  0
 23 61  1  0
 27 62  1  0
 28 63  1  0
 29 64  1  0
 29 65  1  0
 30 66  1  0
 30 67  1  0
 31 68  1  0
 31 69  1  0
 32 70  1  0
 32 71  1  0
 34 72  1  0
 37 73  1  0
 37 74  1  0
 37 75  1  0
M  END
$$$$
