@<TRIPOS>MOLECULE
*****
 48 50 0 0 0
SMALL
GASTEIGER

@<TRIPOS>ATOM
      1 C           7.6770   -2.2481    1.6585 C.3     1  UNL1        0.0004
      2 N           7.1785   -1.1980    0.7937 N.am    1  UNL1       -0.3132
      3 C           5.8732   -0.8495    0.3880 C.2     1  UNL1        0.2623
      4 O           4.9635   -1.5756    0.8555 O.2     1  UNL1       -0.2685
      5 C           5.6976    0.2904   -0.5127 C.ar    1  UNL1        0.1288
      6 N           6.7375    1.0002   -0.9540 N.ar    1  UNL1       -0.2501
      7 C           6.5119    2.0495   -1.7898 C.ar    1  UNL1        0.0319
      8 C           5.2089    2.3670   -2.1713 C.ar    1  UNL1       -0.0012
      9 C           4.1264    1.6154   -1.7020 C.ar    1  UNL1        0.1321
     10 O           2.8909    2.0204   -2.1442 O.3     1  UNL1       -0.4559
     11 C           1.6800    1.4385   -1.8196 C.ar    1  UNL1        0.1286
     12 C           1.2319    0.4251   -2.6403 C.ar    1  UNL1       -0.0176
     13 C           0.0382   -0.2208   -2.4054 C.ar    1  UNL1       -0.0370
     14 C          -0.7736    0.1059   -1.3425 C.ar    1  UNL1        0.0350
     15 N          -1.9842   -0.6106   -1.1768 N.am    1  UNL1       -0.2692
     16 C          -2.9716   -0.4640   -0.1795 C.2     1  UNL1        0.3081
     17 O          -2.8347    0.3847    0.7068 O.2     1  UNL1       -0.2522
     18 N          -4.1581   -1.2413   -0.1056 N.am    1  UNL1       -0.2692
     19 C          -5.0815   -0.9994    0.9505 C.ar    1  UNL1        0.0354
     20 C          -6.0238   -0.0368    0.5715 C.ar    1  UNL1       -0.0274
     21 C          -7.0191    0.3415    1.4706 C.ar    1  UNL1        0.0748
     22 C          -7.1035   -0.2143    2.7434 C.ar    1  UNL1        0.0527
     23 CL         -8.3496    0.2548    3.8781 Cl      1  UNL1       -0.0830
     24 C          -6.1474   -1.1635    3.0721 C.ar    1  UNL1       -0.0411
     25 C          -5.1635   -1.5465    2.2017 C.ar    1  UNL1       -0.0390
     26 C          -8.0441    1.3557    1.1253 C.3     1  UNL1        0.4188
     27 F          -9.3294    0.8070    1.2006 F       1  UNL1       -0.1658
     28 F          -7.9857    2.4068    2.0189 F       1  UNL1       -0.1658
     29 F          -7.8315    1.8653   -0.1396 F       1  UNL1       -0.1658
     30 C          -0.3026    1.1101   -0.5515 C.ar    1  UNL1       -0.0370
     31 C           0.8786    1.7741   -0.7547 C.ar    1  UNL1       -0.0176
     32 C           4.3765    0.5471   -0.8490 C.ar    1  UNL1        0.0112
     33 H           6.8216   -2.8032    2.1149 H       1  UNL1        0.0426
     34 H           8.2265   -1.7854    2.4991 H       1  UNL1        0.0426
     35 H           8.3095   -2.9698    1.0887 H       1  UNL1        0.0426
     36 H           7.9965   -0.6506    0.4550 H       1  UNL1        0.1487
     37 H           7.3669    2.6361   -2.1550 H       1  UNL1        0.0831
     38 H           5.0956    3.2104   -2.8360 H       1  UNL1        0.0669
     39 H           1.8018    0.1014   -3.4978 H       1  UNL1        0.0655
     40 H          -0.2747   -1.0241   -3.0914 H       1  UNL1        0.0637
     41 H          -2.2357   -1.3645   -1.8557 H       1  UNL1        0.1564
     42 H          -4.3269   -1.9808   -0.8366 H       1  UNL1        0.1564
     43 H          -6.0780    0.4731   -0.3753 H       1  UNL1        0.0642
     44 H          -6.1683   -1.6250    4.0463 H       1  UNL1        0.0633
     45 H          -4.3872   -2.2765    2.3858 H       1  UNL1        0.0636
     46 H          -0.8601    1.4301    0.2911 H       1  UNL1        0.0637
     47 H           1.2267    2.5657   -0.1120 H       1  UNL1        0.0655
     48 H           3.5192    0.0039   -0.5176 H       1  UNL1        0.0677
@<TRIPOS>BOND
     1     1     2    1
     2     2     3   am
     3     3     4    2
     4     3     5    1
     5     5     6   ar
     6     6     7   ar
     7     7     8   ar
     8     8     9   ar
     9     9    10    1
    10    10    11    1
    11    11    12   ar
    12    12    13   ar
    13    13    14   ar
    14    14    15    1
    15    15    16   am
    16    16    17    2
    17    16    18   am
    18    18    19    1
    19    19    20   ar
    20    20    21   ar
    21    21    22   ar
    22    22    23    1
    23    22    24   ar
    24    24    25   ar
    25    21    26    1
    26    26    27    1
    27    26    28    1
    28    26    29    1
    29    14    30   ar
    30    30    31   ar
    31     9    32   ar
    32    32     5   ar
    33    31    11   ar
    34    25    19   ar
    35     1    33    1
    36     1    34    1
    37     1    35    1
    38     2    36    1
    39     7    37    1
    40     8    38    1
    41    12    39    1
    42    13    40    1
    43    15    41    1
    44    18    42    1
    45    20    43    1
    46    24    44    1
    47    25    45    1
    48    30    46    1
    49    31    47    1
    50    32    48    1
