@<TRIPOS>MOLECULE
*****
 58 62 0 0 0
SMALL
GASTEIGER

@<TRIPOS>ATOM
      1 C          -4.8608    0.7019   -1.8558 C.3     1  UNL1       -0.0274
      2 C          -4.4958   -0.0329   -0.5368 C.3     1  UNL1        0.1037
      3 O          -3.1856   -0.1128   -0.4480 O.3     1  UNL1       -0.4725
      4 C          -2.0632   -0.7833   -0.3021 C.ar    1  UNL1        0.2265
      5 N          -0.8316   -0.1553   -0.2991 N.ar    1  UNL1       -0.2121
      6 C           0.3269   -0.7823   -0.1560 C.ar    1  UNL1        0.0798
      7 C           1.5829   -0.0134   -0.1672 C.ar    1  UNL1        0.0380
      8 C           1.7264    1.3478   -0.3149 C.ar    1  UNL1        0.0586
      9 N           3.0417    1.6246   -0.2653 N.ar    1  UNL1       -0.1787
     10 N           3.7535    0.5190   -0.0941 N.ar    1  UNL1       -0.2678
     11 C           5.1974    0.4126    0.0078 C.3     1  UNL1        0.0530
     12 C           5.6455    0.1196    1.4147 C.3     1  UNL1       -0.0251
     13 C           6.3426    1.2922    2.0578 C.3     1  UNL1        0.0127
     14 C           7.5126    1.7829    1.2420 C.3     1  UNL1        0.2491
     15 F           8.6685    1.1325    1.6461 F       1  UNL1       -0.2057
     16 F           7.7422    3.1373    1.4637 F       1  UNL1       -0.2057
     17 C           7.3094    1.5996   -0.2405 C.3     1  UNL1        0.0127
     18 C           5.8316    1.6705   -0.5414 C.3     1  UNL1       -0.0251
     19 C           2.8556   -0.5090   -0.0314 C.ar    1  UNL1        0.0350
     20 C           0.3187   -2.1474    0.0008 C.ar    1  UNL1       -0.0076
     21 C          -0.8501   -2.8785    0.0135 C.ar    1  UNL1        0.0999
     22 N          -1.1253   -4.1953    0.1482 N.ar    1  UNL1       -0.1712
     23 N          -2.4270   -4.3501    0.0864 N.ar    1  UNL1       -0.2732
     24 C          -3.1210   -5.6185    0.1899 C.3     1  UNL1        0.0302
     25 C          -3.0150   -3.1301   -0.0901 C.ar    1  UNL1        0.0380
     26 C          -2.0392   -2.1719   -0.1407 C.ar    1  UNL1        0.0812
     27 C          -5.0257    0.9078    0.5664 C.3     1  UNL1        0.0196
     28 C          -4.3807    2.2546    0.4973 C.3     1  UNL1        0.0182
     29 N          -5.3773    3.1428   -0.0791 N.am    1  UNL1       -0.3149
     30 C          -6.5948    2.4284   -0.2780 C.2     1  UNL1        0.2135
     31 O          -7.5968    2.8156   -0.9300 O.2     1  UNL1       -0.2758
     32 C          -6.5146    1.1270    0.4101 C.3     1  UNL1        0.0315
     33 H          -4.4466    1.7201   -1.7473 H       1  UNL1        0.0265
     34 H          -4.3142    0.2292   -2.7026 H       1  UNL1        0.0265
     35 H          -5.9327    0.6571   -2.0457 H       1  UNL1        0.0265
     36 H          -5.1056   -0.9573   -0.4722 H       1  UNL1        0.0734
     37 H           0.8802    2.0077   -0.4433 H       1  UNL1        0.0854
     38 H           5.5375   -0.4367   -0.6349 H       1  UNL1        0.0545
     39 H           4.8035   -0.1631    2.0778 H       1  UNL1        0.0287
     40 H           6.3695   -0.7411    1.4470 H       1  UNL1        0.0287
     41 H           5.6657    2.1491    2.2267 H       1  UNL1        0.0323
     42 H           6.6813    0.9559    3.0632 H       1  UNL1        0.0323
     43 H           7.8007    2.4324   -0.7861 H       1  UNL1        0.0323
     44 H           7.7687    0.6613   -0.6165 H       1  UNL1        0.0323
     45 H           5.4424    2.5795   -0.0431 H       1  UNL1        0.0287
     46 H           5.7052    1.6961   -1.6407 H       1  UNL1        0.0287
     47 H           3.1101   -1.5510    0.1042 H       1  UNL1        0.0833
     48 H           1.2522   -2.6737    0.1185 H       1  UNL1        0.0661
     49 H          -3.4229   -5.8615    1.2107 H       1  UNL1        0.0473
     50 H          -2.4360   -6.4195   -0.1540 H       1  UNL1        0.0473
     51 H          -4.0419   -5.5769   -0.4246 H       1  UNL1        0.0473
     52 H          -4.0637   -2.9599   -0.1738 H       1  UNL1        0.0834
     53 H          -4.8526    0.4792    1.5619 H       1  UNL1        0.0356
     54 H          -4.1325    2.6624    1.5131 H       1  UNL1        0.0466
     55 H          -3.4314    2.2753   -0.0674 H       1  UNL1        0.0466
     56 H          -5.2151    4.1386   -0.3054 H       1  UNL1        0.1487
     57 H          -6.9686    1.2577    1.4343 H       1  UNL1        0.0363
     58 H          -7.0040    0.3031   -0.1390 H       1  UNL1        0.0363
@<TRIPOS>BOND
     1     1     2    1
     2     2     3    1
     3     3     4    1
     4     4     5   ar
     5     5     6   ar
     6     6     7    1
     7     7     8   ar
     8     8     9   ar
     9     9    10   ar
    10    10    11    1
    11    11    12    1
    12    12    13    1
    13    13    14    1
    14    14    15    1
    15    14    16    1
    16    14    17    1
    17    17    18    1
    18    10    19   ar
    19     6    20   ar
    20    20    21   ar
    21    21    22   ar
    22    22    23   ar
    23    23    24    1
    24    23    25   ar
    25    25    26   ar
    26     2    27    1
    27    27    28    1
    28    28    29    1
    29    29    30   am
    30    30    31    2
    31    30    32    1
    32    26     4   ar
    33    32    27    1
    34    19     7   ar
    35    26    21   ar
    36    18    11    1
    37     1    33    1
    38     1    34    1
    39     1    35    1
    40     2    36    1
    41     8    37    1
    42    11    38    1
    43    12    39    1
    44    12    40    1
    45    13    41    1
    46    13    42    1
    47    17    43    1
    48    17    44    1
    49    18    45    1
    50    18    46    1
    51    19    47    1
    52    20    48    1
    53    24    49    1
    54    24    50    1
    55    24    51    1
    56    25    52    1
    57    27    53    1
    58    28    54    1
    59    28    55    1
    60    29    56    1
    61    32    57    1
    62    32    58    1
