
     RDKit          3D

 58 62  0  0  0  0  0  0  0  0999 V2000
   -4.8608    0.7019   -1.8558 C   0  0  0  0  0  0  0  0  0  0  0  0
   -4.4958   -0.0329   -0.5368 C   0  0  1  0  0  0  0  0  0  0  0  0
   -3.1856   -0.1128   -0.4480 O   0  0  0  0  0  0  0  0  0  0  0  0
   -2.0632   -0.7833   -0.3021 C   0  0  0  0  0  0  0  0  0  0  0  0
   -0.8316   -0.1553   -0.2991 N   0  0  0  0  0  0  0  0  0  0  0  0
    0.3269   -0.7823   -0.1560 C   0  0  0  0  0  0  0  0  0  0  0  0
    1.5829   -0.0134   -0.1672 C   0  0  0  0  0  0  0  0  0  0  0  0
    1.7264    1.3478   -0.3149 C   0  0  0  0  0  0  0  0  0  0  0  0
    3.0417    1.6246   -0.2653 N   0  0  0  0  0  0  0  0  0  0  0  0
    3.7535    0.5190   -0.0941 N   0  0  0  0  0  0  0  0  0  0  0  0
    5.1974    0.4126    0.0078 C   0  0  0  0  0  0  0  0  0  0  0  0
    5.6455    0.1196    1.4147 C   0  0  0  0  0  0  0  0  0  0  0  0
    6.3426    1.2922    2.0578 C   0  0  0  0  0  0  0  0  0  0  0  0
    7.5126    1.7829    1.2420 C   0  0  0  0  0  0  0  0  0  0  0  0
    8.6685    1.1325    1.6461 F   0  0  0  0  0  0  0  0  0  0  0  0
    7.7422    3.1373    1.4637 F   0  0  0  0  0  0  0  0  0  0  0  0
    7.3094    1.5996   -0.2405 C   0  0  0  0  0  0  0  0  0  0  0  0
    5.8316    1.6705   -0.5414 C   0  0  0  0  0  0  0  0  0  0  0  0
    2.8556   -0.5090   -0.0314 C   0  0  0  0  0  0  0  0  0  0  0  0
    0.3187   -2.1474    0.0008 C   0  0  0  0  0  0  0  0  0  0  0  0
   -0.8501   -2.8785    0.0135 C   0  0  0  0  0  0  0  0  0  0  0  0
   -1.1253   -4.1953    0.1482 N   0  0  0  0  0  0  0  0  0  0  0  0
   -2.4270   -4.3501    0.0864 N   0  0  0  0  0  0  0  0  0  0  0  0
   -3.1210   -5.6185    0.1899 C   0  0  0  0  0  0  0  0  0  0  0  0
   -3.0150   -3.1301   -0.0901 C   0  0  0  0  0  0  0  0  0  0  0  0
   -2.0392   -2.1719   -0.1407 C   0  0  0  0  0  0  0  0  0  0  0  0
   -5.0257    0.9078    0.5664 C   0  0  1  0  0  0  0  0  0  0  0  0
   -4.3807    2.2546    0.4973 C   0  0  0  0  0  0  0  0  0  0  0  0
   -5.3773    3.1428   -0.0791 N   0  0  0  0  0  0  0  0  0  0  0  0
   -6.5948    2.4284   -0.2780 C   0  0  0  0  0  0  0  0  0  0  0  0
   -7.5968    2.8156   -0.9300 O   0  0  0  0  0  0  0  0  0  0  0  0
   -6.5146    1.1270    0.4101 C   0  0  0  0  0  0  0  0  0  0  0  0
   -4.4466    1.7201   -1.7473 H   0  0  0  0  0  0  0  0  0  0  0  0
   -4.3142    0.2292   -2.7026 H   0  0  0  0  0  0  0  0  0  0  0  0
   -5.9327    0.6571   -2.0457 H   0  0  0  0  0  0  0  0  0  0  0  0
   -5.1056   -0.9573   -0.4722 H   0  0  0  0  0  0  0  0  0  0  0  0
    0.8802    2.0077   -0.4433 H   0  0  0  0  0  0  0  0  0  0  0  0
    5.5375   -0.4367   -0.6349 H   0  0  0  0  0  0  0  0  0  0  0  0
    4.8035   -0.1631    2.0778 H   0  0  0  0  0  0  0  0  0  0  0  0
    6.3695   -0.7411    1.4470 H   0  0  0  0  0  0  0  0  0  0  0  0
    5.6657    2.1491    2.2267 H   0  0  0  0  0  0  0  0  0  0  0  0
    6.6813    0.9559    3.0632 H   0  0  0  0  0  0  0  0  0  0  0  0
    7.8007    2.4324   -0.7861 H   0  0  0  0  0  0  0  0  0  0  0  0
    7.7687    0.6613   -0.6165 H   0  0  0  0  0  0  0  0  0  0  0  0
    5.4424    2.5795   -0.0431 H   0  0  0  0  0  0  0  0  0  0  0  0
    5.7052    1.6961   -1.6407 H   0  0  0  0  0  0  0  0  0  0  0  0
    3.1101   -1.5510    0.1042 H   0  0  0  0  0  0  0  0  0  0  0  0
    1.2522   -2.6737    0.1185 H   0  0  0  0  0  0  0  0  0  0  0  0
   -3.4229   -5.8615    1.2107 H   0  0  0  0  0  0  0  0  0  0  0  0
   -2.4360   -6.4195   -0.1540 H   0  0  0  0  0  0  0  0  0  0  0  0
   -4.0419   -5.5769   -0.4246 H   0  0  0  0  0  0  0  0  0  0  0  0
   -4.0637   -2.9599   -0.1738 H   0  0  0  0  0  0  0  0  0  0  0  0
   -4.8526    0.4792    1.5619 H   0  0  0  0  0  0  0  0  0  0  0  0
   -4.1325    2.6624    1.5131 H   0  0  0  0  0  0  0  0  0  0  0  0
   -3.4314    2.2753   -0.0674 H   0  0  0  0  0  0  0  0  0  0  0  0
   -5.2151    4.1386   -0.3054 H   0  0  0  0  0  0  0  0  0  0  0  0
   -6.9686    1.2577    1.4343 H   0  0  0  0  0  0  0  0  0  0  0  0
   -7.0040    0.3031   -0.1390 H   0  0  0  0  0  0  0  0  0  0  0  0
  1  2  1  0
  2  3  1  0
  3  4  1  0
  4  5  2  0
  5  6  1  0
  6  7  1  0
  7  8  1  0
  8  9  2  0
  9 10  1  0
 10 11  1  0
 11 12  1  0
 12 13  1  0
 13 14  1  0
 14 15  1  0
 14 16  1  0
 14 17  1  0
 17 18  1  0
 10 19  1  0
  6 20  2  0
 20 21  1  0
 21 22  2  0
 22 23  1  0
 23 24  1  0
 23 25  1  0
 25 26  2  0
  2 27  1  0
 27 28  1  0
 28 29  1  0
 29 30  1  0
 30 31  2  0
 30 32  1  0
 26  4  1  0
 32 27  1  0
 19  7  2  0
 26 21  1  0
 18 11  1  0
  1 33  1  0
  1 34  1  0
  1 35  1  0
  2 36  1  6
  8 37  1  0
 11 38  1  0
 12 39  1  0
 12 40  1  0
 13 41  1  0
 13 42  1  0
 17 43  1  0
 17 44  1  0
 18 45  1  0
 18 46  1  0
 19 47  1  0
 20 48  1  0
 24 49  1  0
 24 50  1  0
 24 51  1  0
 25 52  1  0
 27 53  1  1
 28 54  1  0
 28 55  1  0
 29 56  1  0
 32 57  1  0
 32 58  1  0
M  END
$$$$
