
     RDKit          3D

 56 59  0  0  0  0  0  0  0  0999 V2000
   -3.8437   -3.6225    1.2903 C   0  0  0  0  0  0  0  0  0  0  0  0
   -4.2740   -2.2563    1.0357 N   0  0  0  0  0  0  0  0  0  0  0  0
   -5.4358   -2.2823    0.1232 C   0  0  0  0  0  0  0  0  0  0  0  0
   -3.2094   -1.4682    0.4389 C   0  0  0  0  0  0  0  0  0  0  0  0
   -2.0720   -1.2231    1.3582 C   0  0  0  0  0  0  0  0  0  0  0  0
   -1.0690   -0.4770    0.7966 O   0  0  0  0  0  0  0  0  0  0  0  0
   -0.9584    0.7777    0.3246 C   0  0  0  0  0  0  0  0  0  0  0  0
   -1.9656    1.7140    0.3272 C   0  0  0  0  0  0  0  0  0  0  0  0
   -1.8292    3.0070   -0.1625 C   0  0  0  0  0  0  0  0  0  0  0  0
   -2.8954    3.9942   -0.1590 C   0  0  0  0  0  0  0  0  0  0  0  0
   -4.2404    3.7294   -0.2869 C   0  0  0  0  0  0  0  0  0  0  0  0
   -4.8791    4.9314   -0.2308 N   0  0  0  0  0  0  0  0  0  0  0  0
   -4.0249    5.9151   -0.0781 N   0  0  0  0  0  0  0  0  0  0  0  0
   -2.8055    5.3634   -0.0321 C   0  0  0  0  0  0  0  0  0  0  0  0
   -0.5860    3.3303   -0.6746 C   0  0  0  0  0  0  0  0  0  0  0  0
    0.4418    2.4173   -0.6917 C   0  0  0  0  0  0  0  0  0  0  0  0
    0.2846    1.1432   -0.2022 C   0  0  0  0  0  0  0  0  0  0  0  0
    1.3850    0.2208   -0.2552 N   0  0  0  0  0  0  0  0  0  0  0  0
    1.4826   -0.6047   -1.4004 C   0  0  0  0  0  0  0  0  0  0  0  0
    0.6113   -0.4919   -2.2916 O   0  0  0  0  0  0  0  0  0  0  0  0
    2.6049   -1.5674   -1.5026 C   0  0  0  0  0  0  0  0  0  0  0  0
    2.5364   -2.4452   -0.2728 C   0  0  0  0  0  0  0  0  0  0  0  0
    3.2899   -1.8794    0.7889 O   0  0  0  0  0  0  0  0  0  0  0  0
    4.5702   -1.3788    0.5780 C   0  0  0  0  0  0  0  0  0  0  0  0
    5.5017   -1.3598    1.6223 C   0  0  0  0  0  0  0  0  0  0  0  0
    6.7628   -0.8594    1.3888 C   0  0  0  0  0  0  0  0  0  0  0  0
    7.0952   -0.3847    0.1383 C   0  0  0  0  0  0  0  0  0  0  0  0
    8.3502    0.1186   -0.1128 F   0  0  0  0  0  0  0  0  0  0  0  0
    6.1812   -0.4037   -0.8849 C   0  0  0  0  0  0  0  0  0  0  0  0
    4.8881   -0.9101   -0.6697 C   0  0  0  0  0  0  0  0  0  0  0  0
    3.9114   -0.9318   -1.7569 C   0  0  0  0  0  0  0  0  0  0  0  0
   -4.7541   -4.2583    1.1905 H   0  0  0  0  0  0  0  0  0  0  0  0
   -3.5113   -3.7335    2.3424 H   0  0  0  0  0  0  0  0  0  0  0  0
   -3.1247   -3.9896    0.5537 H   0  0  0  0  0  0  0  0  0  0  0  0
   -6.1840   -3.0007    0.5127 H   0  0  0  0  0  0  0  0  0  0  0  0
   -5.8309   -1.2496    0.1040 H   0  0  0  0  0  0  0  0  0  0  0  0
   -5.0827   -2.6360   -0.8753 H   0  0  0  0  0  0  0  0  0  0  0  0
   -2.8065   -2.0460   -0.4425 H   0  0  0  0  0  0  0  0  0  0  0  0
   -3.6577   -0.5664    0.0234 H   0  0  0  0  0  0  0  0  0  0  0  0
   -2.3772   -0.7174    2.3080 H   0  0  0  0  0  0  0  0  0  0  0  0
   -1.6204   -2.2076    1.7061 H   0  0  0  0  0  0  0  0  0  0  0  0
   -2.9561    1.4897    0.7425 H   0  0  0  0  0  0  0  0  0  0  0  0
   -4.7465    2.7886   -0.4088 H   0  0  0  0  0  0  0  0  0  0  0  0
   -4.2788    6.9473   -0.0072 H   0  0  0  0  0  0  0  0  0  0  0  0
   -1.8652    5.8893    0.0881 H   0  0  0  0  0  0  0  0  0  0  0  0
   -0.4716    4.3457   -1.0601 H   0  0  0  0  0  0  0  0  0  0  0  0
    1.4034    2.7097   -1.1022 H   0  0  0  0  0  0  0  0  0  0  0  0
    2.0311    0.2226    0.5489 H   0  0  0  0  0  0  0  0  0  0  0  0
    2.3695   -2.1984   -2.4176 H   0  0  0  0  0  0  0  0  0  0  0  0
    2.9053   -3.4501   -0.5568 H   0  0  0  0  0  0  0  0  0  0  0  0
    1.5002   -2.5712    0.0918 H   0  0  0  0  0  0  0  0  0  0  0  0
    5.1815   -1.7437    2.5705 H   0  0  0  0  0  0  0  0  0  0  0  0
    7.4964   -0.8314    2.1675 H   0  0  0  0  0  0  0  0  0  0  0  0
    6.3997   -0.0414   -1.8812 H   0  0  0  0  0  0  0  0  0  0  0  0
    4.4417   -1.3994   -2.6373 H   0  0  0  0  0  0  0  0  0  0  0  0
    3.7303    0.1318   -2.1074 H   0  0  0  0  0  0  0  0  0  0  0  0
  1  2  1  0
  2  3  1  0
  2  4  1  0
  4  5  1  0
  5  6  1  0
  6  7  1  0
  7  8  2  0
  8  9  1  0
  9 10  1  0
 10 11  1  0
 11 12  2  0
 12 13  1  0
 13 14  1  0
  9 15  2  0
 15 16  1  0
 16 17  2  0
 17 18  1  0
 18 19  1  0
 19 20  2  0
 19 21  1  0
 21 22  1  0
 22 23  1  0
 23 24  1  0
 24 25  2  0
 25 26  1  0
 26 27  2  0
 27 28  1  0
 27 29  1  0
 29 30  2  0
 30 31  1  0
 17  7  1  0
 31 21  1  0
 14 10  2  0
 30 24  1  0
  1 32  1  0
  1 33  1  0
  1 34  1  0
  3 35  1  0
  3 36  1  0
  3 37  1  0
  4 38  1  0
  4 39  1  0
  5 40  1  0
  5 41  1  0
  8 42  1  0
 11 43  1  0
 13 44  1  0
 14 45  1  0
 15 46  1  0
 16 47  1  0
 18 48  1  0
 21 49  1  0
 22 50  1  0
 22 51  1  0
 25 52  1  0
 26 53  1  0
 29 54  1  0
 31 55  1  0
 31 56  1  0
M  END
$$$$
