@<TRIPOS>MOLECULE
*****
 56 59 0 0 0
SMALL
GASTEIGER

@<TRIPOS>ATOM
      1 C          -3.8437   -3.6225    1.2903 C.3     1  UNL1       -0.0129
      2 N          -4.2740   -2.2563    1.0357 N.3     1  UNL1       -0.3051
      3 C          -5.4358   -2.2823    0.1232 C.3     1  UNL1       -0.0129
      4 C          -3.2094   -1.4682    0.4389 C.3     1  UNL1        0.0325
      5 C          -2.0720   -1.2231    1.3582 C.3     1  UNL1        0.1023
      6 O          -1.0690   -0.4770    0.7966 O.3     1  UNL1       -0.4888
      7 C          -0.9584    0.7777    0.3246 C.ar    1  UNL1        0.1422
      8 C          -1.9656    1.7140    0.3272 C.ar    1  UNL1       -0.0103
      9 C          -1.8292    3.0070   -0.1625 C.ar    1  UNL1       -0.0114
     10 C          -2.8954    3.9942   -0.1590 C.ar    1  UNL1        0.0194
     11 C          -4.2404    3.7294   -0.2869 C.ar    1  UNL1        0.0568
     12 N          -4.8791    4.9314   -0.2308 N.ar    1  UNL1       -0.1817
     13 N          -4.0249    5.9151   -0.0781 N.ar    1  UNL1       -0.2841
     14 C          -2.8055    5.3634   -0.0321 C.ar    1  UNL1        0.0300
     15 C          -0.5860    3.3303   -0.6746 C.ar    1  UNL1       -0.0520
     16 C           0.4418    2.4173   -0.6917 C.ar    1  UNL1       -0.0363
     17 C           0.2846    1.1432   -0.2022 C.ar    1  UNL1        0.0756
     18 N           1.3850    0.2208   -0.2552 N.am    1  UNL1       -0.2823
     19 C           1.4826   -0.6047   -1.4004 C.2     1  UNL1        0.2239
     20 O           0.6113   -0.4919   -2.2916 O.2     1  UNL1       -0.2750
     21 C           2.6049   -1.5674   -1.5026 C.3     1  UNL1        0.0739
     22 C           2.5364   -2.4452   -0.2728 C.3     1  UNL1        0.1010
     23 O           3.2899   -1.8794    0.7889 O.3     1  UNL1       -0.4909
     24 C           4.5702   -1.3788    0.5780 C.ar    1  UNL1        0.1239
     25 C           5.5017   -1.3598    1.6223 C.ar    1  UNL1       -0.0170
     26 C           6.7628   -0.8594    1.3888 C.ar    1  UNL1       -0.0230
     27 C           7.0952   -0.3847    0.1383 C.ar    1  UNL1        0.1239
     28 F           8.3502    0.1186   -0.1128 F       1  UNL1       -0.2055
     29 C           6.1812   -0.4037   -0.8849 C.ar    1  UNL1       -0.0198
     30 C           4.8881   -0.9101   -0.6697 C.ar    1  UNL1       -0.0022
     31 C           3.9114   -0.9318   -1.7569 C.3     1  UNL1       -0.0099
     32 H          -4.7541   -4.2583    1.1905 H       1  UNL1        0.0391
     33 H          -3.5113   -3.7335    2.3424 H       1  UNL1        0.0391
     34 H          -3.1247   -3.9896    0.5537 H       1  UNL1        0.0391
     35 H          -6.1840   -3.0007    0.5127 H       1  UNL1        0.0391
     36 H          -5.8309   -1.2496    0.1040 H       1  UNL1        0.0391
     37 H          -5.0827   -2.6360   -0.8753 H       1  UNL1        0.0391
     38 H          -2.8065   -2.0460   -0.4425 H       1  UNL1        0.0460
     39 H          -3.6577   -0.5664    0.0234 H       1  UNL1        0.0460
     40 H          -2.3772   -0.7174    2.3080 H       1  UNL1        0.0709
     41 H          -1.6204   -2.2076    1.7061 H       1  UNL1        0.0709
     42 H          -2.9561    1.4897    0.7425 H       1  UNL1        0.0661
     43 H          -4.7465    2.7886   -0.4088 H       1  UNL1        0.0854
     44 H          -4.2788    6.9473   -0.0072 H       1  UNL1        0.1882
     45 H          -1.8652    5.8893    0.0881 H       1  UNL1        0.0830
     46 H          -0.4716    4.3457   -1.0601 H       1  UNL1        0.0624
     47 H           1.4034    2.7097   -1.1022 H       1  UNL1        0.0637
     48 H           2.0311    0.2226    0.5489 H       1  UNL1        0.1549
     49 H           2.3695   -2.1984   -2.4176 H       1  UNL1        0.0431
     50 H           2.9053   -3.4501   -0.5568 H       1  UNL1        0.0704
     51 H           1.5002   -2.5712    0.0918 H       1  UNL1        0.0704
     52 H           5.1815   -1.7437    2.5705 H       1  UNL1        0.0655
     53 H           7.4964   -0.8314    2.1675 H       1  UNL1        0.0647
     54 H           6.3997   -0.0414   -1.8812 H       1  UNL1        0.0650
     55 H           4.4417   -1.3994   -2.6373 H       1  UNL1        0.0323
     56 H           3.7303    0.1318   -2.1074 H       1  UNL1        0.0323
@<TRIPOS>BOND
     1     1     2    1
     2     2     3    1
     3     2     4    1
     4     4     5    1
     5     5     6    1
     6     6     7    1
     7     7     8   ar
     8     8     9   ar
     9     9    10    1
    10    10    11   ar
    11    11    12   ar
    12    12    13   ar
    13    13    14   ar
    14     9    15   ar
    15    15    16   ar
    16    16    17   ar
    17    17    18    1
    18    18    19   am
    19    19    20    2
    20    19    21    1
    21    21    22    1
    22    22    23    1
    23    23    24    1
    24    24    25   ar
    25    25    26   ar
    26    26    27   ar
    27    27    28    1
    28    27    29   ar
    29    29    30   ar
    30    30    31    1
    31    17     7   ar
    32    31    21    1
    33    14    10   ar
    34    30    24   ar
    35     1    32    1
    36     1    33    1
    37     1    34    1
    38     3    35    1
    39     3    36    1
    40     3    37    1
    41     4    38    1
    42     4    39    1
    43     5    40    1
    44     5    41    1
    45     8    42    1
    46    11    43    1
    47    13    44    1
    48    14    45    1
    49    15    46    1
    50    16    47    1
    51    18    48    1
    52    21    49    1
    53    22    50    1
    54    22    51    1
    55    25    52    1
    56    26    53    1
    57    29    54    1
    58    31    55    1
    59    31    56    1
