
     RDKit          3D

 39 42  0  0  0  0  0  0  0  0999 V2000
   -3.8189   -1.5016   -0.2513 C   0  0  0  0  0  0  0  0  0  0  0  0
   -3.3438   -0.1006    0.0528 C   0  0  0  0  0  0  0  0  0  0  0  0
   -3.8477    0.2737    1.4473 C   0  0  0  0  0  0  0  0  0  0  0  0
   -3.9700    0.8672   -0.9119 C   0  0  0  0  0  0  0  0  0  0  0  0
   -1.8532   -0.0436    0.0183 C   0  0  0  0  0  0  0  0  0  0  0  0
   -1.0701   -1.0970   -0.2467 N   0  0  0  0  0  0  0  0  0  0  0  0
    0.2143   -0.7148   -0.2005 C   0  0  0  0  0  0  0  0  0  0  0  0
    1.4018   -1.3822   -0.3904 C   0  0  0  0  0  0  0  0  0  0  0  0
    1.4330   -2.7201   -0.6963 C   0  0  0  0  0  0  0  0  0  0  0  0
    2.6120   -3.3764   -0.8834 C   0  0  0  0  0  0  0  0  0  0  0  0
    3.7723   -2.7078   -0.7680 N   0  0  0  0  0  0  0  0  0  0  0  0
    3.8069   -1.3885   -0.4685 C   0  0  0  0  0  0  0  0  0  0  0  0
    4.9401   -0.8953   -0.3922 O   0  0  0  0  0  0  0  0  0  0  0  0
    2.6269   -0.7109   -0.2765 C   0  0  0  0  0  0  0  0  0  0  0  0
    2.6031    0.6438    0.0330 C   0  0  0  0  0  0  0  0  0  0  0  0
    3.7734    1.3297    0.1520 C   0  0  0  0  0  0  0  0  0  0  0  0
    3.7394    2.6988    0.4651 C   0  0  0  0  0  0  0  0  0  0  0  0
    4.8804    3.4198    0.5930 F   0  0  0  0  0  0  0  0  0  0  0  0
    2.5309    3.3203    0.6452 C   0  0  0  0  0  0  0  0  0  0  0  0
    1.3390    2.6440    0.5291 C   0  0  0  0  0  0  0  0  0  0  0  0
    1.3751    1.2922    0.2199 C   0  0  0  0  0  0  0  0  0  0  0  0
    0.1906    0.6199    0.1044 C   0  0  0  0  0  0  0  0  0  0  0  0
   -1.0948    1.0461    0.2425 N   0  0  0  0  0  0  0  0  0  0  0  0
   -3.7816   -2.0921    0.7032 H   0  0  0  0  0  0  0  0  0  0  0  0
   -4.8594   -1.5045   -0.6497 H   0  0  0  0  0  0  0  0  0  0  0  0
   -3.1536   -2.0185   -0.9738 H   0  0  0  0  0  0  0  0  0  0  0  0
   -4.8673   -0.1205    1.5621 H   0  0  0  0  0  0  0  0  0  0  0  0
   -3.1579   -0.0939    2.2263 H   0  0  0  0  0  0  0  0  0  0  0  0
   -3.9288    1.3988    1.4994 H   0  0  0  0  0  0  0  0  0  0  0  0
   -3.3992    1.8244   -0.9937 H   0  0  0  0  0  0  0  0  0  0  0  0
   -4.9887    1.1678   -0.5659 H   0  0  0  0  0  0  0  0  0  0  0  0
   -4.0585    0.3991   -1.9146 H   0  0  0  0  0  0  0  0  0  0  0  0
    0.5072   -3.2418   -0.7856 H   0  0  0  0  0  0  0  0  0  0  0  0
    2.5918   -4.4297   -1.1227 H   0  0  0  0  0  0  0  0  0  0  0  0
    4.6443   -3.2625   -0.9222 H   0  0  0  0  0  0  0  0  0  0  0  0
    4.7235    0.9057    0.0251 H   0  0  0  0  0  0  0  0  0  0  0  0
    2.5108    4.3856    0.8886 H   0  0  0  0  0  0  0  0  0  0  0  0
    0.3837    3.1364    0.6717 H   0  0  0  0  0  0  0  0  0  0  0  0
   -1.4071    2.0290    0.4764 H   0  0  0  0  0  0  0  0  0  0  0  0
  1  2  1  0
  2  3  1  0
  2  4  1  0
  2  5  1  0
  5  6  2  0
  6  7  1  0
  7  8  2  0
  8  9  1  0
  9 10  2  0
 10 11  1  0
 11 12  1  0
 12 13  2  0
 12 14  1  0
 14 15  2  0
 15 16  1  0
 16 17  2  0
 17 18  1  0
 17 19  1  0
 19 20  2  0
 20 21  1  0
 21 22  2  0
 22 23  1  0
 23  5  1  0
 22  7  1  0
 14  8  1  0
 21 15  1  0
  1 24  1  0
  1 25  1  0
  1 26  1  0
  3 27  1  0
  3 28  1  0
  3 29  1  0
  4 30  1  0
  4 31  1  0
  4 32  1  0
  9 33  1  0
 10 34  1  0
 11 35  1  0
 16 36  1  0
 19 37  1  0
 20 38  1  0
 23 39  1  0
M  END
$$$$
