@<TRIPOS>MOLECULE
*****
 39 42 0 0 0
SMALL
GASTEIGER

@<TRIPOS>ATOM
      1 C          -3.8189   -1.5016   -0.2513 C.3     1  UNL1       -0.0532
      2 C          -3.3438   -0.1006    0.0528 C.3     1  UNL1        0.0202
      3 C          -3.8477    0.2737    1.4473 C.3     1  UNL1       -0.0532
      4 C          -3.9700    0.8672   -0.9119 C.3     1  UNL1       -0.0532
      5 C          -1.8532   -0.0436    0.0183 C.ar    1  UNL1        0.1136
      6 N          -1.0701   -1.0970   -0.2467 N.ar    1  UNL1       -0.2313
      7 C           0.2143   -0.7148   -0.2005 C.ar    1  UNL1        0.0976
      8 C           1.4018   -1.3822   -0.3904 C.ar    1  UNL1        0.0167
      9 C           1.4330   -2.7201   -0.6963 C.ar    1  UNL1       -0.0357
     10 C           2.6120   -3.3764   -0.8834 C.ar    1  UNL1        0.0056
     11 N           3.7723   -2.7078   -0.7680 N.ar    1  UNL1       -0.3286
     12 C           3.8069   -1.3885   -0.4685 C.ar    1  UNL1        0.2571
     13 O           4.9401   -0.8953   -0.3922 O.2     1  UNL1       -0.2672
     14 C           2.6269   -0.7109   -0.2765 C.ar    1  UNL1        0.0564
     15 C           2.6031    0.6438    0.0330 C.ar    1  UNL1       -0.0002
     16 C           3.7734    1.3297    0.1520 C.ar    1  UNL1       -0.0179
     17 C           3.7394    2.6988    0.4651 C.ar    1  UNL1        0.1240
     18 F           4.8804    3.4198    0.5930 F       1  UNL1       -0.2055
     19 C           2.5309    3.3203    0.6452 C.ar    1  UNL1       -0.0258
     20 C           1.3390    2.6440    0.5291 C.ar    1  UNL1       -0.0493
     21 C           1.3751    1.2922    0.2199 C.ar    1  UNL1        0.0085
     22 C           0.1906    0.6199    0.1044 C.ar    1  UNL1        0.0746
     23 N          -1.0948    1.0461    0.2425 N.ar    1  UNL1       -0.3409
     24 H          -3.7816   -2.0921    0.7032 H       1  UNL1        0.0239
     25 H          -4.8594   -1.5045   -0.6497 H       1  UNL1        0.0239
     26 H          -3.1536   -2.0185   -0.9738 H       1  UNL1        0.0239
     27 H          -4.8673   -0.1205    1.5621 H       1  UNL1        0.0239
     28 H          -3.1579   -0.0939    2.2263 H       1  UNL1        0.0239
     29 H          -3.9288    1.3988    1.4994 H       1  UNL1        0.0239
     30 H          -3.3992    1.8244   -0.9937 H       1  UNL1        0.0239
     31 H          -4.9887    1.1678   -0.5659 H       1  UNL1        0.0239
     32 H          -4.0585    0.3991   -1.9146 H       1  UNL1        0.0239
     33 H           0.5072   -3.2418   -0.7856 H       1  UNL1        0.0639
     34 H           2.5918   -4.4297   -1.1227 H       1  UNL1        0.0808
     35 H           4.6443   -3.2625   -0.9222 H       1  UNL1        0.1683
     36 H           4.7235    0.9057    0.0251 H       1  UNL1        0.0652
     37 H           2.5108    4.3856    0.8886 H       1  UNL1        0.0646
     38 H           0.3837    3.1364    0.6717 H       1  UNL1        0.0625
     39 H          -1.4071    2.0290    0.4764 H       1  UNL1        0.1671
@<TRIPOS>BOND
     1     1     2    1
     2     2     3    1
     3     2     4    1
     4     2     5    1
     5     5     6   ar
     6     6     7   ar
     7     7     8   ar
     8     8     9   ar
     9     9    10   ar
    10    10    11   ar
    11    11    12   ar
    12    12    13    2
    13    12    14   ar
    14    14    15   ar
    15    15    16   ar
    16    16    17   ar
    17    17    18    1
    18    17    19   ar
    19    19    20   ar
    20    20    21   ar
    21    21    22   ar
    22    22    23   ar
    23    23     5   ar
    24    22     7   ar
    25    14     8   ar
    26    21    15   ar
    27     1    24    1
    28     1    25    1
    29     1    26    1
    30     3    27    1
    31     3    28    1
    32     3    29    1
    33     4    30    1
    34     4    31    1
    35     4    32    1
    36     9    33    1
    37    10    34    1
    38    11    35    1
    39    16    36    1
    40    19    37    1
    41    20    38    1
    42    23    39    1
