@<TRIPOS>MOLECULE
*****
 42 45 0 0 0
SMALL
GASTEIGER

@<TRIPOS>ATOM
      1 C           0.3934    0.5236   -1.6012 C.3     1  UNL1       -0.0460
      2 C          -0.2927    0.3937   -0.2607 C.3     1  UNL1        0.0293
      3 C           0.7912   -0.0175    0.7449 C.3     1  UNL1        0.0101
      4 C           1.8500    1.0175    0.6392 C.ar    1  UNL1        0.0745
      5 C           1.4297    2.3326    0.6038 C.ar    1  UNL1        0.1038
      6 N           2.5786    3.0505    0.5071 N.ar    1  UNL1       -0.1322
      7 N           3.6084    2.2190    0.4866 N.ar    1  UNL1       -0.0576
      8 N           3.1938    0.9595    0.5664 N.ar    1  UNL1       -0.1820
      9 C           3.9944   -0.2286    0.5747 C.ar    1  UNL1        0.2530
     10 N           5.0563   -0.3714   -0.2400 N.ar    1  UNL1       -0.2161
     11 C           5.8383   -1.4484   -0.2799 C.ar    1  UNL1        0.0681
     12 C           5.5656   -2.5066    0.5602 C.ar    1  UNL1        0.1595
     13 F           6.3433   -3.6167    0.5429 F       1  UNL1       -0.2023
     14 C           4.4787   -2.3746    1.4022 C.ar    1  UNL1        0.0681
     15 N           3.7150   -1.2539    1.4016 N.ar    1  UNL1       -0.2161
     16 C          -0.0005    2.7348    0.6663 C.3     1  UNL1        0.0610
     17 N          -0.8443    1.6430    0.2037 N.am    1  UNL1       -0.2884
     18 C          -2.2505    1.8522    0.2252 C.2     1  UNL1        0.2501
     19 O          -2.7664    2.9215    0.6209 O.2     1  UNL1       -0.2699
     20 C          -3.1301    0.7794   -0.2314 C.ar    1  UNL1        0.0755
     21 C          -3.4751    0.7422   -1.5695 C.ar    1  UNL1       -0.0287
     22 C          -4.2952   -0.2433   -2.0394 C.ar    1  UNL1        0.0291
     23 N          -4.7712   -1.1840   -1.1985 N.ar    1  UNL1       -0.2483
     24 C          -4.4416   -1.1565    0.1039 C.ar    1  UNL1        0.1795
     25 C          -4.9830   -2.2063    0.9992 C.3     1  UNL1        0.4370
     26 F          -5.7506   -1.6386    2.0162 F       1  UNL1       -0.1643
     27 F          -5.8093   -3.0609    0.3154 F       1  UNL1       -0.1643
     28 F          -3.9812   -2.9248    1.6118 F       1  UNL1       -0.1643
     29 C          -3.6183   -0.1828    0.6229 C.ar    1  UNL1        0.1654
     30 F          -3.2977   -0.1695    1.9305 F       1  UNL1       -0.2025
     31 H           0.4437   -0.5153   -2.0282 H       1  UNL1        0.0248
     32 H           1.4042    0.9397   -1.4304 H       1  UNL1        0.0248
     33 H          -0.1450    1.2204   -2.2832 H       1  UNL1        0.0248
     34 H          -1.0968   -0.3677   -0.2715 H       1  UNL1        0.0502
     35 H           1.1510   -1.0305    0.5754 H       1  UNL1        0.0347
     36 H           0.3155    0.1173    1.7516 H       1  UNL1        0.0347
     37 H           6.6949   -1.5467   -0.9468 H       1  UNL1        0.0860
     38 H           4.2669   -3.2085    2.0617 H       1  UNL1        0.0860
     39 H          -0.2749    2.9809    1.7113 H       1  UNL1        0.0530
     40 H          -0.2225    3.6013    0.0094 H       1  UNL1        0.0530
     41 H          -3.0967    1.4974   -2.2600 H       1  UNL1        0.0641
     42 H          -4.5693   -0.2734   -3.1007 H       1  UNL1        0.0830
@<TRIPOS>BOND
     1     1     2    1
     2     2     3    1
     3     3     4    1
     4     4     5   ar
     5     5     6   ar
     6     6     7   ar
     7     7     8   ar
     8     8     9    1
     9     9    10   ar
    10    10    11   ar
    11    11    12   ar
    12    12    13    1
    13    12    14   ar
    14    14    15   ar
    15     5    16    1
    16    16    17    1
    17    17    18   am
    18    18    19    2
    19    18    20    1
    20    20    21   ar
    21    21    22   ar
    22    22    23   ar
    23    23    24   ar
    24    24    25    1
    25    25    26    1
    26    25    27    1
    27    25    28    1
    28    24    29   ar
    29    29    30    1
    30    17     2    1
    31    29    20   ar
    32     8     4   ar
    33    15     9   ar
    34     1    31    1
    35     1    32    1
    36     1    33    1
    37     2    34    1
    38     3    35    1
    39     3    36    1
    40    11    37    1
    41    14    38    1
    42    16    39    1
    43    16    40    1
    44    21    41    1
    45    22    42    1
