@<TRIPOS>MOLECULE
*****
 52 56 0 0 0
SMALL
GASTEIGER

@<TRIPOS>ATOM
      1 C          -2.6697   -0.3746    0.9330 C.3     1  UNL1       -0.0373
      2 C          -3.9355    0.0786    0.3182 C.ar    1  UNL1       -0.0202
      3 C          -3.9667    0.5368   -0.9683 C.ar    1  UNL1        0.0350
      4 N          -2.8266    0.6132   -1.7882 N.pl3   1  UNL1       -0.3127
      5 C          -1.9504   -0.4295   -2.1732 C.ar    1  UNL1        0.0602
      6 C          -2.4055   -1.4245   -3.0054 C.ar    1  UNL1        0.0915
      7 C          -3.7981   -1.3564   -3.4352 C.1     1  UNL1        0.1026
      8 N          -4.9213   -1.3122   -3.7835 N.1     1  UNL1       -0.1908
      9 C          -1.6191   -2.4600   -3.4489 C.ar    1  UNL1        0.0480
     10 N          -0.3381   -2.4708   -3.0274 N.ar    1  UNL1       -0.2464
     11 C           0.1092   -1.5061   -2.2197 C.ar    1  UNL1        0.1106
     12 S           1.7567   -1.2045   -1.4772 S.2     1  UNL1       -0.0692
     13 C           1.3339    0.2507   -0.6312 C.ar    1  UNL1        0.0150
     14 C           2.2543    1.0333    0.1988 C.2     1  UNL1       -0.0430
     15 C           3.5001    0.6319    0.3343 C.2     1  UNL1        0.0014
     16 C           4.4859    1.3256    1.1254 C.2     1  UNL1        0.2395
     17 O           4.1706    2.3720    1.7296 O.2     1  UNL1       -0.2706
     18 N           5.8024    0.8387    1.2267 N.am    1  UNL1       -0.2980
     19 C           6.8964    1.4426    1.9928 C.3     1  UNL1        0.0150
     20 C           7.9982    0.4380    2.0224 C.3     1  UNL1       -0.0357
     21 C           7.3352   -0.8438    1.5879 C.3     1  UNL1       -0.0357
     22 C           6.3099   -0.3505    0.5888 C.3     1  UNL1        0.0150
     23 C           0.0515    0.4277   -0.9303 C.ar    1  UNL1       -0.0364
     24 C          -0.5935   -0.4432   -1.7295 C.ar    1  UNL1        0.0306
     25 C          -5.2206    0.9387   -1.4574 C.ar    1  UNL1       -0.0383
     26 C          -6.3756    0.8948   -0.7301 C.ar    1  UNL1       -0.0360
     27 C          -6.3050    0.4247    0.5705 C.ar    1  UNL1        0.0468
     28 N          -7.2385    0.2645    1.5137 N.ar    1  UNL1       -0.3606
     29 C          -6.6744   -0.2258    2.6142 C.ar    1  UNL1        0.0027
     30 C          -5.3244   -0.3972    2.3969 C.ar    1  UNL1       -0.0364
     31 C          -5.1085    0.0195    1.0986 C.ar    1  UNL1        0.0043
     32 H          -1.9594    0.4335    1.1143 H       1  UNL1        0.0278
     33 H          -2.9208   -0.7698    1.9641 H       1  UNL1        0.0278
     34 H          -2.2473   -1.2671    0.4214 H       1  UNL1        0.0278
     35 H          -2.5766    1.5760   -2.1786 H       1  UNL1        0.1522
     36 H          -2.0177   -3.2062   -4.0918 H       1  UNL1        0.0843
     37 H           1.9035    1.9075    0.6755 H       1  UNL1        0.0630
     38 H           3.7959   -0.2862   -0.1903 H       1  UNL1        0.0670
     39 H           6.5597    1.6384    3.0367 H       1  UNL1        0.0465
     40 H           7.2299    2.3865    1.5645 H       1  UNL1        0.0465
     41 H           8.8310    0.6746    1.3275 H       1  UNL1        0.0281
     42 H           8.4511    0.2970    3.0146 H       1  UNL1        0.0281
     43 H           8.0610   -1.5420    1.1221 H       1  UNL1        0.0281
     44 H           6.8764   -1.3592    2.4578 H       1  UNL1        0.0281
     45 H           5.5432   -1.1341    0.4249 H       1  UNL1        0.0465
     46 H           6.8182   -0.1602   -0.3677 H       1  UNL1        0.0465
     47 H          -0.4745    1.3259   -0.5021 H       1  UNL1        0.0636
     48 H          -5.2317    1.2967   -2.4698 H       1  UNL1        0.0637
     49 H          -7.3433    1.2077   -1.1159 H       1  UNL1        0.0639
     50 H          -8.2660    0.4936    1.3981 H       1  UNL1        0.1653
     51 H          -7.1770   -0.4674    3.5636 H       1  UNL1        0.0807
     52 H          -4.5884   -0.7771    3.0944 H       1  UNL1        0.0639
@<TRIPOS>BOND
     1     1     2    1
     2     2     3   ar
     3     3     4    1
     4     4     5    1
     5     5     6   ar
     6     6     7    1
     7     7     8    3
     8     6     9   ar
     9     9    10   ar
    10    10    11   ar
    11    11    12   ar
    12    12    13   ar
    13    13    14    1
    14    14    15    2
    15    15    16    1
    16    16    17    2
    17    16    18   am
    18    18    19    1
    19    19    20    1
    20    20    21    1
    21    21    22    1
    22    13    23   ar
    23    23    24   ar
    24     3    25   ar
    25    25    26   ar
    26    26    27   ar
    27    27    28   ar
    28    28    29   ar
    29    29    30   ar
    30    30    31   ar
    31    31     2   ar
    32    24     5   ar
    33    31    27   ar
    34    24    11   ar
    35    22    18    1
    36     1    32    1
    37     1    33    1
    38     1    34    1
    39     4    35    1
    40     9    36    1
    41    14    37    1
    42    15    38    1
    43    19    39    1
    44    19    40    1
    45    20    41    1
    46    20    42    1
    47    21    43    1
    48    21    44    1
    49    22    45    1
    50    22    46    1
    51    23    47    1
    52    25    48    1
    53    26    49    1
    54    28    50    1
    55    29    51    1
    56    30    52    1
