@<TRIPOS>MOLECULE
*****
 105 111 0 0 0
SMALL
GASTEIGER

@<TRIPOS>ATOM
      1 C           6.2020   -6.6311    1.4918 C.1     1  UNL1       -0.1139
      2 C           5.9930   -5.3685    0.8482 C.1     1  UNL1       -0.0696
      3 C           5.8192   -4.4295    0.3624 C.ar    1  UNL1        0.0271
      4 C           4.5010   -3.8051   -0.0057 C.ar    1  UNL1       -0.0250
      5 C           4.5257   -2.5263   -0.3936 C.ar    1  UNL1        0.0354
      6 N           3.2538   -1.8317   -0.5676 N.pl3   1  UNL1       -0.2835
      7 C           2.6442   -1.3077    0.6149 C.ar    1  UNL1        0.2226
      8 N           3.2159   -1.4141    1.7872 N.ar    1  UNL1       -0.2225
      9 C           2.7233   -0.8447    2.8810 C.ar    1  UNL1        0.0362
     10 C           1.5579   -0.0987    2.8194 C.ar    1  UNL1        0.0186
     11 C           0.9411    0.0198    1.5711 C.ar    1  UNL1        0.2249
     12 O          -0.2377    0.7654    1.5178 O.3     1  UNL1       -0.4373
     13 C          -1.1344    0.5299    0.4829 C.ar    1  UNL1        0.1381
     14 C          -1.2092    1.2532   -0.6722 C.ar    1  UNL1       -0.0169
     15 C          -2.1813    0.9403   -1.6240 C.ar    1  UNL1       -0.0363
     16 C          -3.0551   -0.0638   -1.4341 C.ar    1  UNL1        0.0427
     17 N          -4.2175   -0.3449   -2.2265 N.am    1  UNL1       -0.2686
     18 C          -5.4237    0.2236   -1.6789 C.2     1  UNL1        0.3092
     19 O          -5.2722    0.8918   -0.5984 O.2     1  UNL1       -0.2521
     20 N          -6.7289    0.1239   -2.2131 N.am    1  UNL1       -0.2538
     21 C          -7.7733    0.8046   -1.5043 C.ar    1  UNL1        0.1299
     22 C          -7.8253    2.2118   -1.5700 C.ar    1  UNL1        0.0021
     23 C          -8.9052    2.5971   -0.8051 C.ar    1  UNL1        0.0706
     24 C          -9.3031    4.0214   -0.6038 C.3     1  UNL1        0.0063
     25 C          -8.5694    4.4331    0.6959 C.3     1  UNL1       -0.0546
     26 C         -10.7731    4.1047   -0.3725 C.3     1  UNL1       -0.0546
     27 C          -8.8316    4.8934   -1.7510 C.3     1  UNL1       -0.0546
     28 N          -9.4487    1.5019   -0.3276 N.ar    1  UNL1       -0.1691
     29 N          -8.7528    0.3889   -0.7568 N.ar    1  UNL1       -0.2181
     30 C          -9.1981   -0.8970   -0.3476 C.ar    1  UNL1        0.0674
     31 C          -8.6446   -1.5081    0.7840 C.ar    1  UNL1       -0.0359
     32 C          -9.0747   -2.7144    1.2304 C.ar    1  UNL1       -0.0568
     33 C         -10.1016   -3.4265    0.6032 C.ar    1  UNL1       -0.0503
     34 C         -10.5717   -4.7281    1.1423 C.3     1  UNL1       -0.0397
     35 C         -10.6549   -2.8399   -0.5012 C.ar    1  UNL1       -0.0568
     36 C         -10.1987   -1.5950   -0.9565 C.ar    1  UNL1       -0.0359
     37 C          -2.9947   -0.8079   -0.2726 C.ar    1  UNL1        0.0069
     38 C          -3.9249   -1.7911   -0.0367 C.ar    1  UNL1       -0.0521
     39 C          -3.9083   -2.4760    1.1271 C.ar    1  UNL1       -0.0611
     40 C          -2.9586   -2.2000    2.1311 C.ar    1  UNL1       -0.0611
     41 C          -2.0312   -1.2021    1.8553 C.ar    1  UNL1       -0.0505
     42 C          -2.0405   -0.5150    0.6872 C.ar    1  UNL1        0.0262
     43 N           1.4882   -0.5795    0.5361 N.ar    1  UNL1       -0.1789
     44 C           5.6209   -1.6892   -0.5200 C.ar    1  UNL1       -0.0283
     45 C           6.8668   -2.2101   -0.2048 C.ar    1  UNL1        0.0396
     46 C           8.0291   -1.3232   -0.1232 C.2     1  UNL1        0.2444
     47 O           9.0922   -1.7587    0.3473 O.2     1  UNL1       -0.2702
     48 N           8.0448    0.0511   -0.5357 N.am    1  UNL1       -0.3075
     49 C           9.2136    0.8172   -0.2720 C.3     1  UNL1        0.0333
     50 C           8.7899    2.2092    0.2325 C.3     1  UNL1       -0.0454
     51 C          10.2414    1.0421   -1.3305 C.3     1  UNL1        0.0172
     52 N          11.3008    1.7718   -0.6721 N.3     1  UNL1       -0.2963
     53 C          12.3194    2.3226   -1.4934 C.3     1  UNL1        0.0225
     54 C          13.3562    2.8950   -0.5079 C.3     1  UNL1        0.0604
     55 O          12.7975    3.0753    0.7675 O.3     1  UNL1       -0.3772
     56 C          12.4324    1.8622    1.3878 C.3     1  UNL1        0.0604
     57 C          11.9884    0.9122    0.2909 C.3     1  UNL1        0.0225
     58 C           6.9308   -3.4582    0.1877 C.ar    1  UNL1       -0.0341
     59 H           6.3780   -7.7449    2.0361 H       1  UNL1        0.1232
     60 H           3.6653   -4.4464    0.0912 H       1  UNL1        0.0648
     61 H           2.8295   -1.7264   -1.4896 H       1  UNL1        0.1550
     62 H           3.1974   -0.9602    3.8739 H       1  UNL1        0.0832
     63 H           1.0815    0.3855    3.6594 H       1  UNL1        0.0686
     64 H          -0.5088    2.0509   -0.8485 H       1  UNL1        0.0655
     65 H          -2.1984    1.5291   -2.5582 H       1  UNL1        0.0637
     66 H          -4.2809   -0.8677   -3.0808 H       1  UNL1        0.1564
     67 H          -6.8558   -0.4185   -3.0798 H       1  UNL1        0.1578
     68 H          -7.1053    2.7941   -2.1154 H       1  UNL1        0.0671
     69 H          -7.5842    3.9372    0.7622 H       1  UNL1        0.0239
     70 H          -8.4728    5.5328    0.7701 H       1  UNL1        0.0239
     71 H          -9.1574    4.0701    1.5686 H       1  UNL1        0.0239
     72 H         -10.9660    4.6395    0.5735 H       1  UNL1        0.0239
     73 H         -11.2466    4.6044   -1.2502 H       1  UNL1        0.0239
     74 H         -11.2171    3.0915   -0.2709 H       1  UNL1        0.0239
     75 H          -8.5830    5.9269   -1.3400 H       1  UNL1        0.0239
     76 H          -9.6410    4.9480   -2.4887 H       1  UNL1        0.0239
     77 H          -7.9147    4.5336   -2.1885 H       1  UNL1        0.0239
     78 H          -7.8269   -0.9445    1.2782 H       1  UNL1        0.0639
     79 H          -8.6483   -3.2138    2.1184 H       1  UNL1        0.0621
     80 H         -10.9997   -5.3410    0.3492 H       1  UNL1        0.0278
     81 H         -11.3040   -4.5437    1.9659 H       1  UNL1        0.0278
     82 H          -9.7256   -5.2579    1.6458 H       1  UNL1        0.0278
     83 H         -11.4443   -3.3653   -1.0037 H       1  UNL1        0.0621
     84 H         -10.6429   -1.1362   -1.8378 H       1  UNL1        0.0639
     85 H          -4.6990   -2.0557   -0.7766 H       1  UNL1        0.0624
     86 H          -4.6242   -3.2380    1.3464 H       1  UNL1        0.0618
     87 H          -2.9309   -2.7210    3.0546 H       1  UNL1        0.0618
     88 H          -1.2814   -0.9829    2.6350 H       1  UNL1        0.0625
     89 H           5.5226   -0.6624   -0.8401 H       1  UNL1        0.0644
     90 H           7.2200    0.4351   -1.0036 H       1  UNL1        0.1493
     91 H           9.7764    0.3797    0.6013 H       1  UNL1        0.0508
     92 H           9.2720    3.0396   -0.3173 H       1  UNL1        0.0248
     93 H           9.0287    2.3435    1.3043 H       1  UNL1        0.0248
     94 H           7.6855    2.3153    0.0538 H       1  UNL1        0.0248
     95 H          10.6531    0.0802   -1.7162 H       1  UNL1        0.0445
     96 H           9.8284    1.6673   -2.1546 H       1  UNL1        0.0445
     97 H          11.9848    3.0825   -2.1840 H       1  UNL1        0.0449
     98 H          12.8620    1.5332   -2.0895 H       1  UNL1        0.0449
     99 H          13.6661    3.8839   -0.8445 H       1  UNL1        0.0572
    100 H          14.2131    2.2071   -0.3660 H       1  UNL1        0.0572
    101 H          13.1830    1.4599    2.0578 H       1  UNL1        0.0572
    102 H          11.4930    2.0819    1.9784 H       1  UNL1        0.0572
    103 H          12.9718    0.6361   -0.2191 H       1  UNL1        0.0449
    104 H          11.4814    0.0458    0.6320 H       1  UNL1        0.0449
    105 H           7.9214   -3.8861    0.4328 H       1  UNL1        0.0637
@<TRIPOS>BOND
     1     1     2    3
     2     2     3    1
     3     3     4   ar
     4     4     5   ar
     5     5     6    1
     6     6     7    1
     7     7     8   ar
     8     8     9   ar
     9     9    10   ar
    10    10    11   ar
    11    11    12    1
    12    12    13    1
    13    13    14   ar
    14    14    15   ar
    15    15    16   ar
    16    16    17    1
    17    17    18   am
    18    18    19    2
    19    18    20   am
    20    20    21    1
    21    21    22   ar
    22    22    23   ar
    23    23    24    1
    24    24    25    1
    25    24    26    1
    26    24    27    1
    27    23    28   ar
    28    28    29   ar
    29    29    30    1
    30    30    31   ar
    31    31    32   ar
    32    32    33   ar
    33    33    34    1
    34    33    35   ar
    35    35    36   ar
    36    16    37   ar
    37    37    38   ar
    38    38    39   ar
    39    39    40   ar
    40    40    41   ar
    41    41    42   ar
    42    11    43   ar
    43     5    44   ar
    44    44    45   ar
    45    45    46    1
    46    46    47    2
    47    46    48   am
    48    48    49    1
    49    49    50    1
    50    49    51    1
    51    51    52    1
    52    52    53    1
    53    53    54    1
    54    54    55    1
    55    55    56    1
    56    56    57    1
    57    45    58   ar
    58    58     3   ar
    59    43     7   ar
    60    57    52    1
    61    42    13   ar
    62    29    21   ar
    63    36    30   ar
    64    42    37   ar
    65     1    59    1
    66     4    60    1
    67     6    61    1
    68     9    62    1
    69    10    63    1
    70    14    64    1
    71    15    65    1
    72    17    66    1
    73    20    67    1
    74    22    68    1
    75    25    69    1
    76    25    70    1
    77    25    71    1
    78    26    72    1
    79    26    73    1
    80    26    74    1
    81    27    75    1
    82    27    76    1
    83    27    77    1
    84    31    78    1
    85    32    79    1
    86    34    80    1
    87    34    81    1
    88    34    82    1
    89    35    83    1
    90    36    84    1
    91    38    85    1
    92    39    86    1
    93    40    87    1
    94    41    88    1
    95    44    89    1
    96    48    90    1
    97    49    91    1
    98    50    92    1
    99    50    93    1
   100    50    94    1
   101    51    95    1
   102    51    96    1
   103    53    97    1
   104    53    98    1
   105    54    99    1
   106    54   100    1
   107    56   101    1
   108    56   102    1
   109    57   103    1
   110    57   104    1
   111    58   105    1
