
     RDKit          3D

105111  0  0  0  0  0  0  0  0999 V2000
    6.2020   -6.6311    1.4918 C   0  0  0  0  0  0  0  0  0  0  0  0
    5.9930   -5.3685    0.8482 C   0  0  0  0  0  0  0  0  0  0  0  0
    5.8192   -4.4295    0.3624 C   0  0  0  0  0  0  0  0  0  0  0  0
    4.5010   -3.8051   -0.0057 C   0  0  0  0  0  0  0  0  0  0  0  0
    4.5257   -2.5263   -0.3936 C   0  0  0  0  0  0  0  0  0  0  0  0
    3.2538   -1.8317   -0.5676 N   0  0  0  0  0  0  0  0  0  0  0  0
    2.6442   -1.3077    0.6149 C   0  0  0  0  0  0  0  0  0  0  0  0
    3.2159   -1.4141    1.7872 N   0  0  0  0  0  0  0  0  0  0  0  0
    2.7233   -0.8447    2.8810 C   0  0  0  0  0  0  0  0  0  0  0  0
    1.5579   -0.0987    2.8194 C   0  0  0  0  0  0  0  0  0  0  0  0
    0.9411    0.0198    1.5711 C   0  0  0  0  0  0  0  0  0  0  0  0
   -0.2377    0.7654    1.5178 O   0  0  0  0  0  0  0  0  0  0  0  0
   -1.1344    0.5299    0.4829 C   0  0  0  0  0  0  0  0  0  0  0  0
   -1.2092    1.2532   -0.6722 C   0  0  0  0  0  0  0  0  0  0  0  0
   -2.1813    0.9403   -1.6240 C   0  0  0  0  0  0  0  0  0  0  0  0
   -3.0551   -0.0638   -1.4341 C   0  0  0  0  0  0  0  0  0  0  0  0
   -4.2175   -0.3449   -2.2265 N   0  0  0  0  0  0  0  0  0  0  0  0
   -5.4237    0.2236   -1.6789 C   0  0  0  0  0  0  0  0  0  0  0  0
   -5.2722    0.8918   -0.5984 O   0  0  0  0  0  0  0  0  0  0  0  0
   -6.7289    0.1239   -2.2131 N   0  0  0  0  0  0  0  0  0  0  0  0
   -7.7733    0.8046   -1.5043 C   0  0  0  0  0  0  0  0  0  0  0  0
   -7.8253    2.2118   -1.5700 C   0  0  0  0  0  0  0  0  0  0  0  0
   -8.9052    2.5971   -0.8051 C   0  0  0  0  0  0  0  0  0  0  0  0
   -9.3031    4.0214   -0.6038 C   0  0  0  0  0  0  0  0  0  0  0  0
   -8.5694    4.4331    0.6959 C   0  0  0  0  0  0  0  0  0  0  0  0
  -10.7731    4.1047   -0.3725 C   0  0  0  0  0  0  0  0  0  0  0  0
   -8.8316    4.8934   -1.7510 C   0  0  0  0  0  0  0  0  0  0  0  0
   -9.4487    1.5019   -0.3276 N   0  0  0  0  0  0  0  0  0  0  0  0
   -8.7528    0.3889   -0.7568 N   0  0  0  0  0  0  0  0  0  0  0  0
   -9.1981   -0.8970   -0.3476 C   0  0  0  0  0  0  0  0  0  0  0  0
   -8.6446   -1.5081    0.7840 C   0  0  0  0  0  0  0  0  0  0  0  0
   -9.0747   -2.7144    1.2304 C   0  0  0  0  0  0  0  0  0  0  0  0
  -10.1016   -3.4265    0.6032 C   0  0  0  0  0  0  0  0  0  0  0  0
  -10.5717   -4.7281    1.1423 C   0  0  0  0  0  0  0  0  0  0  0  0
  -10.6549   -2.8399   -0.5012 C   0  0  0  0  0  0  0  0  0  0  0  0
  -10.1987   -1.5950   -0.9565 C   0  0  0  0  0  0  0  0  0  0  0  0
   -2.9947   -0.8079   -0.2726 C   0  0  0  0  0  0  0  0  0  0  0  0
   -3.9249   -1.7911   -0.0367 C   0  0  0  0  0  0  0  0  0  0  0  0
   -3.9083   -2.4760    1.1271 C   0  0  0  0  0  0  0  0  0  0  0  0
   -2.9586   -2.2000    2.1311 C   0  0  0  0  0  0  0  0  0  0  0  0
   -2.0312   -1.2021    1.8553 C   0  0  0  0  0  0  0  0  0  0  0  0
   -2.0405   -0.5150    0.6872 C   0  0  0  0  0  0  0  0  0  0  0  0
    1.4882   -0.5795    0.5361 N   0  0  0  0  0  0  0  0  0  0  0  0
    5.6209   -1.6892   -0.5200 C   0  0  0  0  0  0  0  0  0  0  0  0
    6.8668   -2.2101   -0.2048 C   0  0  0  0  0  0  0  0  0  0  0  0
    8.0291   -1.3232   -0.1232 C   0  0  0  0  0  0  0  0  0  0  0  0
    9.0922   -1.7587    0.3473 O   0  0  0  0  0  0  0  0  0  0  0  0
    8.0448    0.0511   -0.5357 N   0  0  0  0  0  0  0  0  0  0  0  0
    9.2136    0.8172   -0.2720 C   0  0  2  0  0  0  0  0  0  0  0  0
    8.7899    2.2092    0.2325 C   0  0  0  0  0  0  0  0  0  0  0  0
   10.2414    1.0421   -1.3305 C   0  0  0  0  0  0  0  0  0  0  0  0
   11.3008    1.7718   -0.6721 N   0  0  0  0  0  0  0  0  0  0  0  0
   12.3194    2.3226   -1.4934 C   0  0  0  0  0  0  0  0  0  0  0  0
   13.3562    2.8950   -0.5079 C   0  0  0  0  0  0  0  0  0  0  0  0
   12.7975    3.0753    0.7675 O   0  0  0  0  0  0  0  0  0  0  0  0
   12.4324    1.8622    1.3878 C   0  0  0  0  0  0  0  0  0  0  0  0
   11.9884    0.9122    0.2909 C   0  0  0  0  0  0  0  0  0  0  0  0
    6.9308   -3.4582    0.1877 C   0  0  0  0  0  0  0  0  0  0  0  0
    6.3780   -7.7449    2.0361 H   0  0  0  0  0  0  0  0  0  0  0  0
    3.6653   -4.4464    0.0912 H   0  0  0  0  0  0  0  0  0  0  0  0
    2.8295   -1.7264   -1.4896 H   0  0  0  0  0  0  0  0  0  0  0  0
    3.1974   -0.9602    3.8739 H   0  0  0  0  0  0  0  0  0  0  0  0
    1.0815    0.3855    3.6594 H   0  0  0  0  0  0  0  0  0  0  0  0
   -0.5088    2.0509   -0.8485 H   0  0  0  0  0  0  0  0  0  0  0  0
   -2.1984    1.5291   -2.5582 H   0  0  0  0  0  0  0  0  0  0  0  0
   -4.2809   -0.8677   -3.0808 H   0  0  0  0  0  0  0  0  0  0  0  0
   -6.8558   -0.4185   -3.0798 H   0  0  0  0  0  0  0  0  0  0  0  0
   -7.1053    2.7941   -2.1154 H   0  0  0  0  0  0  0  0  0  0  0  0
   -7.5842    3.9372    0.7622 H   0  0  0  0  0  0  0  0  0  0  0  0
   -8.4728    5.5328    0.7701 H   0  0  0  0  0  0  0  0  0  0  0  0
   -9.1574    4.0701    1.5686 H   0  0  0  0  0  0  0  0  0  0  0  0
  -10.9660    4.6395    0.5735 H   0  0  0  0  0  0  0  0  0  0  0  0
  -11.2466    4.6044   -1.2502 H   0  0  0  0  0  0  0  0  0  0  0  0
  -11.2171    3.0915   -0.2709 H   0  0  0  0  0  0  0  0  0  0  0  0
   -8.5830    5.9269   -1.3400 H   0  0  0  0  0  0  0  0  0  0  0  0
   -9.6410    4.9480   -2.4887 H   0  0  0  0  0  0  0  0  0  0  0  0
   -7.9147    4.5336   -2.1885 H   0  0  0  0  0  0  0  0  0  0  0  0
   -7.8269   -0.9445    1.2782 H   0  0  0  0  0  0  0  0  0  0  0  0
   -8.6483   -3.2138    2.1184 H   0  0  0  0  0  0  0  0  0  0  0  0
  -10.9997   -5.3410    0.3492 H   0  0  0  0  0  0  0  0  0  0  0  0
  -11.3040   -4.5437    1.9659 H   0  0  0  0  0  0  0  0  0  0  0  0
   -9.7256   -5.2579    1.6458 H   0  0  0  0  0  0  0  0  0  0  0  0
  -11.4443   -3.3653   -1.0037 H   0  0  0  0  0  0  0  0  0  0  0  0
  -10.6429   -1.1362   -1.8378 H   0  0  0  0  0  0  0  0  0  0  0  0
   -4.6990   -2.0557   -0.7766 H   0  0  0  0  0  0  0  0  0  0  0  0
   -4.6242   -3.2380    1.3464 H   0  0  0  0  0  0  0  0  0  0  0  0
   -2.9309   -2.7210    3.0546 H   0  0  0  0  0  0  0  0  0  0  0  0
   -1.2814   -0.9829    2.6350 H   0  0  0  0  0  0  0  0  0  0  0  0
    5.5226   -0.6624   -0.8401 H   0  0  0  0  0  0  0  0  0  0  0  0
    7.2200    0.4351   -1.0036 H   0  0  0  0  0  0  0  0  0  0  0  0
    9.7764    0.3797    0.6013 H   0  0  0  0  0  0  0  0  0  0  0  0
    9.2720    3.0396   -0.3173 H   0  0  0  0  0  0  0  0  0  0  0  0
    9.0287    2.3435    1.3043 H   0  0  0  0  0  0  0  0  0  0  0  0
    7.6855    2.3153    0.0538 H   0  0  0  0  0  0  0  0  0  0  0  0
   10.6531    0.0802   -1.7162 H   0  0  0  0  0  0  0  0  0  0  0  0
    9.8284    1.6673   -2.1546 H   0  0  0  0  0  0  0  0  0  0  0  0
   11.9848    3.0825   -2.1840 H   0  0  0  0  0  0  0  0  0  0  0  0
   12.8620    1.5332   -2.0895 H   0  0  0  0  0  0  0  0  0  0  0  0
   13.6661    3.8839   -0.8445 H   0  0  0  0  0  0  0  0  0  0  0  0
   14.2131    2.2071   -0.3660 H   0  0  0  0  0  0  0  0  0  0  0  0
   13.1830    1.4599    2.0578 H   0  0  0  0  0  0  0  0  0  0  0  0
   11.4930    2.0819    1.9784 H   0  0  0  0  0  0  0  0  0  0  0  0
   12.9718    0.6361   -0.2191 H   0  0  0  0  0  0  0  0  0  0  0  0
   11.4814    0.0458    0.6320 H   0  0  0  0  0  0  0  0  0  0  0  0
    7.9214   -3.8861    0.4328 H   0  0  0  0  0  0  0  0  0  0  0  0
  1  2  3  0
  2  3  1  0
  3  4  2  0
  4  5  1  0
  5  6  1  0
  6  7  1  0
  7  8  2  0
  8  9  1  0
  9 10  2  0
 10 11  1  0
 11 12  1  0
 12 13  1  0
 13 14  2  0
 14 15  1  0
 15 16  2  0
 16 17  1  0
 17 18  1  0
 18 19  2  0
 18 20  1  0
 20 21  1  0
 21 22  2  0
 22 23  1  0
 23 24  1  0
 24 25  1  0
 24 26  1  0
 24 27  1  0
 23 28  2  0
 28 29  1  0
 29 30  1  0
 30 31  2  0
 31 32  1  0
 32 33  2  0
 33 34  1  0
 33 35  1  0
 35 36  2  0
 16 37  1  0
 37 38  2  0
 38 39  1  0
 39 40  2  0
 40 41  1  0
 41 42  2  0
 11 43  2  0
  5 44  2  0
 44 45  1  0
 45 46  1  0
 46 47  2  0
 46 48  1  0
 48 49  1  0
 49 50  1  0
 49 51  1  0
 51 52  1  0
 52 53  1  0
 53 54  1  0
 54 55  1  0
 55 56  1  0
 56 57  1  0
 45 58  2  0
 58  3  1  0
 43  7  1  0
 57 52  1  0
 42 13  1  0
 29 21  1  0
 36 30  1  0
 42 37  1  0
  1 59  1  0
  4 60  1  0
  6 61  1  0
  9 62  1  0
 10 63  1  0
 14 64  1  0
 15 65  1  0
 17 66  1  0
 20 67  1  0
 22 68  1  0
 25 69  1  0
 25 70  1  0
 25 71  1  0
 26 72  1  0
 26 73  1  0
 26 74  1  0
 27 75  1  0
 27 76  1  0
 27 77  1  0
 31 78  1  0
 32 79  1  0
 34 80  1  0
 34 81  1  0
 34 82  1  0
 35 83  1  0
 36 84  1  0
 38 85  1  0
 39 86  1  0
 40 87  1  0
 41 88  1  0
 44 89  1  0
 48 90  1  0
 49 91  1  1
 50 92  1  0
 50 93  1  0
 50 94  1  0
 51 95  1  0
 51 96  1  0
 53 97  1  0
 53 98  1  0
 54 99  1  0
 54100  1  0
 56101  1  0
 56102  1  0
 57103  1  0
 57104  1  0
 58105  1  0
M  END
$$$$
