
     RDKit          3D

 45 49  0  0  0  0  0  0  0  0999 V2000
   -8.3728    0.9713    0.7857 C   0  0  0  0  0  0  0  0  0  0  0  0
   -7.1183    0.2227    0.5347 C   0  0  0  0  0  0  0  0  0  0  0  0
   -5.9180    0.3349    0.7396 N   0  0  0  0  0  0  0  0  0  0  0  0
   -4.9775   -0.4896    0.4089 C   0  0  0  0  0  0  0  0  0  0  0  0
   -3.5405   -0.2406    0.7156 C   0  0  0  0  0  0  0  0  0  0  0  0
   -2.9620   -0.4640    1.9050 N   0  0  0  0  0  0  0  0  0  0  0  0
   -1.6833   -0.1305    1.8170 N   0  0  0  0  0  0  0  0  0  0  0  0
   -1.4522    0.2993    0.5878 C   0  0  0  0  0  0  0  0  0  0  0  0
   -2.6157    0.2352   -0.1181 N   0  0  0  0  0  0  0  0  0  0  0  0
   -2.6000    0.6537   -1.4834 C   0  0  0  0  0  0  0  0  0  0  0  0
   -1.4448   -0.0436   -2.1894 C   0  0  0  0  0  0  0  0  0  0  0  0
   -0.2099    0.0758   -1.4234 N   0  0  0  0  0  0  0  0  0  0  0  0
    0.9863   -0.5052   -1.8777 C   0  0  0  0  0  0  0  0  0  0  0  0
    0.9785   -1.1360   -2.9643 O   0  0  0  0  0  0  0  0  0  0  0  0
    2.2317   -0.4085   -1.1463 C   0  0  0  0  0  0  0  0  0  0  0  0
    2.2906   -0.9687    0.1247 C   0  0  0  0  0  0  0  0  0  0  0  0
    3.4560   -0.8882    0.8329 C   0  0  0  0  0  0  0  0  0  0  0  0
    4.5723   -0.2656    0.3174 C   0  0  0  0  0  0  0  0  0  0  0  0
    5.8121   -0.1674    1.0491 C   0  0  0  0  0  0  0  0  0  0  0  0
    7.0368    0.4021    0.7299 C   0  0  0  0  0  0  0  0  0  0  0  0
    8.0226    0.3512    1.5981 C   0  0  0  0  0  0  0  0  0  0  0  0
    7.8424   -0.2704    2.8332 C   0  0  0  0  0  0  0  0  0  0  0  0
    6.1000   -0.7995    2.6661 S   0  0  0  0  0  0  0  0  0  0  0  0
    4.5149    0.2855   -0.9326 C   0  0  0  0  0  0  0  0  0  0  0  0
    3.3345    0.2040   -1.6503 C   0  0  0  0  0  0  0  0  0  0  0  0
   -0.2774    0.8156   -0.1815 C   0  0  0  0  0  0  0  0  0  0  0  0
   -5.3453   -1.6225   -0.2455 C   0  0  0  0  0  0  0  0  0  0  0  0
   -7.1475   -1.4338   -0.3609 S   0  0  0  0  0  0  0  0  0  0  0  0
   -9.2546    0.3905    0.3845 H   0  0  0  0  0  0  0  0  0  0  0  0
   -8.3172    1.9167    0.2190 H   0  0  0  0  0  0  0  0  0  0  0  0
   -8.5730    1.1231    1.8584 H   0  0  0  0  0  0  0  0  0  0  0  0
   -2.3717    1.7422   -1.5502 H   0  0  0  0  0  0  0  0  0  0  0  0
   -3.5189    0.4640   -2.0332 H   0  0  0  0  0  0  0  0  0  0  0  0
   -1.3235    0.3273   -3.2263 H   0  0  0  0  0  0  0  0  0  0  0  0
   -1.7073   -1.1191   -2.2300 H   0  0  0  0  0  0  0  0  0  0  0  0
    1.4476   -1.4679    0.5787 H   0  0  0  0  0  0  0  0  0  0  0  0
    3.5057   -1.3195    1.8153 H   0  0  0  0  0  0  0  0  0  0  0  0
    7.1148    0.8890   -0.2868 H   0  0  0  0  0  0  0  0  0  0  0  0
    9.0356    0.7863    1.4151 H   0  0  0  0  0  0  0  0  0  0  0  0
    8.4619   -0.4256    3.6502 H   0  0  0  0  0  0  0  0  0  0  0  0
    5.3848    0.7754   -1.3453 H   0  0  0  0  0  0  0  0  0  0  0  0
    3.2920    0.6387   -2.6350 H   0  0  0  0  0  0  0  0  0  0  0  0
   -0.5385    1.8877   -0.4201 H   0  0  0  0  0  0  0  0  0  0  0  0
    0.6470    0.8315    0.3884 H   0  0  0  0  0  0  0  0  0  0  0  0
   -4.7984   -2.4572   -0.6287 H   0  0  0  0  0  0  0  0  0  0  0  0
  1  2  1  0
  2  3  2  0
  3  4  1  0
  4  5  1  0
  5  6  2  0
  6  7  1  0
  7  8  2  0
  8  9  1  0
  9 10  1  0
 10 11  1  0
 11 12  1  0
 12 13  1  0
 13 14  2  0
 13 15  1  0
 15 16  2  0
 16 17  1  0
 17 18  2  0
 18 19  1  0
 19 20  2  0
 20 21  1  0
 21 22  2  0
 22 23  1  0
 18 24  1  0
 24 25  2  0
 12 26  1  0
  4 27  2  0
 27 28  1  0
 28  2  1  0
  9  5  1  0
 25 15  1  0
 26  8  1  0
 23 19  1  0
  1 29  1  0
  1 30  1  0
  1 31  1  0
 10 32  1  0
 10 33  1  0
 11 34  1  0
 11 35  1  0
 16 36  1  0
 17 37  1  0
 20 38  1  0
 21 39  1  0
 22 40  1  0
 24 41  1  0
 25 42  1  0
 26 43  1  0
 26 44  1  0
 27 45  1  0
M  END
$$$$
