@<TRIPOS>MOLECULE
*****
 45 49 0 0 0
SMALL
GASTEIGER

@<TRIPOS>ATOM
      1 C          -8.3728    0.9713    0.7857 C.3     1  UNL1       -0.0159
      2 C          -7.1183    0.2227    0.5347 C.ar    1  UNL1        0.0760
      3 N          -5.9180    0.3349    0.7396 N.ar    1  UNL1       -0.2412
      4 C          -4.9775   -0.4896    0.4089 C.ar    1  UNL1        0.1154
      5 C          -3.5405   -0.2406    0.7156 C.ar    1  UNL1        0.1832
      6 N          -2.9620   -0.4640    1.9050 N.ar    1  UNL1       -0.1275
      7 N          -1.6833   -0.1305    1.8170 N.ar    1  UNL1       -0.1323
      8 C          -1.4522    0.2993    0.5878 C.ar    1  UNL1        0.1513
      9 N          -2.6157    0.2352   -0.1181 N.ar    1  UNL1       -0.3069
     10 C          -2.6000    0.6537   -1.4834 C.3     1  UNL1        0.0423
     11 C          -1.4448   -0.0436   -2.1894 C.3     1  UNL1        0.0335
     12 N          -0.2099    0.0758   -1.4234 N.am    1  UNL1       -0.2885
     13 C           0.9863   -0.5052   -1.8777 C.2     1  UNL1        0.2470
     14 O           0.9785   -1.1360   -2.9643 O.2     1  UNL1       -0.2700
     15 C           2.2317   -0.4085   -1.1463 C.ar    1  UNL1        0.0369
     16 C           2.2906   -0.9687    0.1247 C.ar    1  UNL1       -0.0490
     17 C           3.4560   -0.8882    0.8329 C.ar    1  UNL1       -0.0528
     18 C           4.5723   -0.2656    0.3174 C.ar    1  UNL1       -0.0113
     19 C           5.8121   -0.1674    1.0491 C.ar    1  UNL1        0.0193
     20 C           7.0368    0.4021    0.7299 C.ar    1  UNL1       -0.0469
     21 C           8.0226    0.3512    1.5981 C.ar    1  UNL1       -0.0541
     22 C           7.8424   -0.2704    2.8332 C.ar    1  UNL1       -0.0237
     23 S           6.1000   -0.7995    2.6661 S.2     1  UNL1       -0.0967
     24 C           4.5149    0.2855   -0.9326 C.ar    1  UNL1       -0.0528
     25 C           3.3345    0.2040   -1.6503 C.ar    1  UNL1       -0.0490
     26 C          -0.2774    0.8156   -0.1815 C.3     1  UNL1        0.0749
     27 C          -5.3453   -1.6225   -0.2455 C.ar    1  UNL1        0.0064
     28 S          -7.1475   -1.4338   -0.3609 S.2     1  UNL1       -0.0801
     29 H          -9.2546    0.3905    0.3845 H       1  UNL1        0.0298
     30 H          -8.3172    1.9167    0.2190 H       1  UNL1        0.0298
     31 H          -8.5730    1.1231    1.8584 H       1  UNL1        0.0298
     32 H          -2.3717    1.7422   -1.5502 H       1  UNL1        0.0508
     33 H          -3.5189    0.4640   -2.0332 H       1  UNL1        0.0508
     34 H          -1.3235    0.3273   -3.2263 H       1  UNL1        0.0482
     35 H          -1.7073   -1.1191   -2.2300 H       1  UNL1        0.0482
     36 H           1.4476   -1.4679    0.5787 H       1  UNL1        0.0625
     37 H           3.5057   -1.3195    1.8153 H       1  UNL1        0.0624
     38 H           7.1148    0.8890   -0.2868 H       1  UNL1        0.0629
     39 H           9.0356    0.7863    1.4151 H       1  UNL1        0.0623
     40 H           8.4619   -0.4256    3.6502 H       1  UNL1        0.0693
     41 H           5.3848    0.7754   -1.3453 H       1  UNL1        0.0624
     42 H           3.2920    0.6387   -2.6350 H       1  UNL1        0.0625
     43 H          -0.5385    1.8877   -0.4201 H       1  UNL1        0.0545
     44 H           0.6470    0.8315    0.3884 H       1  UNL1        0.0545
     45 H          -4.7984   -2.4572   -0.6287 H       1  UNL1        0.0716
@<TRIPOS>BOND
     1     1     2    1
     2     2     3   ar
     3     3     4   ar
     4     4     5    1
     5     5     6   ar
     6     6     7   ar
     7     7     8   ar
     8     8     9   ar
     9     9    10    1
    10    10    11    1
    11    11    12    1
    12    12    13   am
    13    13    14    2
    14    13    15    1
    15    15    16   ar
    16    16    17   ar
    17    17    18   ar
    18    18    19    1
    19    19    20   ar
    20    20    21   ar
    21    21    22   ar
    22    22    23   ar
    23    18    24   ar
    24    24    25   ar
    25    12    26    1
    26     4    27   ar
    27    27    28   ar
    28    28     2   ar
    29     9     5   ar
    30    25    15   ar
    31    26     8    1
    32    23    19   ar
    33     1    29    1
    34     1    30    1
    35     1    31    1
    36    10    32    1
    37    10    33    1
    38    11    34    1
    39    11    35    1
    40    16    36    1
    41    17    37    1
    42    20    38    1
    43    21    39    1
    44    22    40    1
    45    24    41    1
    46    25    42    1
    47    26    43    1
    48    26    44    1
    49    27    45    1
