@<TRIPOS>MOLECULE
*****
 16 15 0 0 0
SMALL
GASTEIGER

@<TRIPOS>ATOM
      1 C          -1.9373   -0.3774   -0.3036 C.3     1  UNL1       -0.0653
      2 C          -1.1936    0.7549    0.3601 C.3     1  UNL1       -0.0555
      3 C           0.2728    0.7471   -0.0753 C.3     1  UNL1       -0.0469
      4 C           0.9644   -0.5442    0.2977 C.3     1  UNL1        0.0028
      5 C           2.3887   -0.5034   -0.1436 C.2     1  UNL1        0.1203
      6 O           3.0189   -0.6634   -1.1728 O.2     1  UNL1       -0.3010
      7 H          -1.5343   -0.5860   -1.3183 H       1  UNL1        0.0230
      8 H          -1.9376   -1.2925    0.3031 H       1  UNL1        0.0230
      9 H          -3.0092   -0.0345   -0.3481 H       1  UNL1        0.0230
     10 H          -1.2668    0.6348    1.4441 H       1  UNL1        0.0263
     11 H          -1.6009    1.7569    0.1122 H       1  UNL1        0.0263
     12 H           0.8089    1.6023    0.3801 H       1  UNL1        0.0269
     13 H           0.3368    0.8611   -1.1739 H       1  UNL1        0.0269
     14 H           0.9924   -0.6554    1.3991 H       1  UNL1        0.0339
     15 H           0.4627   -1.4213   -0.1438 H       1  UNL1        0.0339
     16 H           3.2342   -0.2791    0.5371 H       1  UNL1        0.1026
@<TRIPOS>BOND
     1     1     2    1
     2     2     3    1
     3     3     4    1
     4     4     5    1
     5     5     6    2
     6     1     7    1
     7     1     8    1
     8     1     9    1
     9     2    10    1
    10     2    11    1
    11     3    12    1
    12     3    13    1
    13     4    14    1
    14     4    15    1
    15     5    16    1
