
     RDKit          3D

 16 15  0  0  0  0  0  0  0  0999 V2000
   -1.9373   -0.3774   -0.3036 C   0  0  0  0  0  0  0  0  0  0  0  0
   -1.1936    0.7549    0.3601 C   0  0  0  0  0  0  0  0  0  0  0  0
    0.2728    0.7471   -0.0753 C   0  0  0  0  0  0  0  0  0  0  0  0
    0.9644   -0.5442    0.2977 C   0  0  0  0  0  0  0  0  0  0  0  0
    2.3887   -0.5034   -0.1436 C   0  0  0  0  0  0  0  0  0  0  0  0
    3.0189   -0.6634   -1.1728 O   0  0  0  0  0  0  0  0  0  0  0  0
   -1.5343   -0.5860   -1.3183 H   0  0  0  0  0  0  0  0  0  0  0  0
   -1.9376   -1.2925    0.3031 H   0  0  0  0  0  0  0  0  0  0  0  0
   -3.0092   -0.0345   -0.3481 H   0  0  0  0  0  0  0  0  0  0  0  0
   -1.2668    0.6348    1.4441 H   0  0  0  0  0  0  0  0  0  0  0  0
   -1.6009    1.7569    0.1122 H   0  0  0  0  0  0  0  0  0  0  0  0
    0.8089    1.6023    0.3801 H   0  0  0  0  0  0  0  0  0  0  0  0
    0.3368    0.8611   -1.1739 H   0  0  0  0  0  0  0  0  0  0  0  0
    0.9924   -0.6554    1.3991 H   0  0  0  0  0  0  0  0  0  0  0  0
    0.4627   -1.4213   -0.1438 H   0  0  0  0  0  0  0  0  0  0  0  0
    3.2342   -0.2791    0.5371 H   0  0  0  0  0  0  0  0  0  0  0  0
  1  2  1  0
  2  3  1  0
  3  4  1  0
  4  5  1  0
  5  6  2  0
  1  7  1  0
  1  8  1  0
  1  9  1  0
  2 10  1  0
  2 11  1  0
  3 12  1  0
  3 13  1  0
  4 14  1  0
  4 15  1  0
  5 16  1  0
M  END
$$$$
