
     RDKit          3D

113118  0  0  0  0  0  0  0  0999 V2000
    5.4017   -1.3904   -1.7064 C   0  0  0  0  0  0  0  0  0  0  0  0
    6.3515   -0.7913   -0.8836 O   0  0  0  0  0  0  0  0  0  0  0  0
    6.1341    0.3367   -0.1138 C   0  0  0  0  0  0  0  0  0  0  0  0
    4.8573    0.9157   -0.1477 C   0  0  0  0  0  0  0  0  0  0  0  0
    4.5344    2.0321    0.5810 C   0  0  0  0  0  0  0  0  0  0  0  0
    3.2502    2.6281    0.5644 N   0  0  0  0  0  0  0  0  0  0  0  0
    2.2818    2.4074   -0.4383 C   0  0  0  0  0  0  0  0  0  0  0  0
    1.5270    1.2581   -0.5713 C   0  0  0  0  0  0  0  0  0  0  0  0
    0.5675    1.0627   -1.5433 C   0  0  0  0  0  0  0  0  0  0  0  0
   -0.1710   -0.0982   -1.6554 O   0  0  0  0  0  0  0  0  0  0  0  0
   -1.3431   -0.2449   -0.9387 C   0  0  0  0  0  0  0  0  0  0  0  0
   -1.8714    0.6812   -0.0725 C   0  0  0  0  0  0  0  0  0  0  0  0
   -3.0563    0.4861    0.6291 C   0  0  0  0  0  0  0  0  0  0  0  0
   -3.7628   -0.6650    0.4814 C   0  0  0  0  0  0  0  0  0  0  0  0
   -4.9708   -0.8930    1.1877 N   0  0  0  0  0  0  0  0  0  0  0  0
   -6.2484   -0.5234    0.6828 C   0  0  0  0  0  0  0  0  0  0  0  0
   -6.2559    0.0534   -0.4573 O   0  0  0  0  0  0  0  0  0  0  0  0
   -7.4440   -0.7810    1.3982 N   0  0  0  0  0  0  0  0  0  0  0  0
   -8.6784   -0.3818    0.8214 C   0  0  0  0  0  0  0  0  0  0  0  0
   -9.2754    0.8227    1.1104 C   0  0  0  0  0  0  0  0  0  0  0  0
  -10.4564    1.2072    0.5277 C   0  0  0  0  0  0  0  0  0  0  0  0
  -11.0758    2.4910    0.8701 C   0  0  0  0  0  0  0  0  0  0  0  0
  -12.3475    2.7659    0.1062 C   0  0  0  0  0  0  0  0  0  0  0  0
  -10.1454    3.6627    0.6881 C   0  0  0  0  0  0  0  0  0  0  0  0
  -11.4763    2.4426    2.3441 C   0  0  0  0  0  0  0  0  0  0  0  0
  -11.0445    0.3388   -0.3764 C   0  0  0  0  0  0  0  0  0  0  0  0
  -10.4698   -0.8729   -0.6847 C   0  0  0  0  0  0  0  0  0  0  0  0
  -11.0399   -1.7727   -1.5966 N   0  0  0  0  0  0  0  0  0  0  0  0
  -12.0250   -1.3809   -2.9325 S   0  0  0  0  0  6  0  0  0  0  0  0
  -13.5125   -0.5891   -2.4296 C   0  0  0  0  0  0  0  0  0  0  0  0
  -12.4254   -2.6573   -3.6488 O   0  0  0  0  0  0  0  0  0  0  0  0
  -11.2338   -0.5188   -3.8892 O   0  0  0  0  0  0  0  0  0  0  0  0
   -9.2649   -1.2296   -0.0678 C   0  0  0  0  0  0  0  0  0  0  0  0
   -8.6772   -2.4553   -0.3746 O   0  0  0  0  0  0  0  0  0  0  0  0
   -8.9309   -3.6407    0.3150 C   0  0  0  0  0  0  0  0  0  0  0  0
   -3.2574   -1.6247   -0.3885 C   0  0  0  0  0  0  0  0  0  0  0  0
   -3.9830   -2.8058   -0.5425 C   0  0  0  0  0  0  0  0  0  0  0  0
   -3.5079   -3.7590   -1.3914 C   0  0  0  0  0  0  0  0  0  0  0  0
   -2.3312   -3.5516   -2.0804 C   0  0  0  0  0  0  0  0  0  0  0  0
   -1.5973   -2.3894   -1.9419 C   0  0  0  0  0  0  0  0  0  0  0  0
   -2.0862   -1.4269   -1.0788 C   0  0  0  0  0  0  0  0  0  0  0  0
    0.3651    2.1130   -2.4395 C   0  0  0  0  0  0  0  0  0  0  0  0
    1.1193    3.2614   -2.3077 C   0  0  0  0  0  0  0  0  0  0  0  0
    2.0405    3.4005   -1.3447 N   0  0  0  0  0  0  0  0  0  0  0  0
    5.5430    2.5707    1.3623 C   0  0  0  0  0  0  0  0  0  0  0  0
    6.7923    2.0034    1.3931 C   0  0  0  0  0  0  0  0  0  0  0  0
    7.1371    0.8596    0.6530 C   0  0  0  0  0  0  0  0  0  0  0  0
    8.4856    0.3378    0.7658 C   0  0  0  0  0  0  0  0  0  0  0  0
    9.3236    0.9659    1.5206 O   0  0  0  0  0  0  0  0  0  0  0  0
    8.9527   -0.8037    0.1085 N   0  0  0  0  0  0  0  0  0  0  0  0
   10.3537   -1.2685    0.2591 C   0  0  0  0  0  0  0  0  0  0  0  0
   11.3186   -0.2534   -0.2496 C   0  0  0  0  0  0  0  0  0  0  0  0
   12.6662   -0.6844   -0.1179 N   0  0  0  0  0  0  0  0  0  0  0  0
   13.5174    0.2857   -0.7975 C   0  0  0  0  0  0  0  0  0  0  0  0
   14.2966    1.1419    0.1385 C   0  0  0  0  0  0  0  0  0  0  0  0
   15.0975    0.4138    0.9810 O   0  0  0  0  0  0  0  0  0  0  0  0
   14.6425   -0.8494    1.2485 C   0  0  0  0  0  0  0  0  0  0  0  0
   13.1039   -0.9497    1.2071 C   0  0  0  0  0  0  0  0  0  0  0  0
   12.5202   -0.0586    2.2798 C   0  0  0  0  0  0  0  0  0  0  0  0
   12.7869   -2.3812    1.5707 C   0  0  0  0  0  0  0  0  0  0  0  0
    5.7740   -2.2455   -2.2738 H   0  0  0  0  0  0  0  0  0  0  0  0
    4.5324   -1.6760   -1.0428 H   0  0  0  0  0  0  0  0  0  0  0  0
    4.9743   -0.5907   -2.3812 H   0  0  0  0  0  0  0  0  0  0  0  0
    4.0720    0.4810   -0.7687 H   0  0  0  0  0  0  0  0  0  0  0  0
    2.9815    3.2869    1.3500 H   0  0  0  0  0  0  0  0  0  0  0  0
    1.6950    0.4490    0.1313 H   0  0  0  0  0  0  0  0  0  0  0  0
   -1.2994    1.6044    0.0447 H   0  0  0  0  0  0  0  0  0  0  0  0
   -3.4180    1.2587    1.2990 H   0  0  0  0  0  0  0  0  0  0  0  0
   -4.8960   -1.3574    2.1251 H   0  0  0  0  0  0  0  0  0  0  0  0
   -7.4476   -1.2453    2.3180 H   0  0  0  0  0  0  0  0  0  0  0  0
   -8.7867    1.4676    1.8167 H   0  0  0  0  0  0  0  0  0  0  0  0
  -12.1112    3.0109   -0.9392 H   0  0  0  0  0  0  0  0  0  0  0  0
  -13.1236    2.0081    0.2306 H   0  0  0  0  0  0  0  0  0  0  0  0
  -12.7668    3.7106    0.5542 H   0  0  0  0  0  0  0  0  0  0  0  0
  -10.7470    4.6022    0.5482 H   0  0  0  0  0  0  0  0  0  0  0  0
   -9.5197    3.5510   -0.2078 H   0  0  0  0  0  0  0  0  0  0  0  0
   -9.5105    3.8299    1.5909 H   0  0  0  0  0  0  0  0  0  0  0  0
  -10.5953    2.4836    2.9925 H   0  0  0  0  0  0  0  0  0  0  0  0
  -12.2611    3.1842    2.5830 H   0  0  0  0  0  0  0  0  0  0  0  0
  -11.9610    1.4414    2.4885 H   0  0  0  0  0  0  0  0  0  0  0  0
  -11.9629    0.6178   -0.8422 H   0  0  0  0  0  0  0  0  0  0  0  0
  -10.8191   -2.8067   -1.4061 H   0  0  0  0  0  0  0  0  0  0  0  0
  -14.3738   -0.9374   -3.0750 H   0  0  0  0  0  0  0  0  0  0  0  0
  -13.5114    0.5139   -2.5750 H   0  0  0  0  0  0  0  0  0  0  0  0
  -13.7438   -0.8436   -1.3836 H   0  0  0  0  0  0  0  0  0  0  0  0
   -7.9416   -4.0734    0.6387 H   0  0  0  0  0  0  0  0  0  0  0  0
   -9.4079   -4.4223   -0.3146 H   0  0  0  0  0  0  0  0  0  0  0  0
   -9.5538   -3.5218    1.2224 H   0  0  0  0  0  0  0  0  0  0  0  0
   -4.8924   -2.9248    0.0125 H   0  0  0  0  0  0  0  0  0  0  0  0
   -4.0392   -4.6988   -1.5460 H   0  0  0  0  0  0  0  0  0  0  0  0
   -1.9277   -4.3102   -2.7727 H   0  0  0  0  0  0  0  0  0  0  0  0
   -0.6748   -2.2114   -2.4724 H   0  0  0  0  0  0  0  0  0  0  0  0
   -0.3784    1.9861   -3.2064 H   0  0  0  0  0  0  0  0  0  0  0  0
    0.9639    4.0658   -2.9929 H   0  0  0  0  0  0  0  0  0  0  0  0
    5.3070    3.4619    1.9519 H   0  0  0  0  0  0  0  0  0  0  0  0
    7.5833    2.4366    2.0138 H   0  0  0  0  0  0  0  0  0  0  0  0
    8.3301   -1.3614   -0.5006 H   0  0  0  0  0  0  0  0  0  0  0  0
   10.4450   -2.1587   -0.4256 H   0  0  0  0  0  0  0  0  0  0  0  0
   10.4395   -1.5651    1.2967 H   0  0  0  0  0  0  0  0  0  0  0  0
   11.1581    0.7835    0.1297 H   0  0  0  0  0  0  0  0  0  0  0  0
   11.0609   -0.1404   -1.3617 H   0  0  0  0  0  0  0  0  0  0  0  0
   14.2074   -0.2935   -1.4447 H   0  0  0  0  0  0  0  0  0  0  0  0
   12.9056    0.9025   -1.4981 H   0  0  0  0  0  0  0  0  0  0  0  0
   13.7013    1.9309    0.6435 H   0  0  0  0  0  0  0  0  0  0  0  0
   15.0138    1.7349   -0.5124 H   0  0  0  0  0  0  0  0  0  0  0  0
   15.0094   -1.2714    2.2020 H   0  0  0  0  0  0  0  0  0  0  0  0
   14.9962   -1.5341    0.4403 H   0  0  0  0  0  0  0  0  0  0  0  0
   11.8129   -0.6041    2.9609 H   0  0  0  0  0  0  0  0  0  0  0  0
   13.3703    0.2099    2.9885 H   0  0  0  0  0  0  0  0  0  0  0  0
   12.0099    0.8326    1.9225 H   0  0  0  0  0  0  0  0  0  0  0  0
   12.3026   -2.9590    0.7760 H   0  0  0  0  0  0  0  0  0  0  0  0
   12.2619   -2.4212    2.5492 H   0  0  0  0  0  0  0  0  0  0  0  0
   13.7600   -2.9254    1.7719 H   0  0  0  0  0  0  0  0  0  0  0  0
  1  2  1  0
  2  3  1  0
  3  4  2  0
  4  5  1  0
  5  6  1  0
  6  7  1  0
  7  8  2  0
  8  9  1  0
  9 10  1  0
 10 11  1  0
 11 12  2  0
 12 13  1  0
 13 14  2  0
 14 15  1  0
 15 16  1  0
 16 17  2  0
 16 18  1  0
 18 19  1  0
 19 20  2  0
 20 21  1  0
 21 22  1  0
 22 23  1  0
 22 24  1  0
 22 25  1  0
 21 26  2  0
 26 27  1  0
 27 28  1  0
 28 29  1  0
 29 30  1  0
 29 31  2  0
 29 32  2  0
 27 33  2  0
 33 34  1  0
 34 35  1  0
 14 36  1  0
 36 37  2  0
 37 38  1  0
 38 39  2  0
 39 40  1  0
 40 41  2  0
  9 42  2  0
 42 43  1  0
 43 44  2  0
  5 45  2  0
 45 46  1  0
 46 47  2  0
 47 48  1  0
 48 49  2  0
 48 50  1  0
 50 51  1  0
 51 52  1  0
 52 53  1  0
 53 54  1  0
 54 55  1  0
 55 56  1  0
 56 57  1  0
 57 58  1  0
 58 59  1  0
 58 60  1  0
 47  3  1  0
 58 53  1  0
 44  7  1  0
 41 11  1  0
 33 19  1  0
 41 36  1  0
  1 61  1  0
  1 62  1  0
  1 63  1  0
  4 64  1  0
  6 65  1  0
  8 66  1  0
 12 67  1  0
 13 68  1  0
 15 69  1  0
 18 70  1  0
 20 71  1  0
 23 72  1  0
 23 73  1  0
 23 74  1  0
 24 75  1  0
 24 76  1  0
 24 77  1  0
 25 78  1  0
 25 79  1  0
 25 80  1  0
 26 81  1  0
 28 82  1  0
 30 83  1  0
 30 84  1  0
 30 85  1  0
 35 86  1  0
 35 87  1  0
 35 88  1  0
 37 89  1  0
 38 90  1  0
 39 91  1  0
 40 92  1  0
 42 93  1  0
 43 94  1  0
 45 95  1  0
 46 96  1  0
 50 97  1  0
 51 98  1  0
 51 99  1  0
 52100  1  0
 52101  1  0
 54102  1  0
 54103  1  0
 55104  1  0
 55105  1  0
 57106  1  0
 57107  1  0
 59108  1  0
 59109  1  0
 59110  1  0
 60111  1  0
 60112  1  0
 60113  1  0
M  END
$$$$
