@<TRIPOS>MOLECULE
*****
 113 118 0 0 0
SMALL
GASTEIGER

@<TRIPOS>ATOM
      1 C           5.4017   -1.3904   -1.7064 C.3     1  UNL1        0.0788
      2 O           6.3515   -0.7913   -0.8836 O.3     1  UNL1       -0.4943
      3 C           6.1341    0.3367   -0.1138 C.ar    1  UNL1        0.1339
      4 C           4.8573    0.9157   -0.1477 C.ar    1  UNL1        0.0020
      5 C           4.5344    2.0321    0.5810 C.ar    1  UNL1        0.0359
      6 N           3.2502    2.6281    0.5644 N.pl3   1  UNL1       -0.2992
      7 C           2.2818    2.4074   -0.4383 C.ar    1  UNL1        0.1264
      8 C           1.5270    1.2581   -0.5713 C.ar    1  UNL1        0.0208
      9 C           0.5675    1.0627   -1.5433 C.ar    1  UNL1        0.1332
     10 O          -0.1710   -0.0982   -1.6554 O.3     1  UNL1       -0.4553
     11 C          -1.3431   -0.2449   -0.9387 C.ar    1  UNL1        0.1362
     12 C          -1.8714    0.6812   -0.0725 C.ar    1  UNL1       -0.0170
     13 C          -3.0563    0.4861    0.6291 C.ar    1  UNL1       -0.0364
     14 C          -3.7628   -0.6650    0.4814 C.ar    1  UNL1        0.0427
     15 N          -4.9708   -0.8930    1.1877 N.am    1  UNL1       -0.2686
     16 C          -6.2484   -0.5234    0.6828 C.2     1  UNL1        0.3082
     17 O          -6.2559    0.0534   -0.4573 O.2     1  UNL1       -0.2521
     18 N          -7.4440   -0.7810    1.3982 N.am    1  UNL1       -0.2660
     19 C          -8.6784   -0.3818    0.8214 C.ar    1  UNL1        0.0789
     20 C          -9.2754    0.8227    1.1104 C.ar    1  UNL1       -0.0330
     21 C         -10.4564    1.2072    0.5277 C.ar    1  UNL1       -0.0382
     22 C         -11.0758    2.4910    0.8701 C.3     1  UNL1       -0.0126
     23 C         -12.3475    2.7659    0.1062 C.3     1  UNL1       -0.0560
     24 C         -10.1454    3.6627    0.6881 C.3     1  UNL1       -0.0560
     25 C         -11.4763    2.4426    2.3441 C.3     1  UNL1       -0.0560
     26 C         -11.0445    0.3388   -0.3764 C.ar    1  UNL1       -0.0320
     27 C         -10.4698   -0.8729   -0.6847 C.ar    1  UNL1        0.0913
     28 N         -11.0399   -1.7727   -1.5966 N.pl3   1  UNL1       -0.2173
     29 S         -12.0250   -1.3809   -2.9325 S.O2    1  UNL1        0.0404
     30 C         -13.5125   -0.5891   -2.4296 C.3     1  UNL1        0.0736
     31 O         -12.4254   -2.6573   -3.6488 O.2     1  UNL1       -0.1555
     32 O         -11.2338   -0.5188   -3.8892 O.2     1  UNL1       -0.1555
     33 C          -9.2649   -1.2296   -0.0678 C.ar    1  UNL1        0.1634
     34 O          -8.6772   -2.4553   -0.3746 O.3     1  UNL1       -0.4914
     35 C          -8.9309   -3.6407    0.3150 C.3     1  UNL1        0.0790
     36 C          -3.2574   -1.6247   -0.3885 C.ar    1  UNL1        0.0069
     37 C          -3.9830   -2.8058   -0.5425 C.ar    1  UNL1       -0.0521
     38 C          -3.5079   -3.7590   -1.3914 C.ar    1  UNL1       -0.0611
     39 C          -2.3312   -3.5516   -2.0804 C.ar    1  UNL1       -0.0611
     40 C          -1.5973   -2.3894   -1.9419 C.ar    1  UNL1       -0.0505
     41 C          -2.0862   -1.4269   -1.0788 C.ar    1  UNL1        0.0262
     42 C           0.3651    2.1130   -2.4395 C.ar    1  UNL1       -0.0011
     43 C           1.1193    3.2614   -2.3077 C.ar    1  UNL1        0.0332
     44 N           2.0405    3.4005   -1.3447 N.ar    1  UNL1       -0.2400
     45 C           5.5430    2.5707    1.3623 C.ar    1  UNL1       -0.0396
     46 C           6.7923    2.0034    1.3931 C.ar    1  UNL1       -0.0443
     47 C           7.1371    0.8596    0.6530 C.ar    1  UNL1        0.0783
     48 C           8.4856    0.3378    0.7658 C.2     1  UNL1        0.2476
     49 O           9.3236    0.9659    1.5206 O.2     1  UNL1       -0.2701
     50 N           8.9527   -0.8037    0.1085 N.am    1  UNL1       -0.3100
     51 C          10.3537   -1.2685    0.2591 C.3     1  UNL1        0.0247
     52 C          11.3186   -0.2534   -0.2496 C.3     1  UNL1        0.0151
     53 N          12.6662   -0.6844   -0.1179 N.3     1  UNL1       -0.2914
     54 C          13.5174    0.2857   -0.7975 C.3     1  UNL1        0.0230
     55 C          14.2966    1.1419    0.1385 C.3     1  UNL1        0.0605
     56 O          15.0975    0.4138    0.9810 O.3     1  UNL1       -0.3767
     57 C          14.6425   -0.8494    1.2485 C.3     1  UNL1        0.0656
     58 C          13.1039   -0.9497    1.2071 C.3     1  UNL1        0.0397
     59 C          12.5202   -0.0586    2.2798 C.3     1  UNL1       -0.0447
     60 C          12.7869   -2.3812    1.5707 C.3     1  UNL1       -0.0447
     61 H           5.7740   -2.2455   -2.2738 H       1  UNL1        0.0660
     62 H           4.5324   -1.6760   -1.0428 H       1  UNL1        0.0660
     63 H           4.9743   -0.5907   -2.3812 H       1  UNL1        0.0660
     64 H           4.0720    0.4810   -0.7687 H       1  UNL1        0.0673
     65 H           2.9815    3.2869    1.3500 H       1  UNL1        0.1536
     66 H           1.6950    0.4490    0.1313 H       1  UNL1        0.0689
     67 H          -1.2994    1.6044    0.0447 H       1  UNL1        0.0655
     68 H          -3.4180    1.2587    1.2990 H       1  UNL1        0.0637
     69 H          -4.8960   -1.3574    2.1251 H       1  UNL1        0.1564
     70 H          -7.4476   -1.2453    2.3180 H       1  UNL1        0.1565
     71 H          -8.7867    1.4676    1.8167 H       1  UNL1        0.0640
     72 H         -12.1112    3.0109   -0.9392 H       1  UNL1        0.0238
     73 H         -13.1236    2.0081    0.2306 H       1  UNL1        0.0238
     74 H         -12.7668    3.7106    0.5542 H       1  UNL1        0.0238
     75 H         -10.7470    4.6022    0.5482 H       1  UNL1        0.0238
     76 H          -9.5197    3.5510   -0.2078 H       1  UNL1        0.0238
     77 H          -9.5105    3.8299    1.5909 H       1  UNL1        0.0238
     78 H         -10.5953    2.4836    2.9925 H       1  UNL1        0.0238
     79 H         -12.2611    3.1842    2.5830 H       1  UNL1        0.0238
     80 H         -11.9610    1.4414    2.4885 H       1  UNL1        0.0238
     81 H         -11.9629    0.6178   -0.8422 H       1  UNL1        0.0641
     82 H         -10.8191   -2.8067   -1.4061 H       1  UNL1        0.1734
     83 H         -14.3738   -0.9374   -3.0750 H       1  UNL1        0.0482
     84 H         -13.5114    0.5139   -2.5750 H       1  UNL1        0.0482
     85 H         -13.7438   -0.8436   -1.3836 H       1  UNL1        0.0482
     86 H          -7.9416   -4.0734    0.6387 H       1  UNL1        0.0660
     87 H          -9.4079   -4.4223   -0.3146 H       1  UNL1        0.0660
     88 H          -9.5538   -3.5218    1.2224 H       1  UNL1        0.0660
     89 H          -4.8924   -2.9248    0.0125 H       1  UNL1        0.0624
     90 H          -4.0392   -4.6988   -1.5460 H       1  UNL1        0.0618
     91 H          -1.9277   -4.3102   -2.7727 H       1  UNL1        0.0618
     92 H          -0.6748   -2.2114   -2.4724 H       1  UNL1        0.0625
     93 H          -0.3784    1.9861   -3.2064 H       1  UNL1        0.0669
     94 H           0.9639    4.0658   -2.9929 H       1  UNL1        0.0831
     95 H           5.3070    3.4619    1.9519 H       1  UNL1        0.0636
     96 H           7.5833    2.4366    2.0138 H       1  UNL1        0.0627
     97 H           8.3301   -1.3614   -0.5006 H       1  UNL1        0.1491
     98 H          10.4450   -2.1587   -0.4256 H       1  UNL1        0.0475
     99 H          10.4395   -1.5651    1.2967 H       1  UNL1        0.0475
    100 H          11.1581    0.7835    0.1297 H       1  UNL1        0.0442
    101 H          11.0609   -0.1404   -1.3617 H       1  UNL1        0.0442
    102 H          14.2074   -0.2935   -1.4447 H       1  UNL1        0.0449
    103 H          12.9056    0.9025   -1.4981 H       1  UNL1        0.0449
    104 H          13.7013    1.9309    0.6435 H       1  UNL1        0.0572
    105 H          15.0138    1.7349   -0.5124 H       1  UNL1        0.0572
    106 H          15.0094   -1.2714    2.2020 H       1  UNL1        0.0578
    107 H          14.9962   -1.5341    0.4403 H       1  UNL1        0.0578
    108 H          11.8129   -0.6041    2.9609 H       1  UNL1        0.0248
    109 H          13.3703    0.2099    2.9885 H       1  UNL1        0.0248
    110 H          12.0099    0.8326    1.9225 H       1  UNL1        0.0248
    111 H          12.3026   -2.9590    0.7760 H       1  UNL1        0.0248
    112 H          12.2619   -2.4212    2.5492 H       1  UNL1        0.0248
    113 H          13.7600   -2.9254    1.7719 H       1  UNL1        0.0248
@<TRIPOS>BOND
     1     1     2    1
     2     2     3    1
     3     3     4   ar
     4     4     5   ar
     5     5     6    1
     6     6     7    1
     7     7     8   ar
     8     8     9   ar
     9     9    10    1
    10    10    11    1
    11    11    12   ar
    12    12    13   ar
    13    13    14   ar
    14    14    15    1
    15    15    16   am
    16    16    17    2
    17    16    18   am
    18    18    19    1
    19    19    20   ar
    20    20    21   ar
    21    21    22    1
    22    22    23    1
    23    22    24    1
    24    22    25    1
    25    21    26   ar
    26    26    27   ar
    27    27    28    1
    28    28    29    1
    29    29    30    1
    30    29    31    2
    31    29    32    2
    32    27    33   ar
    33    33    34    1
    34    34    35    1
    35    14    36   ar
    36    36    37   ar
    37    37    38   ar
    38    38    39   ar
    39    39    40   ar
    40    40    41   ar
    41     9    42   ar
    42    42    43   ar
    43    43    44   ar
    44     5    45   ar
    45    45    46   ar
    46    46    47   ar
    47    47    48    1
    48    48    49    2
    49    48    50   am
    50    50    51    1
    51    51    52    1
    52    52    53    1
    53    53    54    1
    54    54    55    1
    55    55    56    1
    56    56    57    1
    57    57    58    1
    58    58    59    1
    59    58    60    1
    60    47     3   ar
    61    58    53    1
    62    44     7   ar
    63    41    11   ar
    64    33    19   ar
    65    41    36   ar
    66     1    61    1
    67     1    62    1
    68     1    63    1
    69     4    64    1
    70     6    65    1
    71     8    66    1
    72    12    67    1
    73    13    68    1
    74    15    69    1
    75    18    70    1
    76    20    71    1
    77    23    72    1
    78    23    73    1
    79    23    74    1
    80    24    75    1
    81    24    76    1
    82    24    77    1
    83    25    78    1
    84    25    79    1
    85    25    80    1
    86    26    81    1
    87    28    82    1
    88    30    83    1
    89    30    84    1
    90    30    85    1
    91    35    86    1
    92    35    87    1
    93    35    88    1
    94    37    89    1
    95    38    90    1
    96    39    91    1
    97    40    92    1
    98    42    93    1
    99    43    94    1
   100    45    95    1
   101    46    96    1
   102    50    97    1
   103    51    98    1
   104    51    99    1
   105    52   100    1
   106    52   101    1
   107    54   102    1
   108    54   103    1
   109    55   104    1
   110    55   105    1
   111    57   106    1
   112    57   107    1
   113    59   108    1
   114    59   109    1
   115    59   110    1
   116    60   111    1
   117    60   112    1
   118    60   113    1
