@<TRIPOS>MOLECULE
*****
 49 51 0 0 0
SMALL
GASTEIGER

@<TRIPOS>ATOM
      1 C           2.9377   -1.2566    0.9554 C.3     1  UNL1       -0.0202
      2 C           3.8166   -0.2984    0.2686 C.2     1  UNL1        0.0669
      3 N           3.2727    0.6891   -0.3341 N.2     1  UNL1       -0.1842
      4 N           1.8847    0.8221   -0.3199 N.am    1  UNL1       -0.2027
      5 C           1.1609    1.7102    0.5153 C.2     1  UNL1        0.2633
      6 O           1.8505    2.4191    1.2919 O.2     1  UNL1       -0.2685
      7 C          -0.2850    1.8334    0.5146 C.ar    1  UNL1        0.0402
      8 C          -0.8733    2.7318    1.3721 C.ar    1  UNL1       -0.0495
      9 C          -2.2303    2.9240    1.4488 C.ar    1  UNL1       -0.0592
     10 C          -3.0265    2.1675    0.6148 C.ar    1  UNL1       -0.0353
     11 C          -2.4876    1.2485   -0.2678 C.ar    1  UNL1        0.1062
     12 S          -3.5492    0.3445   -1.2726 S.O2    1  UNL1        0.0610
     13 O          -2.8965    0.0721   -2.6083 O.2     1  UNL1       -0.1528
     14 O          -4.7736    1.1680   -1.5502 O.2     1  UNL1       -0.1528
     15 N          -4.0549   -1.1417   -0.5716 N.3     1  UNL1       -0.1722
     16 C          -4.7744   -0.7987    0.6424 C.3     1  UNL1        0.0440
     17 C          -6.1110   -0.1571    0.3570 C.3     1  UNL1        0.0621
     18 O          -6.6442   -0.5577   -0.8682 O.3     1  UNL1       -0.3771
     19 C          -6.2731   -1.8732   -1.0721 C.3     1  UNL1        0.0621
     20 C          -4.8360   -1.9254   -1.4890 C.3     1  UNL1        0.0440
     21 C          -1.1061    1.0923   -0.3061 C.ar    1  UNL1       -0.0232
     22 C           5.2541   -0.4987    0.2945 C.ar    1  UNL1        0.0402
     23 C           5.8138   -1.5589    0.9434 C.ar    1  UNL1       -0.0310
     24 C           7.1708   -1.7464    0.9668 C.ar    1  UNL1        0.0418
     25 CL          7.8693   -3.1165    1.8071 Cl      1  UNL1       -0.0835
     26 C           8.0429   -0.8815    0.3410 C.ar    1  UNL1       -0.0399
     27 C           7.4843    0.1945   -0.3181 C.ar    1  UNL1       -0.0182
     28 C           6.1214    0.3839   -0.3423 C.ar    1  UNL1        0.1258
     29 O           5.6319    1.4828   -1.0214 O.3     1  UNL1       -0.5061
     30 H           3.2814   -2.2894    0.6669 H       1  UNL1        0.0293
     31 H           3.0737   -1.2300    2.0723 H       1  UNL1        0.0293
     32 H           1.8815   -1.1969    0.6606 H       1  UNL1        0.0293
     33 H           1.3253    0.2285   -0.9687 H       1  UNL1        0.1776
     34 H          -0.2370    3.3177    2.0197 H       1  UNL1        0.0625
     35 H          -2.6394    3.6364    2.1338 H       1  UNL1        0.0618
     36 H          -4.1142    2.2935    0.6470 H       1  UNL1        0.0637
     37 H          -4.1602   -0.0442    1.1759 H       1  UNL1        0.0466
     38 H          -4.8604   -1.6641    1.3311 H       1  UNL1        0.0466
     39 H          -6.8268   -0.5290    1.1390 H       1  UNL1        0.0573
     40 H          -6.0903    0.9446    0.4735 H       1  UNL1        0.0573
     41 H          -6.9571   -2.3635   -1.8052 H       1  UNL1        0.0573
     42 H          -6.3742   -2.4410   -0.1212 H       1  UNL1        0.0573
     43 H          -4.4451   -2.9648   -1.4812 H       1  UNL1        0.0466
     44 H          -4.7149   -1.4926   -2.5063 H       1  UNL1        0.0466
     45 H          -0.7125    0.3825   -0.9898 H       1  UNL1        0.0644
     46 H           5.2119   -2.3019    1.4702 H       1  UNL1        0.0640
     47 H           9.0998   -1.0336    0.3632 H       1  UNL1        0.0633
     48 H           8.1725    0.8698   -0.8071 H       1  UNL1        0.0655
     49 H           5.6962    2.4049   -0.6449 H       1  UNL1        0.2922
@<TRIPOS>BOND
     1     1     2    1
     2     2     3    2
     3     3     4    1
     4     4     5   am
     5     5     6    2
     6     5     7    1
     7     7     8   ar
     8     8     9   ar
     9     9    10   ar
    10    10    11   ar
    11    11    12    1
    12    12    13    2
    13    12    14    2
    14    12    15    1
    15    15    16    1
    16    16    17    1
    17    17    18    1
    18    18    19    1
    19    19    20    1
    20    11    21   ar
    21     2    22    1
    22    22    23   ar
    23    23    24   ar
    24    24    25    1
    25    24    26   ar
    26    26    27   ar
    27    27    28   ar
    28    28    29    1
    29    21     7   ar
    30    28    22   ar
    31    20    15    1
    32     1    30    1
    33     1    31    1
    34     1    32    1
    35     4    33    1
    36     8    34    1
    37     9    35    1
    38    10    36    1
    39    16    37    1
    40    16    38    1
    41    17    39    1
    42    17    40    1
    43    19    41    1
    44    19    42    1
    45    20    43    1
    46    20    44    1
    47    21    45    1
    48    23    46    1
    49    26    47    1
    50    27    48    1
    51    29    49    1
