@<TRIPOS>MOLECULE
*****
 57 59 0 0 0
SMALL
GASTEIGER

@<TRIPOS>ATOM
      1 C           0.8928    0.9625   -3.7263 C.3     1  UNL1        0.0122
      2 C           0.4172    0.0652   -2.6454 C.2     1  UNL1        0.2107
      3 O           0.1308   -1.1255   -2.9064 O.2     1  UNL1       -0.2761
      4 N           0.2912    0.5668   -1.3220 N.am    1  UNL1       -0.2999
      5 C          -0.1611   -0.2503   -0.2415 C.3     1  UNL1        0.1519
      6 C           0.8241   -0.3322    0.8972 C.3     1  UNL1        0.0043
      7 C           2.1238   -0.8864    0.5219 C.ar    1  UNL1       -0.0447
      8 C           3.0974    0.0147    0.0898 C.ar    1  UNL1       -0.0551
      9 C           4.3525   -0.3551   -0.2918 C.ar    1  UNL1       -0.0194
     10 C           4.7022   -1.6819   -0.2578 C.ar    1  UNL1        0.1420
     11 N           6.0199   -2.0713   -0.6585 N.pl3   1  UNL1       -0.0734
     12 C           7.0146   -1.4160   -0.1636 C.cat   1  UNL1        0.3821
     13 N           6.8851   -0.3420    0.7457 N.pl3   1  UNL1       -0.2889
     14 N           8.3220   -1.7987   -0.5577 N.pl3   1  UNL1       -0.2889
     15 C           3.7625   -2.5988    0.1646 C.ar    1  UNL1       -0.0194
     16 C           2.4756   -2.2103    0.5548 C.ar    1  UNL1       -0.0551
     17 P          -1.7156    0.4048    0.4816 P.3     1  UNL1        0.4539
     18 O          -1.8088   -0.0748    1.9323 O.2     1  UNL1       -0.2304
     19 O          -1.5921    2.1042    0.5234 O.3     1  UNL1       -0.4144
     20 C          -2.6140    2.9854    0.6988 C.ar    1  UNL1        0.1309
     21 C          -3.5773    2.7583    1.6478 C.ar    1  UNL1       -0.0194
     22 C          -4.6079    3.6645    1.8119 C.ar    1  UNL1       -0.0583
     23 C          -4.6526    4.7952    1.0105 C.ar    1  UNL1       -0.0615
     24 C          -3.6964    5.0367    0.0565 C.ar    1  UNL1       -0.0583
     25 C          -2.6933    4.1172   -0.0754 C.ar    1  UNL1       -0.0194
     26 O          -3.0784   -0.1537   -0.3514 O.3     1  UNL1       -0.4144
     27 C          -3.7743   -1.2527    0.1011 C.ar    1  UNL1        0.1309
     28 C          -3.4806   -2.5054   -0.3565 C.ar    1  UNL1       -0.0194
     29 C          -4.1738   -3.6343    0.0892 C.ar    1  UNL1       -0.0583
     30 C          -5.1668   -3.4736    1.0037 C.ar    1  UNL1       -0.0615
     31 C          -5.4948   -2.2085    1.4939 C.ar    1  UNL1       -0.0583
     32 C          -4.7790   -1.1016    1.0244 C.ar    1  UNL1       -0.0194
     33 H           0.2001    1.8236   -3.8833 H       1  UNL1        0.0322
     34 H           0.9364    0.4221   -4.6930 H       1  UNL1        0.0322
     35 H           1.9280    1.3185   -3.5278 H       1  UNL1        0.0322
     36 H           0.5447    1.5661   -1.1657 H       1  UNL1        0.1496
     37 H          -0.3874   -1.2799   -0.5849 H       1  UNL1        0.0651
     38 H           0.3676   -1.0164    1.6597 H       1  UNL1        0.0338
     39 H           0.9573    0.6559    1.3888 H       1  UNL1        0.0338
     40 H           2.8607    1.0878    0.0467 H       1  UNL1        0.0621
     41 H           5.0837    0.3963   -0.6249 H       1  UNL1        0.0653
     42 H           7.4027    0.5500    0.5760 H       1  UNL1        0.2547
     43 H           6.2726   -0.4215    1.5990 H       1  UNL1        0.2547
     44 H           8.8518   -1.1283   -1.1652 H       1  UNL1        0.2547
     45 H           8.7895   -2.6768   -0.2968 H       1  UNL1        0.2547
     46 H           4.0046   -3.6599    0.2044 H       1  UNL1        0.0653
     47 H           1.7385   -2.9163    0.8845 H       1  UNL1        0.0621
     48 H          -3.5495    1.8622    2.2891 H       1  UNL1        0.0654
     49 H          -5.3674    3.4729    2.5696 H       1  UNL1        0.0619
     50 H          -5.4608    5.5093    1.1368 H       1  UNL1        0.0618
     51 H          -3.7280    5.9111   -0.5653 H       1  UNL1        0.0619
     52 H          -1.9404    4.3332   -0.8454 H       1  UNL1        0.0654
     53 H          -2.7025   -2.6583   -1.0773 H       1  UNL1        0.0654
     54 H          -3.9359   -4.6159   -0.2764 H       1  UNL1        0.0619
     55 H          -5.7565   -4.2997    1.4040 H       1  UNL1        0.0618
     56 H          -6.2766   -2.0911    2.2122 H       1  UNL1        0.0619
     57 H          -5.0778   -0.1472    1.4400 H       1  UNL1        0.0654
@<TRIPOS>BOND
     1     1     2    1
     2     2     3    2
     3     2     4   am
     4     4     5    1
     5     5     6    1
     6     6     7    1
     7     7     8   ar
     8     8     9   ar
     9     9    10   ar
    10    10    11    1
    11    11    12    2
    12    12    13    1
    13    12    14    1
    14    10    15   ar
    15    15    16   ar
    16     5    17    1
    17    17    18    2
    18    17    19    1
    19    19    20    1
    20    20    21   ar
    21    21    22   ar
    22    22    23   ar
    23    23    24   ar
    24    24    25   ar
    25    17    26    1
    26    26    27    1
    27    27    28   ar
    28    28    29   ar
    29    29    30   ar
    30    30    31   ar
    31    31    32   ar
    32    16     7   ar
    33    25    20   ar
    34    32    27   ar
    35     1    33    1
    36     1    34    1
    37     1    35    1
    38     4    36    1
    39     5    37    1
    40     6    38    1
    41     6    39    1
    42     8    40    1
    43     9    41    1
    44    13    42    1
    45    13    43    1
    46    14    44    1
    47    14    45    1
    48    15    46    1
    49    16    47    1
    50    21    48    1
    51    22    49    1
    52    23    50    1
    53    24    51    1
    54    25    52    1
    55    28    53    1
    56    29    54    1
    57    30    55    1
    58    31    56    1
    59    32    57    1
