
     RDKit          3D

 57 59  0  0  0  0  0  0  0  0999 V2000
    0.8928    0.9625   -3.7263 C   0  0  0  0  0  0  0  0  0  0  0  0
    0.4172    0.0652   -2.6454 C   0  0  0  0  0  0  0  0  0  0  0  0
    0.1308   -1.1255   -2.9064 O   0  0  0  0  0  0  0  0  0  0  0  0
    0.2912    0.5668   -1.3220 N   0  0  0  0  0  0  0  0  0  0  0  0
   -0.1611   -0.2503   -0.2415 C   0  0  0  0  0  0  0  0  0  0  0  0
    0.8241   -0.3322    0.8972 C   0  0  0  0  0  0  0  0  0  0  0  0
    2.1238   -0.8864    0.5219 C   0  0  0  0  0  0  0  0  0  0  0  0
    3.0974    0.0147    0.0898 C   0  0  0  0  0  0  0  0  0  0  0  0
    4.3525   -0.3551   -0.2918 C   0  0  0  0  0  0  0  0  0  0  0  0
    4.7022   -1.6819   -0.2578 C   0  0  0  0  0  0  0  0  0  0  0  0
    6.0199   -2.0713   -0.6585 N   0  0  0  0  0  0  0  0  0  0  0  0
    7.0146   -1.4160   -0.1636 C   0  0  0  0  0  0  0  0  0  0  0  0
    6.8851   -0.3420    0.7457 N   0  0  0  0  0  0  0  0  0  0  0  0
    8.3220   -1.7987   -0.5577 N   0  0  0  0  0  0  0  0  0  0  0  0
    3.7625   -2.5988    0.1646 C   0  0  0  0  0  0  0  0  0  0  0  0
    2.4756   -2.2103    0.5548 C   0  0  0  0  0  0  0  0  0  0  0  0
   -1.7156    0.4048    0.4816 P   0  0  0  0  0  5  0  0  0  0  0  0
   -1.8088   -0.0748    1.9323 O   0  0  0  0  0  0  0  0  0  0  0  0
   -1.5921    2.1042    0.5234 O   0  0  0  0  0  0  0  0  0  0  0  0
   -2.6140    2.9854    0.6988 C   0  0  0  0  0  0  0  0  0  0  0  0
   -3.5773    2.7583    1.6478 C   0  0  0  0  0  0  0  0  0  0  0  0
   -4.6079    3.6645    1.8119 C   0  0  0  0  0  0  0  0  0  0  0  0
   -4.6526    4.7952    1.0105 C   0  0  0  0  0  0  0  0  0  0  0  0
   -3.6964    5.0367    0.0565 C   0  0  0  0  0  0  0  0  0  0  0  0
   -2.6933    4.1172   -0.0754 C   0  0  0  0  0  0  0  0  0  0  0  0
   -3.0784   -0.1537   -0.3514 O   0  0  0  0  0  0  0  0  0  0  0  0
   -3.7743   -1.2527    0.1011 C   0  0  0  0  0  0  0  0  0  0  0  0
   -3.4806   -2.5054   -0.3565 C   0  0  0  0  0  0  0  0  0  0  0  0
   -4.1738   -3.6343    0.0892 C   0  0  0  0  0  0  0  0  0  0  0  0
   -5.1668   -3.4736    1.0037 C   0  0  0  0  0  0  0  0  0  0  0  0
   -5.4948   -2.2085    1.4939 C   0  0  0  0  0  0  0  0  0  0  0  0
   -4.7790   -1.1016    1.0244 C   0  0  0  0  0  0  0  0  0  0  0  0
    0.2001    1.8236   -3.8833 H   0  0  0  0  0  0  0  0  0  0  0  0
    0.9364    0.4221   -4.6930 H   0  0  0  0  0  0  0  0  0  0  0  0
    1.9280    1.3185   -3.5278 H   0  0  0  0  0  0  0  0  0  0  0  0
    0.5447    1.5661   -1.1657 H   0  0  0  0  0  0  0  0  0  0  0  0
   -0.3874   -1.2799   -0.5849 H   0  0  0  0  0  0  0  0  0  0  0  0
    0.3676   -1.0164    1.6597 H   0  0  0  0  0  0  0  0  0  0  0  0
    0.9573    0.6559    1.3888 H   0  0  0  0  0  0  0  0  0  0  0  0
    2.8607    1.0878    0.0467 H   0  0  0  0  0  0  0  0  0  0  0  0
    5.0837    0.3963   -0.6249 H   0  0  0  0  0  0  0  0  0  0  0  0
    7.4027    0.5500    0.5760 H   0  0  0  0  0  0  0  0  0  0  0  0
    6.2726   -0.4215    1.5990 H   0  0  0  0  0  0  0  0  0  0  0  0
    8.8518   -1.1283   -1.1652 H   0  0  0  0  0  0  0  0  0  0  0  0
    8.7895   -2.6768   -0.2968 H   0  0  0  0  0  0  0  0  0  0  0  0
    4.0046   -3.6599    0.2044 H   0  0  0  0  0  0  0  0  0  0  0  0
    1.7385   -2.9163    0.8845 H   0  0  0  0  0  0  0  0  0  0  0  0
   -3.5495    1.8622    2.2891 H   0  0  0  0  0  0  0  0  0  0  0  0
   -5.3674    3.4729    2.5696 H   0  0  0  0  0  0  0  0  0  0  0  0
   -5.4608    5.5093    1.1368 H   0  0  0  0  0  0  0  0  0  0  0  0
   -3.7280    5.9111   -0.5653 H   0  0  0  0  0  0  0  0  0  0  0  0
   -1.9404    4.3332   -0.8454 H   0  0  0  0  0  0  0  0  0  0  0  0
   -2.7025   -2.6583   -1.0773 H   0  0  0  0  0  0  0  0  0  0  0  0
   -3.9359   -4.6159   -0.2764 H   0  0  0  0  0  0  0  0  0  0  0  0
   -5.7565   -4.2997    1.4040 H   0  0  0  0  0  0  0  0  0  0  0  0
   -6.2766   -2.0911    2.2122 H   0  0  0  0  0  0  0  0  0  0  0  0
   -5.0778   -0.1472    1.4400 H   0  0  0  0  0  0  0  0  0  0  0  0
  1  2  1  0
  2  3  2  0
  2  4  1  0
  4  5  1  0
  5  6  1  0
  6  7  1  0
  7  8  2  0
  8  9  1  0
  9 10  2  0
 10 11  1  0
 11 12  2  3
 12 13  1  0
 12 14  1  0
 10 15  1  0
 15 16  2  0
  5 17  1  0
 17 18  2  0
 17 19  1  0
 19 20  1  0
 20 21  2  0
 21 22  1  0
 22 23  2  0
 23 24  1  0
 24 25  2  0
 17 26  1  0
 26 27  1  0
 27 28  2  0
 28 29  1  0
 29 30  2  0
 30 31  1  0
 31 32  2  0
 16  7  1  0
 25 20  1  0
 32 27  1  0
  1 33  1  0
  1 34  1  0
  1 35  1  0
  4 36  1  0
  5 37  1  0
  6 38  1  0
  6 39  1  0
  8 40  1  0
  9 41  1  0
 13 42  1  0
 13 43  1  0
 14 44  1  0
 14 45  1  0
 15 46  1  0
 16 47  1  0
 21 48  1  0
 22 49  1  0
 23 50  1  0
 24 51  1  0
 25 52  1  0
 28 53  1  0
 29 54  1  0
 30 55  1  0
 31 56  1  0
 32 57  1  0
M  END
$$$$
