@<TRIPOS>MOLECULE
*****
 49 52 0 0 0
SMALL
GASTEIGER

@<TRIPOS>ATOM
      1 C           2.7875    0.2314   -1.5144 C.3     1  UNL1       -0.0569
      2 C           2.2574   -0.6475   -0.4031 C.3     1  UNL1       -0.0030
      3 C           1.3158   -1.6784   -0.8449 C.3     1  UNL1       -0.0447
      4 C          -0.0329   -1.7230   -0.2417 C.3     1  UNL1       -0.0486
      5 C          -0.6162   -0.4759    0.2757 C.3     1  UNL1       -0.0288
      6 C           0.3591    0.7160    0.1951 C.3     1  UNL1       -0.0337
      7 C          -0.1813    1.9168    0.8912 C.3     1  UNL1       -0.0459
      8 C          -1.5182    1.7447    1.5178 C.3     1  UNL1       -0.0305
      9 C          -2.4765    0.9291    0.7322 C.2     1  UNL1       -0.0601
     10 C          -3.7683    1.1260    0.9351 C.2     1  UNL1       -0.0194
     11 C          -4.6980    0.3243    0.1637 C.2     1  UNL1        0.1561
     12 O          -5.8256    0.7779   -0.1150 O.2     1  UNL1       -0.2927
     13 C          -4.3127   -1.0087   -0.2834 C.3     1  UNL1        0.0107
     14 C          -2.8430   -1.2707   -0.3787 C.3     1  UNL1       -0.0367
     15 C          -1.9658   -0.0850   -0.2590 C.3     1  UNL1       -0.0072
     16 C          -1.8720    0.5935   -1.6061 C.3     1  UNL1       -0.0556
     17 C           1.6233    0.1682    0.7113 C.3     1  UNL1       -0.0301
     18 C           2.7150    1.0729    1.0848 C.3     1  UNL1       -0.0470
     19 C           3.9164    0.1341    1.1037 C.3     1  UNL1       -0.0261
     20 C           3.4806   -1.1364    0.3589 C.3     1  UNL1        0.0609
     21 O           4.4624   -1.3959   -0.5860 O.3     1  UNL1       -0.3912
     22 H           3.5959    0.8566   -1.1093 H       1  UNL1        0.0236
     23 H           2.0228    0.7528   -2.0820 H       1  UNL1        0.0236
     24 H           3.2892   -0.4744   -2.2348 H       1  UNL1        0.0236
     25 H           1.2181   -1.5844   -1.9691 H       1  UNL1        0.0271
     26 H           1.8193   -2.6835   -0.7297 H       1  UNL1        0.0271
     27 H          -0.0260   -2.5422    0.5405 H       1  UNL1        0.0268
     28 H          -0.7361   -2.1475   -1.0196 H       1  UNL1        0.0268
     29 H          -0.7594   -0.6027    1.3928 H       1  UNL1        0.0312
     30 H           0.3760    0.9582   -0.9008 H       1  UNL1        0.0307
     31 H           0.5539    2.1906    1.6887 H       1  UNL1        0.0271
     32 H          -0.2370    2.8153    0.2121 H       1  UNL1        0.0271
     33 H          -1.3629    1.3155    2.5366 H       1  UNL1        0.0310
     34 H          -1.9663    2.7700    1.6562 H       1  UNL1        0.0310
     35 H          -4.0850    1.8689    1.6592 H       1  UNL1        0.0652
     36 H          -4.7728   -1.7448    0.4384 H       1  UNL1        0.0345
     37 H          -4.8640   -1.2121   -1.2471 H       1  UNL1        0.0345
     38 H          -2.6833   -1.7339   -1.3980 H       1  UNL1        0.0278
     39 H          -2.5293   -2.0609    0.3479 H       1  UNL1        0.0278
     40 H          -2.9019    0.6237   -2.0209 H       1  UNL1        0.0238
     41 H          -1.5215    1.6366   -1.5397 H       1  UNL1        0.0238
     42 H          -1.2619   -0.0060   -2.3125 H       1  UNL1        0.0238
     43 H           1.4403   -0.5442    1.5430 H       1  UNL1        0.0310
     44 H           2.8694    1.9505    0.4496 H       1  UNL1        0.0269
     45 H           2.5248    1.4497    2.1300 H       1  UNL1        0.0269
     46 H           4.7993    0.5947    0.6456 H       1  UNL1        0.0290
     47 H           4.0805   -0.1806    2.1548 H       1  UNL1        0.0290
     48 H           3.2687   -1.9617    1.0342 H       1  UNL1        0.0599
     49 H           5.0423   -0.6174   -0.7690 H       1  UNL1        0.2098
@<TRIPOS>BOND
     1     2     1    1
     2     2     3    1
     3     3     4    1
     4     4     5    1
     5     5     6    1
     6     6     7    1
     7     7     8    1
     8     8     9    1
     9     9    10    2
    10    10    11    1
    11    11    12    2
    12    11    13    1
    13    13    14    1
    14    14    15    1
    15    15    16    1
    16     6    17    1
    17    17    18    1
    18    18    19    1
    19    19    20    1
    20    20    21    1
    21    17     2    1
    22    20     2    1
    23    15     5    1
    24    15     9    1
    25     1    22    1
    26     1    23    1
    27     1    24    1
    28     3    25    1
    29     3    26    1
    30     4    27    1
    31     4    28    1
    32     5    29    1
    33     6    30    1
    34     7    31    1
    35     7    32    1
    36     8    33    1
    37     8    34    1
    38    10    35    1
    39    13    36    1
    40    13    37    1
    41    14    38    1
    42    14    39    1
    43    16    40    1
    44    16    41    1
    45    16    42    1
    46    17    43    1
    47    18    44    1
    48    18    45    1
    49    19    46    1
    50    19    47    1
    51    20    48    1
    52    21    49    1
