@<TRIPOS>MOLECULE
*****
 54 59 0 0 0
SMALL
GASTEIGER

@<TRIPOS>ATOM
      1 C           7.5777    0.6360    2.2617 C.ar    1  UNL1       -0.0597
      2 C           6.4796    1.2998    1.7199 C.ar    1  UNL1       -0.0611
      3 C           5.7401    0.7803    0.6923 C.ar    1  UNL1       -0.0520
      4 C           6.1111   -0.4543    0.1828 C.ar    1  UNL1        0.0082
      5 C           5.3557   -0.9735   -0.8588 C.ar    1  UNL1       -0.0022
      6 C           4.2216   -0.2401   -1.3854 C.ar    1  UNL1        0.0467
      7 C           4.1911    0.6815   -2.4075 C.ar    1  UNL1        0.0597
      8 N           2.9392    1.0889   -2.5394 N.ar    1  UNL1       -0.1727
      9 N           2.1306    0.4947   -1.6665 N.ar    1  UNL1       -0.2206
     10 C           0.8098    0.6074   -1.4513 C.ar    1  UNL1        0.0406
     11 C           0.2181   -0.1392   -0.4643 C.ar    1  UNL1        0.0184
     12 C          -1.2204   -0.0478   -0.1949 C.ar    1  UNL1       -0.0150
     13 C          -1.8736   -1.1684    0.2726 C.ar    1  UNL1       -0.0537
     14 C          -3.2353   -1.1150    0.5375 C.ar    1  UNL1       -0.0577
     15 C          -3.9381    0.0555    0.3347 C.ar    1  UNL1       -0.0442
     16 C          -5.3927    0.0510    0.6359 C.3     1  UNL1       -0.0136
     17 C          -6.1068    0.3156   -0.6940 C.3     1  UNL1       -0.0336
     18 C          -7.5631    0.5931   -0.5043 C.3     1  UNL1       -0.0036
     19 N          -7.9455    0.2151    0.8275 N.3     1  UNL1       -0.3159
     20 C          -7.2861    1.0685    1.7782 C.3     1  UNL1       -0.0036
     21 C          -5.7983    1.1266    1.5888 C.3     1  UNL1       -0.0336
     22 C          -3.2727    1.1562   -0.1295 C.ar    1  UNL1       -0.0577
     23 C          -1.9201    1.1125   -0.3954 C.ar    1  UNL1       -0.0537
     24 C           0.9918   -0.9943    0.2916 C.ar    1  UNL1        0.0391
     25 N           2.3041   -1.0569    0.0227 N.ar    1  UNL1       -0.2350
     26 C           2.9180   -0.3340   -0.9438 C.ar    1  UNL1        0.1632
     27 C           5.7456   -2.2089   -1.3518 C.ar    1  UNL1       -0.0351
     28 C           6.8228   -2.8407   -0.8069 C.ar    1  UNL1        0.0288
     29 N           7.5390   -2.3176    0.2019 N.ar    1  UNL1       -0.2549
     30 C           7.1977   -1.1165    0.7154 C.ar    1  UNL1        0.0715
     31 C           7.9436   -0.5950    1.7500 C.ar    1  UNL1       -0.0357
     32 H           8.1160    1.1066    3.0731 H       1  UNL1        0.0618
     33 H           6.2103    2.2549    2.1302 H       1  UNL1        0.0618
     34 H           4.8794    1.2870    0.2583 H       1  UNL1        0.0624
     35 H           5.0230    1.0373   -3.0202 H       1  UNL1        0.0855
     36 H           0.1997    1.2745   -2.0392 H       1  UNL1        0.0837
     37 H          -1.3524   -2.1195    0.4476 H       1  UNL1        0.0624
     38 H          -3.7684   -1.9936    0.9084 H       1  UNL1        0.0621
     39 H          -5.7290   -0.9219    0.9941 H       1  UNL1        0.0350
     40 H          -5.6336    1.2063   -1.1630 H       1  UNL1        0.0283
     41 H          -5.9999   -0.5766   -1.3641 H       1  UNL1        0.0283
     42 H          -7.7929    1.6710   -0.6255 H       1  UNL1        0.0424
     43 H          -8.2092    0.0195   -1.2127 H       1  UNL1        0.0424
     44 H          -7.8665   -0.7900    1.0327 H       1  UNL1        0.1219
     45 H          -7.7482    2.0940    1.6771 H       1  UNL1        0.0424
     46 H          -7.5688    0.7083    2.8009 H       1  UNL1        0.0424
     47 H          -5.3098    0.9974    2.5804 H       1  UNL1        0.0283
     48 H          -5.5193    2.1113    1.1229 H       1  UNL1        0.0283
     49 H          -3.8341    2.0667   -0.2842 H       1  UNL1        0.0621
     50 H          -1.3736    1.9810   -0.7660 H       1  UNL1        0.0624
     51 H           0.5297   -1.5857    1.0719 H       1  UNL1        0.0837
     52 H           5.1495   -2.6152   -2.1714 H       1  UNL1        0.0639
     53 H           7.1139   -3.8058   -1.2041 H       1  UNL1        0.0830
     54 H           8.7997   -1.0879    2.1895 H       1  UNL1        0.0639
@<TRIPOS>BOND
     1     1     2   ar
     2     2     3   ar
     3     3     4   ar
     4     4     5   ar
     5     5     6    1
     6     6     7   ar
     7     7     8   ar
     8     8     9   ar
     9     9    10   ar
    10    10    11   ar
    11    11    12    1
    12    12    13   ar
    13    13    14   ar
    14    14    15   ar
    15    15    16    1
    16    16    17    1
    17    17    18    1
    18    18    19    1
    19    19    20    1
    20    20    21    1
    21    15    22   ar
    22    22    23   ar
    23    11    24   ar
    24    24    25   ar
    25    25    26   ar
    26     5    27   ar
    27    27    28   ar
    28    28    29   ar
    29    29    30   ar
    30    30    31   ar
    31    31     1   ar
    32    30     4   ar
    33    26     6   ar
    34    26     9   ar
    35    23    12   ar
    36    21    16    1
    37     1    32    1
    38     2    33    1
    39     3    34    1
    40     7    35    1
    41    10    36    1
    42    13    37    1
    43    14    38    1
    44    16    39    1
    45    17    40    1
    46    17    41    1
    47    18    42    1
    48    18    43    1
    49    19    44    1
    50    20    45    1
    51    20    46    1
    52    21    47    1
    53    21    48    1
    54    22    49    1
    55    23    50    1
    56    24    51    1
    57    27    52    1
    58    28    53    1
    59    31    54    1
