@<TRIPOS>MOLECULE
*****
 196 196 0 0 0
SMALL
GASTEIGER

@<TRIPOS>ATOM
      1 C          -5.9338   -9.5620   -0.5914 C.3     1  UNL1       -0.0468
      2 C          -6.2555   -8.1831   -0.1920 C.2     1  UNL1       -0.0910
      3 C          -5.7434   -7.5550    0.8635 C.2     1  UNL1       -0.0879
      4 C          -6.1526   -6.1437    1.1689 C.3     1  UNL1       -0.0298
      5 C          -4.8632   -5.2580    1.1306 C.3     1  UNL1       -0.0122
      6 C          -4.3850   -5.4815   -0.3030 C.3     1  UNL1       -0.0597
      7 C          -5.3579   -3.8723    1.3402 C.3     1  UNL1        0.0850
      8 O          -6.0701   -3.8678    2.5860 O.3     1  UNL1       -0.3892
      9 C          -4.3524   -2.7718    1.3416 C.3     1  UNL1        0.1279
     10 C          -3.1840   -2.8397    0.5268 C.2     1  UNL1        0.2367
     11 O          -3.0622   -1.8288   -0.3076 O.2     1  UNL1       -0.2737
     12 N          -2.0659   -3.6443    0.3024 N.am    1  UNL1       -0.3024
     13 C          -1.0482   -3.3736   -0.7055 C.3     1  UNL1        0.0994
     14 C          -0.1711   -2.2762    0.0093 C.3     1  UNL1       -0.0288
     15 C           0.3312   -2.9341    1.2722 C.3     1  UNL1       -0.0631
     16 C          -0.1079   -4.4149   -1.0382 C.2     1  UNL1        0.2361
     17 O           0.7014   -3.9902   -2.0339 O.2     1  UNL1       -0.2736
     18 N           0.3996   -5.6826   -0.8364 N.am    1  UNL1       -0.2942
     19 C           0.0002   -6.6924    0.0431 C.3     1  UNL1        0.0037
     20 C           1.5981   -6.1658   -1.6632 C.3     1  UNL1        0.0909
     21 C           2.8139   -5.6877   -0.9564 C.2     1  UNL1        0.2333
     22 O           2.4778   -5.0016    0.1016 O.2     1  UNL1       -0.2739
     23 N           4.1886   -5.6604   -0.9331 N.am    1  UNL1       -0.2917
     24 C           5.1527   -6.3476   -1.6723 C.3     1  UNL1        0.0040
     25 C           4.8812   -4.7759    0.1133 C.3     1  UNL1        0.1021
     26 C           5.6253   -5.7054    0.9651 C.3     1  UNL1       -0.0234
     27 C           6.4070   -5.1811    2.1154 C.3     1  UNL1       -0.0446
     28 C           7.5118   -4.2314    1.7391 C.3     1  UNL1       -0.0626
     29 C           7.0545   -6.3267    2.8994 C.3     1  UNL1       -0.0626
     30 C           5.5844   -3.7800   -0.7123 C.2     1  UNL1        0.2342
     31 O           5.6776   -4.0803   -1.9745 O.2     1  UNL1       -0.2738
     32 N           6.1957   -2.5559   -0.5591 N.am    1  UNL1       -0.3022
     33 C           6.9442   -1.7618   -1.4947 C.3     1  UNL1        0.1019
     34 C           6.5758   -1.8414   -2.9579 C.3     1  UNL1       -0.0197
     35 C           5.1871   -1.5583   -3.3318 C.3     1  UNL1       -0.0605
     36 C           7.3217   -2.8942   -3.6873 C.3     1  UNL1       -0.0605
     37 C           7.3026   -0.4084   -1.0775 C.2     1  UNL1        0.2365
     38 O           8.1168    0.0731   -2.0154 O.2     1  UNL1       -0.2735
     39 N           7.2551    0.6570   -0.2304 N.am    1  UNL1       -0.2914
     40 C           8.0041    1.9048   -0.6710 C.3     1  UNL1        0.0040
     41 C           6.5983    0.9218    0.9817 C.3     1  UNL1        0.1021
     42 C           7.5146    0.8214    2.1865 C.3     1  UNL1       -0.0234
     43 C           8.6819    1.6557    2.3558 C.3     1  UNL1       -0.0446
     44 C           8.5097    3.1434    2.4447 C.3     1  UNL1       -0.0626
     45 C           9.2917    1.2745    3.7390 C.3     1  UNL1       -0.0626
     46 C           5.7515    2.1130    0.9831 C.2     1  UNL1        0.2341
     47 O           5.2413    2.2732    2.1956 O.2     1  UNL1       -0.2738
     48 N           5.2569    3.1430    0.2470 N.am    1  UNL1       -0.3027
     49 C           4.3796    4.2474    0.7829 C.3     1  UNL1        0.0966
     50 C           5.3461    5.4417    0.6984 C.3     1  UNL1       -0.0381
     51 C           3.2584    4.5376   -0.1145 C.2     1  UNL1        0.2337
     52 O           3.2181    3.7373   -1.1471 O.2     1  UNL1       -0.2738
     53 N           2.2121    5.4079   -0.2190 N.am    1  UNL1       -0.3027
     54 C           1.2158    5.4190   -1.3321 C.3     1  UNL1        0.0968
     55 C           1.7342    6.5120   -2.2534 C.3     1  UNL1       -0.0381
     56 C          -0.1026    5.6211   -0.7588 C.2     1  UNL1        0.2360
     57 O          -0.0266    5.3853    0.5540 O.2     1  UNL1       -0.2736
     58 N          -1.4429    5.9486   -0.8992 N.am    1  UNL1       -0.2914
     59 C          -2.1274    6.2585   -2.0844 C.3     1  UNL1        0.0040
     60 C          -2.3621    6.0230    0.2567 C.3     1  UNL1        0.1023
     61 C          -2.7191    7.5257    0.3366 C.3     1  UNL1       -0.0234
     62 C          -1.5270    8.3761    0.5413 C.3     1  UNL1       -0.0446
     63 C          -0.8312    8.1003    1.8344 C.3     1  UNL1       -0.0626
     64 C          -1.8947    9.8660    0.5116 C.3     1  UNL1       -0.0626
     65 C          -3.6123    5.2538    0.1765 C.2     1  UNL1        0.2365
     66 O          -4.1085    5.2365    1.4384 O.2     1  UNL1       -0.2735
     67 N          -4.5779    4.5381   -0.4651 N.am    1  UNL1       -0.2914
     68 C          -4.7069    4.2528   -1.8323 C.3     1  UNL1        0.0040
     69 C          -5.7874    3.9120    0.2348 C.3     1  UNL1        0.1023
     70 C          -6.8426    4.9018   -0.1611 C.3     1  UNL1       -0.0234
     71 C          -8.2274    4.8033    0.2537 C.3     1  UNL1       -0.0446
     72 C          -8.9682    3.6130   -0.2520 C.3     1  UNL1       -0.0626
     73 C          -8.9910    6.0516   -0.2579 C.3     1  UNL1       -0.0626
     74 C          -5.9612    2.5091   -0.0059 C.2     1  UNL1        0.2365
     75 O          -6.9335    2.0606    0.8186 O.2     1  UNL1       -0.2735
     76 N          -5.6773    1.3060   -0.6227 N.am    1  UNL1       -0.2912
     77 C          -4.6120    1.0177   -1.5053 C.3     1  UNL1        0.0040
     78 C          -6.4804    0.0454   -0.4276 C.3     1  UNL1        0.1044
     79 C          -6.9489   -0.3419   -1.8030 C.3     1  UNL1       -0.0195
     80 C          -7.7871    0.7724   -2.4349 C.3     1  UNL1       -0.0605
     81 C          -7.8914   -1.5398   -1.7659 C.3     1  UNL1       -0.0605
     82 C          -5.6911   -1.0031    0.2486 C.2     1  UNL1        0.2368
     83 O          -5.5810   -2.0048   -0.5758 O.2     1  UNL1       -0.2735
     84 N          -5.0145   -1.4132    1.3639 N.am    1  UNL1       -0.2890
     85 C          -4.7875   -0.7758    2.6075 C.3     1  UNL1        0.0041
     86 H          -5.7553  -10.2229    0.2679 H       1  UNL1        0.0272
     87 H          -6.7676   -9.9977   -1.2103 H       1  UNL1        0.0272
     88 H          -5.0164   -9.5745   -1.2325 H       1  UNL1        0.0272
     89 H          -6.9708   -7.6235   -0.8158 H       1  UNL1        0.0566
     90 H          -5.0324   -8.0859    1.4873 H       1  UNL1        0.0569
     91 H          -6.6832   -6.0371    2.1106 H       1  UNL1        0.0311
     92 H          -6.7361   -5.7678    0.3085 H       1  UNL1        0.0311
     93 H          -4.2230   -5.6504    1.8961 H       1  UNL1        0.0327
     94 H          -4.3842   -4.4984   -0.8037 H       1  UNL1        0.0233
     95 H          -3.3713   -5.9077   -0.3640 H       1  UNL1        0.0233
     96 H          -5.0217   -6.2161   -0.8573 H       1  UNL1        0.0233
     97 H          -6.2040   -3.7403    0.6153 H       1  UNL1        0.0619
     98 H          -5.3993   -4.1541    3.2604 H       1  UNL1        0.2099
     99 H          -3.9759   -2.7888    2.4424 H       1  UNL1        0.0623
    100 H          -1.8500   -4.4966    0.8003 H       1  UNL1        0.1495
    101 H          -1.4465   -2.7616   -1.5580 H       1  UNL1        0.0594
    102 H          -0.7972   -1.4325    0.2996 H       1  UNL1        0.0285
    103 H           0.6921   -2.0314   -0.6181 H       1  UNL1        0.0285
    104 H           1.4454   -2.8095    1.3959 H       1  UNL1        0.0230
    105 H          -0.2144   -2.5489    2.1781 H       1  UNL1        0.0230
    106 H           0.1650   -4.0395    1.2732 H       1  UNL1        0.0230
    107 H           0.1810   -6.4913    1.1236 H       1  UNL1        0.0429
    108 H           0.5947   -7.6674   -0.0931 H       1  UNL1        0.0429
    109 H          -1.0386   -7.1106   -0.1441 H       1  UNL1        0.0429
    110 H           1.4851   -5.8584   -2.6895 H       1  UNL1        0.0560
    111 H           1.4841   -7.2573   -1.6647 H       1  UNL1        0.0560
    112 H           5.1607   -7.4700   -1.5102 H       1  UNL1        0.0429
    113 H           6.2254   -6.0991   -1.4229 H       1  UNL1        0.0429
    114 H           5.1727   -6.1504   -2.7887 H       1  UNL1        0.0429
    115 H           4.0952   -4.3045    0.7363 H       1  UNL1        0.0597
    116 H           4.8370   -6.3958    1.4321 H       1  UNL1        0.0290
    117 H           6.2936   -6.4430    0.4546 H       1  UNL1        0.0290
    118 H           5.7240   -4.7009    2.8931 H       1  UNL1        0.0296
    119 H           7.3128   -3.1962    2.0280 H       1  UNL1        0.0232
    120 H           8.4640   -4.4880    2.3190 H       1  UNL1        0.0232
    121 H           7.8200   -4.3867    0.6872 H       1  UNL1        0.0232
    122 H           6.3223   -6.9562    3.4224 H       1  UNL1        0.0232
    123 H           7.7922   -5.8583    3.5772 H       1  UNL1        0.0232
    124 H           7.6353   -6.9603    2.1992 H       1  UNL1        0.0232
    125 H           6.1818   -2.0308    0.3399 H       1  UNL1        0.1495
    126 H           7.9474   -2.3462   -1.5437 H       1  UNL1        0.0597
    127 H           7.1388   -0.8600   -3.3407 H       1  UNL1        0.0318
    128 H           4.5265   -1.4707   -2.4409 H       1  UNL1        0.0233
    129 H           4.7532   -2.2726   -4.0784 H       1  UNL1        0.0233
    130 H           5.1000   -0.5668   -3.8316 H       1  UNL1        0.0233
    131 H           6.7350   -3.5582   -4.3430 H       1  UNL1        0.0233
    132 H           8.1023   -2.4654   -4.4046 H       1  UNL1        0.0233
    133 H           7.9823   -3.5383   -3.0267 H       1  UNL1        0.0233
    134 H           7.7424    2.0954   -1.7671 H       1  UNL1        0.0429
    135 H           9.0641    1.7941   -0.6085 H       1  UNL1        0.0429
    136 H           7.6543    2.7941   -0.1871 H       1  UNL1        0.0429
    137 H           5.8393    0.1037    1.3080 H       1  UNL1        0.0597
    138 H           6.8252    0.9970    3.0315 H       1  UNL1        0.0290
    139 H           7.7368   -0.2931    2.2847 H       1  UNL1        0.0290
    140 H           9.5312    1.4797    1.6619 H       1  UNL1        0.0296
    141 H           9.4306    3.6734    2.0409 H       1  UNL1        0.0232
    142 H           7.5929    3.5512    2.0224 H       1  UNL1        0.0232
    143 H           8.5020    3.5149    3.5195 H       1  UNL1        0.0232
    144 H           9.3422    0.1726    3.8464 H       1  UNL1        0.0232
    145 H           8.6836    1.6715    4.5540 H       1  UNL1        0.0232
    146 H          10.3174    1.7265    3.7989 H       1  UNL1        0.0232
    147 H           5.3922    3.3118   -0.7314 H       1  UNL1        0.1495
    148 H           4.1849    4.0900    1.8323 H       1  UNL1        0.0592
    149 H           5.9584    5.4530    1.6048 H       1  UNL1        0.0252
    150 H           4.7430    6.3570    0.6397 H       1  UNL1        0.0252
    151 H           6.0275    5.3337   -0.1862 H       1  UNL1        0.0252
    152 H           1.9422    6.1583    0.3996 H       1  UNL1        0.1495
    153 H           1.2683    4.5027   -1.9062 H       1  UNL1        0.0592
    154 H           2.1619    7.3517   -1.7006 H       1  UNL1        0.0252
    155 H           0.8351    6.8895   -2.7907 H       1  UNL1        0.0252
    156 H           2.4028    6.0863   -3.0325 H       1  UNL1        0.0252
    157 H          -2.2686    5.4160   -2.8042 H       1  UNL1        0.0429
    158 H          -1.7588    7.1980   -2.6331 H       1  UNL1        0.0429
    159 H          -3.1963    6.6065   -1.9154 H       1  UNL1        0.0429
    160 H          -1.8884    5.8015    1.2036 H       1  UNL1        0.0597
    161 H          -3.3589    7.8602   -0.4734 H       1  UNL1        0.0290
    162 H          -3.3988    7.5572    1.2612 H       1  UNL1        0.0290
    163 H          -0.7864    8.2610   -0.3218 H       1  UNL1        0.0296
    164 H          -0.8706    9.0055    2.4901 H       1  UNL1        0.0232
    165 H           0.2417    7.8505    1.6370 H       1  UNL1        0.0232
    166 H          -1.3396    7.2680    2.3532 H       1  UNL1        0.0232
    167 H          -0.9414   10.4278    0.3855 H       1  UNL1        0.0232
    168 H          -2.5644   10.1189   -0.3106 H       1  UNL1        0.0232
    169 H          -2.3209   10.1579    1.4755 H       1  UNL1        0.0232
    170 H          -3.8766    3.6762   -2.3070 H       1  UNL1        0.0429
    171 H          -5.6103    3.6326   -2.1007 H       1  UNL1        0.0429
    172 H          -4.9324    5.1662   -2.4777 H       1  UNL1        0.0429
    173 H          -5.7163    4.0735    1.3375 H       1  UNL1        0.0597
    174 H          -6.4493    5.9052    0.2651 H       1  UNL1        0.0290
    175 H          -6.7620    5.1329   -1.2738 H       1  UNL1        0.0290
    176 H          -8.3666    4.9114    1.3808 H       1  UNL1        0.0296
    177 H          -9.9104    3.9619   -0.8405 H       1  UNL1        0.0232
    178 H          -9.3228    2.9477    0.5406 H       1  UNL1        0.0232
    179 H          -8.3709    3.1620   -1.0585 H       1  UNL1        0.0232
    180 H          -8.7215    6.2800   -1.2882 H       1  UNL1        0.0232
    181 H          -8.7102    6.9365    0.3614 H       1  UNL1        0.0232
    182 H         -10.0761    5.9066   -0.0976 H       1  UNL1        0.0232
    183 H          -4.4886   -0.0678   -1.7526 H       1  UNL1        0.0429
    184 H          -4.7687    1.4473   -2.5470 H       1  UNL1        0.0429
    185 H          -3.5695    1.2622   -1.1365 H       1  UNL1        0.0429
    186 H          -7.3770    0.1855    0.1727 H       1  UNL1        0.0599
    187 H          -6.1947   -0.5878   -2.5375 H       1  UNL1        0.0318
    188 H          -8.6977    0.9449   -1.8381 H       1  UNL1        0.0233
    189 H          -8.0554    0.4087   -3.4505 H       1  UNL1        0.0233
    190 H          -7.1876    1.6979   -2.5220 H       1  UNL1        0.0233
    191 H          -8.4893   -1.4710   -2.7264 H       1  UNL1        0.0233
    192 H          -8.6467   -1.4415   -0.9619 H       1  UNL1        0.0233
    193 H          -7.4062   -2.5085   -1.8165 H       1  UNL1        0.0233
    194 H          -4.1891    0.1621    2.5688 H       1  UNL1        0.0429
    195 H          -5.7190   -0.6379    3.2305 H       1  UNL1        0.0429
    196 H          -4.1375   -1.3907    3.3019 H       1  UNL1        0.0429
@<TRIPOS>BOND
     1     1     2    1
     2     2     3    2
     3     3     4    1
     4     4     5    1
     5     5     6    1
     6     5     7    1
     7     7     8    1
     8     7     9    1
     9     9    10    1
    10    10    11    2
    11    10    12   am
    12    12    13    1
    13    13    14    1
    14    14    15    1
    15    13    16    1
    16    16    17    2
    17    16    18   am
    18    18    19    1
    19    18    20    1
    20    20    21    1
    21    21    22    2
    22    21    23   am
    23    23    24    1
    24    23    25    1
    25    25    26    1
    26    26    27    1
    27    27    28    1
    28    27    29    1
    29    25    30    1
    30    30    31    2
    31    30    32   am
    32    32    33    1
    33    33    34    1
    34    34    35    1
    35    34    36    1
    36    33    37    1
    37    37    38    2
    38    37    39   am
    39    39    40    1
    40    39    41    1
    41    41    42    1
    42    42    43    1
    43    43    44    1
    44    43    45    1
    45    41    46    1
    46    46    47    2
    47    46    48   am
    48    48    49    1
    49    49    50    1
    50    49    51    1
    51    51    52    2
    52    51    53   am
    53    53    54    1
    54    54    55    1
    55    54    56    1
    56    56    57    2
    57    56    58   am
    58    58    59    1
    59    58    60    1
    60    60    61    1
    61    61    62    1
    62    62    63    1
    63    62    64    1
    64    60    65    1
    65    65    66    2
    66    65    67   am
    67    67    68    1
    68    67    69    1
    69    69    70    1
    70    70    71    1
    71    71    72    1
    72    71    73    1
    73    69    74    1
    74    74    75    2
    75    74    76   am
    76    76    77    1
    77    76    78    1
    78    78    79    1
    79    79    80    1
    80    79    81    1
    81    78    82    1
    82    82    83    2
    83    82    84   am
    84    84    85    1
    85    84     9    1
    86     1    86    1
    87     1    87    1
    88     1    88    1
    89     2    89    1
    90     3    90    1
    91     4    91    1
    92     4    92    1
    93     5    93    1
    94     6    94    1
    95     6    95    1
    96     6    96    1
    97     7    97    1
    98     8    98    1
    99     9    99    1
   100    12   100    1
   101    13   101    1
   102    14   102    1
   103    14   103    1
   104    15   104    1
   105    15   105    1
   106    15   106    1
   107    19   107    1
   108    19   108    1
   109    19   109    1
   110    20   110    1
   111    20   111    1
   112    24   112    1
   113    24   113    1
   114    24   114    1
   115    25   115    1
   116    26   116    1
   117    26   117    1
   118    27   118    1
   119    28   119    1
   120    28   120    1
   121    28   121    1
   122    29   122    1
   123    29   123    1
   124    29   124    1
   125    32   125    1
   126    33   126    1
   127    34   127    1
   128    35   128    1
   129    35   129    1
   130    35   130    1
   131    36   131    1
   132    36   132    1
   133    36   133    1
   134    40   134    1
   135    40   135    1
   136    40   136    1
   137    41   137    1
   138    42   138    1
   139    42   139    1
   140    43   140    1
   141    44   141    1
   142    44   142    1
   143    44   143    1
   144    45   144    1
   145    45   145    1
   146    45   146    1
   147    48   147    1
   148    49   148    1
   149    50   149    1
   150    50   150    1
   151    50   151    1
   152    53   152    1
   153    54   153    1
   154    55   154    1
   155    55   155    1
   156    55   156    1
   157    59   157    1
   158    59   158    1
   159    59   159    1
   160    60   160    1
   161    61   161    1
   162    61   162    1
   163    62   163    1
   164    63   164    1
   165    63   165    1
   166    63   166    1
   167    64   167    1
   168    64   168    1
   169    64   169    1
   170    68   170    1
   171    68   171    1
   172    68   172    1
   173    69   173    1
   174    70   174    1
   175    70   175    1
   176    71   176    1
   177    72   177    1
   178    72   178    1
   179    72   179    1
   180    73   180    1
   181    73   181    1
   182    73   182    1
   183    77   183    1
   184    77   184    1
   185    77   185    1
   186    78   186    1
   187    79   187    1
   188    80   188    1
   189    80   189    1
   190    80   190    1
   191    81   191    1
   192    81   192    1
   193    81   193    1
   194    85   194    1
   195    85   195    1
   196    85   196    1
