
     RDKit          3D

196196  0  0  0  0  0  0  0  0999 V2000
   -5.9338   -9.5620   -0.5914 C   0  0  0  0  0  0  0  0  0  0  0  0
   -6.2555   -8.1831   -0.1920 C   0  0  0  0  0  0  0  0  0  0  0  0
   -5.7434   -7.5550    0.8635 C   0  0  0  0  0  0  0  0  0  0  0  0
   -6.1526   -6.1437    1.1689 C   0  0  0  0  0  0  0  0  0  0  0  0
   -4.8632   -5.2580    1.1306 C   0  0  1  0  0  0  0  0  0  0  0  0
   -4.3850   -5.4815   -0.3030 C   0  0  0  0  0  0  0  0  0  0  0  0
   -5.3579   -3.8723    1.3402 C   0  0  1  0  0  0  0  0  0  0  0  0
   -6.0701   -3.8678    2.5860 O   0  0  0  0  0  0  0  0  0  0  0  0
   -4.3524   -2.7718    1.3416 C   0  0  1  0  0  0  0  0  0  0  0  0
   -3.1840   -2.8397    0.5268 C   0  0  0  0  0  0  0  0  0  0  0  0
   -3.0622   -1.8288   -0.3076 O   0  0  0  0  0  0  0  0  0  0  0  0
   -2.0659   -3.6443    0.3024 N   0  0  0  0  0  0  0  0  0  0  0  0
   -1.0482   -3.3736   -0.7055 C   0  0  1  0  0  0  0  0  0  0  0  0
   -0.1711   -2.2762    0.0093 C   0  0  0  0  0  0  0  0  0  0  0  0
    0.3312   -2.9341    1.2722 C   0  0  0  0  0  0  0  0  0  0  0  0
   -0.1079   -4.4149   -1.0382 C   0  0  0  0  0  0  0  0  0  0  0  0
    0.7014   -3.9902   -2.0339 O   0  0  0  0  0  0  0  0  0  0  0  0
    0.3996   -5.6826   -0.8364 N   0  0  0  0  0  0  0  0  0  0  0  0
    0.0002   -6.6924    0.0431 C   0  0  0  0  0  0  0  0  0  0  0  0
    1.5981   -6.1658   -1.6632 C   0  0  0  0  0  0  0  0  0  0  0  0
    2.8139   -5.6877   -0.9564 C   0  0  0  0  0  0  0  0  0  0  0  0
    2.4778   -5.0016    0.1016 O   0  0  0  0  0  0  0  0  0  0  0  0
    4.1886   -5.6604   -0.9331 N   0  0  0  0  0  0  0  0  0  0  0  0
    5.1527   -6.3476   -1.6723 C   0  0  0  0  0  0  0  0  0  0  0  0
    4.8812   -4.7759    0.1133 C   0  0  1  0  0  0  0  0  0  0  0  0
    5.6253   -5.7054    0.9651 C   0  0  0  0  0  0  0  0  0  0  0  0
    6.4070   -5.1811    2.1154 C   0  0  0  0  0  0  0  0  0  0  0  0
    7.5118   -4.2314    1.7391 C   0  0  0  0  0  0  0  0  0  0  0  0
    7.0545   -6.3267    2.8994 C   0  0  0  0  0  0  0  0  0  0  0  0
    5.5844   -3.7800   -0.7123 C   0  0  0  0  0  0  0  0  0  0  0  0
    5.6776   -4.0803   -1.9745 O   0  0  0  0  0  0  0  0  0  0  0  0
    6.1957   -2.5559   -0.5591 N   0  0  0  0  0  0  0  0  0  0  0  0
    6.9442   -1.7618   -1.4947 C   0  0  1  0  0  0  0  0  0  0  0  0
    6.5758   -1.8414   -2.9579 C   0  0  0  0  0  0  0  0  0  0  0  0
    5.1871   -1.5583   -3.3318 C   0  0  0  0  0  0  0  0  0  0  0  0
    7.3217   -2.8942   -3.6873 C   0  0  0  0  0  0  0  0  0  0  0  0
    7.3026   -0.4084   -1.0775 C   0  0  0  0  0  0  0  0  0  0  0  0
    8.1168    0.0731   -2.0154 O   0  0  0  0  0  0  0  0  0  0  0  0
    7.2551    0.6570   -0.2304 N   0  0  0  0  0  0  0  0  0  0  0  0
    8.0041    1.9048   -0.6710 C   0  0  0  0  0  0  0  0  0  0  0  0
    6.5983    0.9218    0.9817 C   0  0  1  0  0  0  0  0  0  0  0  0
    7.5146    0.8214    2.1865 C   0  0  0  0  0  0  0  0  0  0  0  0
    8.6819    1.6557    2.3558 C   0  0  0  0  0  0  0  0  0  0  0  0
    8.5097    3.1434    2.4447 C   0  0  0  0  0  0  0  0  0  0  0  0
    9.2917    1.2745    3.7390 C   0  0  0  0  0  0  0  0  0  0  0  0
    5.7515    2.1130    0.9831 C   0  0  0  0  0  0  0  0  0  0  0  0
    5.2413    2.2732    2.1956 O   0  0  0  0  0  0  0  0  0  0  0  0
    5.2569    3.1430    0.2470 N   0  0  0  0  0  0  0  0  0  0  0  0
    4.3796    4.2474    0.7829 C   0  0  1  0  0  0  0  0  0  0  0  0
    5.3461    5.4417    0.6984 C   0  0  0  0  0  0  0  0  0  0  0  0
    3.2584    4.5376   -0.1145 C   0  0  0  0  0  0  0  0  0  0  0  0
    3.2181    3.7373   -1.1471 O   0  0  0  0  0  0  0  0  0  0  0  0
    2.2121    5.4079   -0.2190 N   0  0  0  0  0  0  0  0  0  0  0  0
    1.2158    5.4190   -1.3321 C   0  0  2  0  0  0  0  0  0  0  0  0
    1.7342    6.5120   -2.2534 C   0  0  0  0  0  0  0  0  0  0  0  0
   -0.1026    5.6211   -0.7588 C   0  0  0  0  0  0  0  0  0  0  0  0
   -0.0266    5.3853    0.5540 O   0  0  0  0  0  0  0  0  0  0  0  0
   -1.4429    5.9486   -0.8992 N   0  0  0  0  0  0  0  0  0  0  0  0
   -2.1274    6.2585   -2.0844 C   0  0  0  0  0  0  0  0  0  0  0  0
   -2.3621    6.0230    0.2567 C   0  0  1  0  0  0  0  0  0  0  0  0
   -2.7191    7.5257    0.3366 C   0  0  0  0  0  0  0  0  0  0  0  0
   -1.5270    8.3761    0.5413 C   0  0  0  0  0  0  0  0  0  0  0  0
   -0.8312    8.1003    1.8344 C   0  0  0  0  0  0  0  0  0  0  0  0
   -1.8947    9.8660    0.5116 C   0  0  0  0  0  0  0  0  0  0  0  0
   -3.6123    5.2538    0.1765 C   0  0  0  0  0  0  0  0  0  0  0  0
   -4.1085    5.2365    1.4384 O   0  0  0  0  0  0  0  0  0  0  0  0
   -4.5779    4.5381   -0.4651 N   0  0  0  0  0  0  0  0  0  0  0  0
   -4.7069    4.2528   -1.8323 C   0  0  0  0  0  0  0  0  0  0  0  0
   -5.7874    3.9120    0.2348 C   0  0  1  0  0  0  0  0  0  0  0  0
   -6.8426    4.9018   -0.1611 C   0  0  0  0  0  0  0  0  0  0  0  0
   -8.2274    4.8033    0.2537 C   0  0  0  0  0  0  0  0  0  0  0  0
   -8.9682    3.6130   -0.2520 C   0  0  0  0  0  0  0  0  0  0  0  0
   -8.9910    6.0516   -0.2579 C   0  0  0  0  0  0  0  0  0  0  0  0
   -5.9612    2.5091   -0.0059 C   0  0  0  0  0  0  0  0  0  0  0  0
   -6.9335    2.0606    0.8186 O   0  0  0  0  0  0  0  0  0  0  0  0
   -5.6773    1.3060   -0.6227 N   0  0  0  0  0  0  0  0  0  0  0  0
   -4.6120    1.0177   -1.5053 C   0  0  0  0  0  0  0  0  0  0  0  0
   -6.4804    0.0454   -0.4276 C   0  0  1  0  0  0  0  0  0  0  0  0
   -6.9489   -0.3419   -1.8030 C   0  0  0  0  0  0  0  0  0  0  0  0
   -7.7871    0.7724   -2.4349 C   0  0  0  0  0  0  0  0  0  0  0  0
   -7.8914   -1.5398   -1.7659 C   0  0  0  0  0  0  0  0  0  0  0  0
   -5.6911   -1.0031    0.2486 C   0  0  0  0  0  0  0  0  0  0  0  0
   -5.5810   -2.0048   -0.5758 O   0  0  0  0  0  0  0  0  0  0  0  0
   -5.0145   -1.4132    1.3639 N   0  0  0  0  0  0  0  0  0  0  0  0
   -4.7875   -0.7758    2.6075 C   0  0  0  0  0  0  0  0  0  0  0  0
   -5.7553  -10.2229    0.2679 H   0  0  0  0  0  0  0  0  0  0  0  0
   -6.7676   -9.9977   -1.2103 H   0  0  0  0  0  0  0  0  0  0  0  0
   -5.0164   -9.5745   -1.2325 H   0  0  0  0  0  0  0  0  0  0  0  0
   -6.9708   -7.6235   -0.8158 H   0  0  0  0  0  0  0  0  0  0  0  0
   -5.0324   -8.0859    1.4873 H   0  0  0  0  0  0  0  0  0  0  0  0
   -6.6832   -6.0371    2.1106 H   0  0  0  0  0  0  0  0  0  0  0  0
   -6.7361   -5.7678    0.3085 H   0  0  0  0  0  0  0  0  0  0  0  0
   -4.2230   -5.6504    1.8961 H   0  0  0  0  0  0  0  0  0  0  0  0
   -4.3842   -4.4984   -0.8037 H   0  0  0  0  0  0  0  0  0  0  0  0
   -3.3713   -5.9077   -0.3640 H   0  0  0  0  0  0  0  0  0  0  0  0
   -5.0217   -6.2161   -0.8573 H   0  0  0  0  0  0  0  0  0  0  0  0
   -6.2040   -3.7403    0.6153 H   0  0  0  0  0  0  0  0  0  0  0  0
   -5.3993   -4.1541    3.2604 H   0  0  0  0  0  0  0  0  0  0  0  0
   -3.9759   -2.7888    2.4424 H   0  0  0  0  0  0  0  0  0  0  0  0
   -1.8500   -4.4966    0.8003 H   0  0  0  0  0  0  0  0  0  0  0  0
   -1.4465   -2.7616   -1.5580 H   0  0  0  0  0  0  0  0  0  0  0  0
   -0.7972   -1.4325    0.2996 H   0  0  0  0  0  0  0  0  0  0  0  0
    0.6921   -2.0314   -0.6181 H   0  0  0  0  0  0  0  0  0  0  0  0
    1.4454   -2.8095    1.3959 H   0  0  0  0  0  0  0  0  0  0  0  0
   -0.2144   -2.5489    2.1781 H   0  0  0  0  0  0  0  0  0  0  0  0
    0.1650   -4.0395    1.2732 H   0  0  0  0  0  0  0  0  0  0  0  0
    0.1810   -6.4913    1.1236 H   0  0  0  0  0  0  0  0  0  0  0  0
    0.5947   -7.6674   -0.0931 H   0  0  0  0  0  0  0  0  0  0  0  0
   -1.0386   -7.1106   -0.1441 H   0  0  0  0  0  0  0  0  0  0  0  0
    1.4851   -5.8584   -2.6895 H   0  0  0  0  0  0  0  0  0  0  0  0
    1.4841   -7.2573   -1.6647 H   0  0  0  0  0  0  0  0  0  0  0  0
    5.1607   -7.4700   -1.5102 H   0  0  0  0  0  0  0  0  0  0  0  0
    6.2254   -6.0991   -1.4229 H   0  0  0  0  0  0  0  0  0  0  0  0
    5.1727   -6.1504   -2.7887 H   0  0  0  0  0  0  0  0  0  0  0  0
    4.0952   -4.3045    0.7363 H   0  0  0  0  0  0  0  0  0  0  0  0
    4.8370   -6.3958    1.4321 H   0  0  0  0  0  0  0  0  0  0  0  0
    6.2936   -6.4430    0.4546 H   0  0  0  0  0  0  0  0  0  0  0  0
    5.7240   -4.7009    2.8931 H   0  0  0  0  0  0  0  0  0  0  0  0
    7.3128   -3.1962    2.0280 H   0  0  0  0  0  0  0  0  0  0  0  0
    8.4640   -4.4880    2.3190 H   0  0  0  0  0  0  0  0  0  0  0  0
    7.8200   -4.3867    0.6872 H   0  0  0  0  0  0  0  0  0  0  0  0
    6.3223   -6.9562    3.4224 H   0  0  0  0  0  0  0  0  0  0  0  0
    7.7922   -5.8583    3.5772 H   0  0  0  0  0  0  0  0  0  0  0  0
    7.6353   -6.9603    2.1992 H   0  0  0  0  0  0  0  0  0  0  0  0
    6.1818   -2.0308    0.3399 H   0  0  0  0  0  0  0  0  0  0  0  0
    7.9474   -2.3462   -1.5437 H   0  0  0  0  0  0  0  0  0  0  0  0
    7.1388   -0.8600   -3.3407 H   0  0  0  0  0  0  0  0  0  0  0  0
    4.5265   -1.4707   -2.4409 H   0  0  0  0  0  0  0  0  0  0  0  0
    4.7532   -2.2726   -4.0784 H   0  0  0  0  0  0  0  0  0  0  0  0
    5.1000   -0.5668   -3.8316 H   0  0  0  0  0  0  0  0  0  0  0  0
    6.7350   -3.5582   -4.3430 H   0  0  0  0  0  0  0  0  0  0  0  0
    8.1023   -2.4654   -4.4046 H   0  0  0  0  0  0  0  0  0  0  0  0
    7.9823   -3.5383   -3.0267 H   0  0  0  0  0  0  0  0  0  0  0  0
    7.7424    2.0954   -1.7671 H   0  0  0  0  0  0  0  0  0  0  0  0
    9.0641    1.7941   -0.6085 H   0  0  0  0  0  0  0  0  0  0  0  0
    7.6543    2.7941   -0.1871 H   0  0  0  0  0  0  0  0  0  0  0  0
    5.8393    0.1037    1.3080 H   0  0  0  0  0  0  0  0  0  0  0  0
    6.8252    0.9970    3.0315 H   0  0  0  0  0  0  0  0  0  0  0  0
    7.7368   -0.2931    2.2847 H   0  0  0  0  0  0  0  0  0  0  0  0
    9.5312    1.4797    1.6619 H   0  0  0  0  0  0  0  0  0  0  0  0
    9.4306    3.6734    2.0409 H   0  0  0  0  0  0  0  0  0  0  0  0
    7.5929    3.5512    2.0224 H   0  0  0  0  0  0  0  0  0  0  0  0
    8.5020    3.5149    3.5195 H   0  0  0  0  0  0  0  0  0  0  0  0
    9.3422    0.1726    3.8464 H   0  0  0  0  0  0  0  0  0  0  0  0
    8.6836    1.6715    4.5540 H   0  0  0  0  0  0  0  0  0  0  0  0
   10.3174    1.7265    3.7989 H   0  0  0  0  0  0  0  0  0  0  0  0
    5.3922    3.3118   -0.7314 H   0  0  0  0  0  0  0  0  0  0  0  0
    4.1849    4.0900    1.8323 H   0  0  0  0  0  0  0  0  0  0  0  0
    5.9584    5.4530    1.6048 H   0  0  0  0  0  0  0  0  0  0  0  0
    4.7430    6.3570    0.6397 H   0  0  0  0  0  0  0  0  0  0  0  0
    6.0275    5.3337   -0.1862 H   0  0  0  0  0  0  0  0  0  0  0  0
    1.9422    6.1583    0.3996 H   0  0  0  0  0  0  0  0  0  0  0  0
    1.2683    4.5027   -1.9062 H   0  0  0  0  0  0  0  0  0  0  0  0
    2.1619    7.3517   -1.7006 H   0  0  0  0  0  0  0  0  0  0  0  0
    0.8351    6.8895   -2.7907 H   0  0  0  0  0  0  0  0  0  0  0  0
    2.4028    6.0863   -3.0325 H   0  0  0  0  0  0  0  0  0  0  0  0
   -2.2686    5.4160   -2.8042 H   0  0  0  0  0  0  0  0  0  0  0  0
   -1.7588    7.1980   -2.6331 H   0  0  0  0  0  0  0  0  0  0  0  0
   -3.1963    6.6065   -1.9154 H   0  0  0  0  0  0  0  0  0  0  0  0
   -1.8884    5.8015    1.2036 H   0  0  0  0  0  0  0  0  0  0  0  0
   -3.3589    7.8602   -0.4734 H   0  0  0  0  0  0  0  0  0  0  0  0
   -3.3988    7.5572    1.2612 H   0  0  0  0  0  0  0  0  0  0  0  0
   -0.7864    8.2610   -0.3218 H   0  0  0  0  0  0  0  0  0  0  0  0
   -0.8706    9.0055    2.4901 H   0  0  0  0  0  0  0  0  0  0  0  0
    0.2417    7.8505    1.6370 H   0  0  0  0  0  0  0  0  0  0  0  0
   -1.3396    7.2680    2.3532 H   0  0  0  0  0  0  0  0  0  0  0  0
   -0.9414   10.4278    0.3855 H   0  0  0  0  0  0  0  0  0  0  0  0
   -2.5644   10.1189   -0.3106 H   0  0  0  0  0  0  0  0  0  0  0  0
   -2.3209   10.1579    1.4755 H   0  0  0  0  0  0  0  0  0  0  0  0
   -3.8766    3.6762   -2.3070 H   0  0  0  0  0  0  0  0  0  0  0  0
   -5.6103    3.6326   -2.1007 H   0  0  0  0  0  0  0  0  0  0  0  0
   -4.9324    5.1662   -2.4777 H   0  0  0  0  0  0  0  0  0  0  0  0
   -5.7163    4.0735    1.3375 H   0  0  0  0  0  0  0  0  0  0  0  0
   -6.4493    5.9052    0.2651 H   0  0  0  0  0  0  0  0  0  0  0  0
   -6.7620    5.1329   -1.2738 H   0  0  0  0  0  0  0  0  0  0  0  0
   -8.3666    4.9114    1.3808 H   0  0  0  0  0  0  0  0  0  0  0  0
   -9.9104    3.9619   -0.8405 H   0  0  0  0  0  0  0  0  0  0  0  0
   -9.3228    2.9477    0.5406 H   0  0  0  0  0  0  0  0  0  0  0  0
   -8.3709    3.1620   -1.0585 H   0  0  0  0  0  0  0  0  0  0  0  0
   -8.7215    6.2800   -1.2882 H   0  0  0  0  0  0  0  0  0  0  0  0
   -8.7102    6.9365    0.3614 H   0  0  0  0  0  0  0  0  0  0  0  0
  -10.0761    5.9066   -0.0976 H   0  0  0  0  0  0  0  0  0  0  0  0
   -4.4886   -0.0678   -1.7526 H   0  0  0  0  0  0  0  0  0  0  0  0
   -4.7687    1.4473   -2.5470 H   0  0  0  0  0  0  0  0  0  0  0  0
   -3.5695    1.2622   -1.1365 H   0  0  0  0  0  0  0  0  0  0  0  0
   -7.3770    0.1855    0.1727 H   0  0  0  0  0  0  0  0  0  0  0  0
   -6.1947   -0.5878   -2.5375 H   0  0  0  0  0  0  0  0  0  0  0  0
   -8.6977    0.9449   -1.8381 H   0  0  0  0  0  0  0  0  0  0  0  0
   -8.0554    0.4087   -3.4505 H   0  0  0  0  0  0  0  0  0  0  0  0
   -7.1876    1.6979   -2.5220 H   0  0  0  0  0  0  0  0  0  0  0  0
   -8.4893   -1.4710   -2.7264 H   0  0  0  0  0  0  0  0  0  0  0  0
   -8.6467   -1.4415   -0.9619 H   0  0  0  0  0  0  0  0  0  0  0  0
   -7.4062   -2.5085   -1.8165 H   0  0  0  0  0  0  0  0  0  0  0  0
   -4.1891    0.1621    2.5688 H   0  0  0  0  0  0  0  0  0  0  0  0
   -5.7190   -0.6379    3.2305 H   0  0  0  0  0  0  0  0  0  0  0  0
   -4.1375   -1.3907    3.3019 H   0  0  0  0  0  0  0  0  0  0  0  0
  1  2  1  0
  2  3  2  0
  3  4  1  0
  4  5  1  0
  5  6  1  0
  5  7  1  0
  7  8  1  0
  7  9  1  0
  9 10  1  0
 10 11  2  0
 10 12  1  0
 12 13  1  0
 13 14  1  0
 14 15  1  0
 13 16  1  0
 16 17  2  0
 16 18  1  0
 18 19  1  0
 18 20  1  0
 20 21  1  0
 21 22  2  0
 21 23  1  0
 23 24  1  0
 23 25  1  0
 25 26  1  0
 26 27  1  0
 27 28  1  0
 27 29  1  0
 25 30  1  0
 30 31  2  0
 30 32  1  0
 32 33  1  0
 33 34  1  0
 34 35  1  0
 34 36  1  0
 33 37  1  0
 37 38  2  0
 37 39  1  0
 39 40  1  0
 39 41  1  0
 41 42  1  0
 42 43  1  0
 43 44  1  0
 43 45  1  0
 41 46  1  0
 46 47  2  0
 46 48  1  0
 48 49  1  0
 49 50  1  0
 49 51  1  0
 51 52  2  0
 51 53  1  0
 53 54  1  0
 54 55  1  0
 54 56  1  0
 56 57  2  0
 56 58  1  0
 58 59  1  0
 58 60  1  0
 60 61  1  0
 61 62  1  0
 62 63  1  0
 62 64  1  0
 60 65  1  0
 65 66  2  0
 65 67  1  0
 67 68  1  0
 67 69  1  0
 69 70  1  0
 70 71  1  0
 71 72  1  0
 71 73  1  0
 69 74  1  0
 74 75  2  0
 74 76  1  0
 76 77  1  0
 76 78  1  0
 78 79  1  0
 79 80  1  0
 79 81  1  0
 78 82  1  0
 82 83  2  0
 82 84  1  0
 84 85  1  0
 84  9  1  0
  1 86  1  0
  1 87  1  0
  1 88  1  0
  2 89  1  0
  3 90  1  0
  4 91  1  0
  4 92  1  0
  5 93  1  1
  6 94  1  0
  6 95  1  0
  6 96  1  0
  7 97  1  6
  8 98  1  0
  9 99  1  1
 12100  1  0
 13101  1  6
 14102  1  0
 14103  1  0
 15104  1  0
 15105  1  0
 15106  1  0
 19107  1  0
 19108  1  0
 19109  1  0
 20110  1  0
 20111  1  0
 24112  1  0
 24113  1  0
 24114  1  0
 25115  1  1
 26116  1  0
 26117  1  0
 27118  1  0
 28119  1  0
 28120  1  0
 28121  1  0
 29122  1  0
 29123  1  0
 29124  1  0
 32125  1  0
 33126  1  6
 34127  1  0
 35128  1  0
 35129  1  0
 35130  1  0
 36131  1  0
 36132  1  0
 36133  1  0
 40134  1  0
 40135  1  0
 40136  1  0
 41137  1  1
 42138  1  0
 42139  1  0
 43140  1  0
 44141  1  0
 44142  1  0
 44143  1  0
 45144  1  0
 45145  1  0
 45146  1  0
 48147  1  0
 49148  1  1
 50149  1  0
 50150  1  0
 50151  1  0
 53152  1  0
 54153  1  6
 55154  1  0
 55155  1  0
 55156  1  0
 59157  1  0
 59158  1  0
 59159  1  0
 60160  1  1
 61161  1  0
 61162  1  0
 62163  1  0
 63164  1  0
 63165  1  0
 63166  1  0
 64167  1  0
 64168  1  0
 64169  1  0
 68170  1  0
 68171  1  0
 68172  1  0
 69173  1  1
 70174  1  0
 70175  1  0
 71176  1  0
 72177  1  0
 72178  1  0
 72179  1  0
 73180  1  0
 73181  1  0
 73182  1  0
 77183  1  0
 77184  1  0
 77185  1  0
 78186  1  1
 79187  1  0
 80188  1  0
 80189  1  0
 80190  1  0
 81191  1  0
 81192  1  0
 81193  1  0
 85194  1  0
 85195  1  0
 85196  1  0
M  END
$$$$
