@<TRIPOS>MOLECULE
*****
 27 29 0 0 0
SMALL
GASTEIGER

@<TRIPOS>ATOM
      1 O          -2.7663    2.6358    0.1929 O.2     1  UNL1       -0.2701
      2 C          -2.6949    1.3908    0.1462 C.2     1  UNL1        0.2458
      3 N          -3.8739    0.5793    0.0542 N.am    1  UNL1       -0.3109
      4 C          -3.7030   -0.6950   -0.6231 C.3     1  UNL1        0.0172
      5 C          -2.6248   -1.4882    0.0697 C.3     1  UNL1        0.0038
      6 C          -1.3716   -0.7182    0.1317 C.ar    1  UNL1        0.0301
      7 N          -0.0536   -1.0340    0.1687 N.ar    1  UNL1       -0.3573
      8 C           0.7172    0.0384    0.2381 C.ar    1  UNL1        0.0475
      9 C           2.1764    0.1244    0.2959 C.ar    1  UNL1        0.0012
     10 C           2.9586   -1.0120    0.2820 C.ar    1  UNL1       -0.0345
     11 C           4.3290   -0.8685    0.3386 C.ar    1  UNL1        0.0282
     12 N           4.9245    0.3189    0.4060 N.ar    1  UNL1       -0.2632
     13 C           4.2012    1.4471    0.4218 C.ar    1  UNL1        0.0282
     14 C           2.8232    1.3367    0.3661 C.ar    1  UNL1       -0.0345
     15 C          -0.1316    1.1172    0.2474 C.ar    1  UNL1       -0.0240
     16 C          -1.4226    0.6481    0.1812 C.ar    1  UNL1        0.0578
     17 H          -4.7710    0.9220    0.4599 H       1  UNL1        0.1490
     18 H          -4.6646   -1.2551   -0.6706 H       1  UNL1        0.0466
     19 H          -3.3536   -0.4817   -1.6546 H       1  UNL1        0.0466
     20 H          -2.4993   -2.4727   -0.4345 H       1  UNL1        0.0343
     21 H          -2.9877   -1.6394    1.1288 H       1  UNL1        0.0343
     22 H           0.2831   -2.0263    0.1434 H       1  UNL1        0.1656
     23 H           2.4894   -1.9773    0.2277 H       1  UNL1        0.0639
     24 H           4.9712   -1.7426    0.3294 H       1  UNL1        0.0830
     25 H           4.6191    2.4372    0.4751 H       1  UNL1        0.0830
     26 H           2.2272    2.2468    0.3785 H       1  UNL1        0.0639
     27 H           0.1983    2.1681    0.2998 H       1  UNL1        0.0646
@<TRIPOS>BOND
     1     1     2    2
     2     2     3   am
     3     3     4    1
     4     4     5    1
     5     5     6    1
     6     6     7   ar
     7     7     8   ar
     8     8     9    1
     9     9    10   ar
    10    10    11   ar
    11    11    12   ar
    12    12    13   ar
    13    13    14   ar
    14     8    15   ar
    15    15    16   ar
    16    16     2    1
    17    16     6   ar
    18    14     9   ar
    19     3    17    1
    20     4    18    1
    21     4    19    1
    22     5    20    1
    23     5    21    1
    24     7    22    1
    25    10    23    1
    26    11    24    1
    27    13    25    1
    28    14    26    1
    29    15    27    1
