
     RDKit          3D

 27 29  0  0  0  0  0  0  0  0999 V2000
   -2.7663    2.6358    0.1929 O   0  0  0  0  0  0  0  0  0  0  0  0
   -2.6949    1.3908    0.1462 C   0  0  0  0  0  0  0  0  0  0  0  0
   -3.8739    0.5793    0.0542 N   0  0  0  0  0  0  0  0  0  0  0  0
   -3.7030   -0.6950   -0.6231 C   0  0  0  0  0  0  0  0  0  0  0  0
   -2.6248   -1.4882    0.0697 C   0  0  0  0  0  0  0  0  0  0  0  0
   -1.3716   -0.7182    0.1317 C   0  0  0  0  0  0  0  0  0  0  0  0
   -0.0536   -1.0340    0.1687 N   0  0  0  0  0  0  0  0  0  0  0  0
    0.7172    0.0384    0.2381 C   0  0  0  0  0  0  0  0  0  0  0  0
    2.1764    0.1244    0.2959 C   0  0  0  0  0  0  0  0  0  0  0  0
    2.9586   -1.0120    0.2820 C   0  0  0  0  0  0  0  0  0  0  0  0
    4.3290   -0.8685    0.3386 C   0  0  0  0  0  0  0  0  0  0  0  0
    4.9245    0.3189    0.4060 N   0  0  0  0  0  0  0  0  0  0  0  0
    4.2012    1.4471    0.4218 C   0  0  0  0  0  0  0  0  0  0  0  0
    2.8232    1.3367    0.3661 C   0  0  0  0  0  0  0  0  0  0  0  0
   -0.1316    1.1172    0.2474 C   0  0  0  0  0  0  0  0  0  0  0  0
   -1.4226    0.6481    0.1812 C   0  0  0  0  0  0  0  0  0  0  0  0
   -4.7710    0.9220    0.4599 H   0  0  0  0  0  0  0  0  0  0  0  0
   -4.6646   -1.2551   -0.6706 H   0  0  0  0  0  0  0  0  0  0  0  0
   -3.3536   -0.4817   -1.6546 H   0  0  0  0  0  0  0  0  0  0  0  0
   -2.4993   -2.4727   -0.4345 H   0  0  0  0  0  0  0  0  0  0  0  0
   -2.9877   -1.6394    1.1288 H   0  0  0  0  0  0  0  0  0  0  0  0
    0.2831   -2.0263    0.1434 H   0  0  0  0  0  0  0  0  0  0  0  0
    2.4894   -1.9773    0.2277 H   0  0  0  0  0  0  0  0  0  0  0  0
    4.9712   -1.7426    0.3294 H   0  0  0  0  0  0  0  0  0  0  0  0
    4.6191    2.4372    0.4751 H   0  0  0  0  0  0  0  0  0  0  0  0
    2.2272    2.2468    0.3785 H   0  0  0  0  0  0  0  0  0  0  0  0
    0.1983    2.1681    0.2998 H   0  0  0  0  0  0  0  0  0  0  0  0
  1  2  2  0
  2  3  1  0
  3  4  1  0
  4  5  1  0
  5  6  1  0
  6  7  1  0
  7  8  1  0
  8  9  1  0
  9 10  2  0
 10 11  1  0
 11 12  2  0
 12 13  1  0
 13 14  2  0
  8 15  2  0
 15 16  1  0
 16  2  1  0
 16  6  2  0
 14  9  1  0
  3 17  1  0
  4 18  1  0
  4 19  1  0
  5 20  1  0
  5 21  1  0
  7 22  1  0
 10 23  1  0
 11 24  1  0
 13 25  1  0
 14 26  1  0
 15 27  1  0
M  END
$$$$
