@<TRIPOS>MOLECULE
*****
 52 54 0 0 0
SMALL
GASTEIGER

@<TRIPOS>ATOM
      1 C          -5.9662    2.0739   -1.4204 C.3     1  UNL1        0.0366
      2 O          -6.1952    1.4428   -0.2230 O.3     1  UNL1       -0.3796
      3 C          -5.5916    2.0342    0.8655 C.3     1  UNL1        0.0814
      4 C          -4.0930    2.1111    0.7776 C.3     1  UNL1        0.1130
      5 O          -3.5080    0.8328    0.6666 O.3     1  UNL1       -0.4860
      6 C          -2.1304    0.7391    0.5759 C.ar    1  UNL1        0.1641
      7 C          -1.4313    1.9536    0.6032 C.ar    1  UNL1        0.0098
      8 C          -0.0491    1.9543    0.5179 C.ar    1  UNL1        0.0797
      9 C           0.6852    0.8115    0.4065 C.ar    1  UNL1        0.0441
     10 C          -0.0609   -0.3395    0.3862 C.ar    1  UNL1       -0.0038
     11 C          -1.4254   -0.4736    0.4619 C.ar    1  UNL1        0.1628
     12 O          -2.2923   -1.5062    0.4524 O.3     1  UNL1       -0.4860
     13 C          -1.9917   -2.8418    0.3264 C.3     1  UNL1        0.1130
     14 C          -1.3540   -3.2735   -0.9512 C.3     1  UNL1        0.0814
     15 O          -2.1158   -3.0179   -2.0808 O.3     1  UNL1       -0.3796
     16 C          -3.3198   -3.6682   -2.0257 C.3     1  UNL1        0.0366
     17 C           2.0580    0.7957    0.3218 C.ar    1  UNL1        0.1340
     18 N           2.7840   -0.3945    0.2014 N.pl3   1  UNL1       -0.2988
     19 C           4.1708   -0.5770    0.1341 C.ar    1  UNL1        0.0335
     20 C           5.0806    0.4423    0.3026 C.ar    1  UNL1       -0.0251
     21 C           6.4507    0.3120    0.2402 C.ar    1  UNL1        0.0264
     22 C           6.9996   -0.9255   -0.0100 C.ar    1  UNL1       -0.0462
     23 C           6.1473   -1.9880   -0.1882 C.ar    1  UNL1       -0.0589
     24 C           4.7957   -1.7805   -0.1116 C.ar    1  UNL1       -0.0404
     25 C           7.3770    1.3911    0.4201 C.1     1  UNL1       -0.0696
     26 C           8.1522    2.2983    0.5921 C.1     1  UNL1       -0.1139
     27 N           2.5887    2.0217    0.3611 N.ar    1  UNL1       -0.2200
     28 C           1.9527    3.1758    0.4672 C.ar    1  UNL1        0.1187
     29 N           0.6181    3.1397    0.5464 N.ar    1  UNL1       -0.2352
     30 H          -6.4870    1.5439   -2.2695 H       1  UNL1        0.0524
     31 H          -4.8619    2.0664   -1.6330 H       1  UNL1        0.0524
     32 H          -6.3866    3.0900   -1.3801 H       1  UNL1        0.0524
     33 H          -5.9527    3.0728    1.0585 H       1  UNL1        0.0593
     34 H          -5.8716    1.4058    1.7555 H       1  UNL1        0.0593
     35 H          -3.7435    2.5226    1.7571 H       1  UNL1        0.0720
     36 H          -3.8321    2.8048   -0.0396 H       1  UNL1        0.0720
     37 H          -1.9060    2.9204    0.6888 H       1  UNL1        0.0677
     38 H           0.4196   -1.2967    0.3205 H       1  UNL1        0.0663
     39 H          -2.9151   -3.4622    0.5031 H       1  UNL1        0.0720
     40 H          -1.3080   -3.1959    1.1579 H       1  UNL1        0.0720
     41 H          -0.3693   -2.8620   -1.1345 H       1  UNL1        0.0593
     42 H          -1.2354   -4.3893   -0.8754 H       1  UNL1        0.0593
     43 H          -3.1960   -4.7793   -1.9391 H       1  UNL1        0.0524
     44 H          -3.9129   -3.5476   -2.9665 H       1  UNL1        0.0524
     45 H          -3.9389   -3.2896   -1.2024 H       1  UNL1        0.0524
     46 H           2.3087   -1.2995    0.1488 H       1  UNL1        0.1536
     47 H           4.8050    1.4641    0.5069 H       1  UNL1        0.0648
     48 H           8.0527   -1.1250   -0.0769 H       1  UNL1        0.0630
     49 H           6.5484   -2.9670   -0.3851 H       1  UNL1        0.0619
     50 H           4.1691   -2.6754   -0.2643 H       1  UNL1        0.0636
     51 H           8.8310    3.1155    0.7551 H       1  UNL1        0.1232
     52 H           2.4467    4.1395    0.4933 H       1  UNL1        0.1048
@<TRIPOS>BOND
     1     1     2    1
     2     2     3    1
     3     3     4    1
     4     4     5    1
     5     5     6    1
     6     6     7   ar
     7     7     8   ar
     8     8     9   ar
     9     9    10   ar
    10    10    11   ar
    11    11    12    1
    12    12    13    1
    13    13    14    1
    14    14    15    1
    15    15    16    1
    16     9    17   ar
    17    17    18    1
    18    18    19    1
    19    19    20   ar
    20    20    21   ar
    21    21    22   ar
    22    22    23   ar
    23    23    24   ar
    24    21    25    1
    25    25    26    3
    26    17    27   ar
    27    27    28   ar
    28    28    29   ar
    29    11     6   ar
    30    24    19   ar
    31    29     8   ar
    32     1    30    1
    33     1    31    1
    34     1    32    1
    35     3    33    1
    36     3    34    1
    37     4    35    1
    38     4    36    1
    39     7    37    1
    40    10    38    1
    41    13    39    1
    42    13    40    1
    43    14    41    1
    44    14    42    1
    45    16    43    1
    46    16    44    1
    47    16    45    1
    48    18    46    1
    49    20    47    1
    50    22    48    1
    51    23    49    1
    52    24    50    1
    53    26    51    1
    54    28    52    1
