@<TRIPOS>MOLECULE
*****
 46 47 0 0 0
SMALL
GASTEIGER

@<TRIPOS>ATOM
      1 C           3.9009   -0.2582   -1.3357 C.3     1  UNL1       -0.0129
      2 N           3.1289    0.0011   -0.0887 N.3     1  UNL1       -0.3051
      3 C           3.9562    1.0369    0.5650 C.3     1  UNL1       -0.0129
      4 C           3.1748   -1.2211    0.6814 C.3     1  UNL1        0.0326
      5 C           2.3671   -1.2485    1.9228 C.3     1  UNL1        0.1051
      6 O           0.9878   -1.0855    1.7922 O.3     1  UNL1       -0.4629
      7 C           0.2718   -0.0475    1.2870 C.2     1  UNL1        0.3174
      8 O           0.7918    0.9900    0.8334 O.2     1  UNL1       -0.2501
      9 C          -1.1528    0.1857    1.1217 C.3     1  UNL1        0.1100
     10 C          -1.4639    1.5214    0.5329 C.ar    1  UNL1       -0.0310
     11 C          -2.3318    2.3973    1.1772 C.ar    1  UNL1       -0.0577
     12 C          -2.6828    3.6569    0.7229 C.ar    1  UNL1       -0.0615
     13 C          -2.1105    4.0533   -0.4712 C.ar    1  UNL1       -0.0617
     14 C          -1.2413    3.2380   -1.1657 C.ar    1  UNL1       -0.0615
     15 C          -0.9527    2.0071   -0.6375 C.ar    1  UNL1       -0.0577
     16 C          -1.9260   -0.8345    0.3645 C.3     1  UNL1        0.0830
     17 O          -3.2983   -0.4960    0.2730 O.3     1  UNL1       -0.3874
     18 C          -1.4808   -1.1001   -1.0362 C.3     1  UNL1       -0.0229
     19 C          -2.3115   -2.3307   -1.3861 C.3     1  UNL1       -0.0503
     20 C          -2.5140   -3.0515   -0.0755 C.3     1  UNL1       -0.0503
     21 C          -1.8035   -2.2328    0.9800 C.3     1  UNL1       -0.0229
     22 H           3.3304   -0.9316   -1.9766 H       1  UNL1        0.0391
     23 H           4.1124    0.7322   -1.7596 H       1  UNL1        0.0391
     24 H           4.8547   -0.7328   -0.9908 H       1  UNL1        0.0391
     25 H           4.9245    0.6058    0.8907 H       1  UNL1        0.0391
     26 H           3.4061    1.5828    1.3468 H       1  UNL1        0.0391
     27 H           4.1830    1.7702   -0.2384 H       1  UNL1        0.0391
     28 H           2.9301   -2.0635   -0.0146 H       1  UNL1        0.0460
     29 H           4.2690   -1.3833    0.8944 H       1  UNL1        0.0460
     30 H           2.7656   -0.5886    2.7280 H       1  UNL1        0.0710
     31 H           2.4984   -2.2855    2.3561 H       1  UNL1        0.0710
     32 H          -1.6517    0.2333    2.1392 H       1  UNL1        0.0491
     33 H          -2.8036    2.1101    2.1293 H       1  UNL1        0.0621
     34 H          -3.3616    4.2805    1.2730 H       1  UNL1        0.0618
     35 H          -2.3786    5.0410   -0.8342 H       1  UNL1        0.0618
     36 H          -0.8093    3.5657   -2.0892 H       1  UNL1        0.0618
     37 H          -0.2741    1.4001   -1.1984 H       1  UNL1        0.0621
     38 H          -3.4695    0.0142   -0.5591 H       1  UNL1        0.2102
     39 H          -1.7850   -0.3358   -1.7793 H       1  UNL1        0.0293
     40 H          -0.3993   -1.3417   -1.1306 H       1  UNL1        0.0293
     41 H          -3.3067   -1.9681   -1.6944 H       1  UNL1        0.0266
     42 H          -1.8160   -2.9493   -2.1585 H       1  UNL1        0.0266
     43 H          -3.5626   -3.2161    0.1829 H       1  UNL1        0.0266
     44 H          -1.9454   -4.0168   -0.1377 H       1  UNL1        0.0266
     45 H          -0.7238   -2.4541    1.0252 H       1  UNL1        0.0293
     46 H          -2.2965   -2.2500    1.9612 H       1  UNL1        0.0293
@<TRIPOS>BOND
     1     1     2    1
     2     2     3    1
     3     2     4    1
     4     4     5    1
     5     5     6    1
     6     6     7    1
     7     7     8    2
     8     7     9    1
     9     9    10    1
    10    10    11   ar
    11    11    12   ar
    12    12    13   ar
    13    13    14   ar
    14    14    15   ar
    15     9    16    1
    16    16    17    1
    17    16    18    1
    18    18    19    1
    19    19    20    1
    20    20    21    1
    21    15    10   ar
    22    21    16    1
    23     1    22    1
    24     1    23    1
    25     1    24    1
    26     3    25    1
    27     3    26    1
    28     3    27    1
    29     4    28    1
    30     4    29    1
    31     5    30    1
    32     5    31    1
    33     9    32    1
    34    11    33    1
    35    12    34    1
    36    13    35    1
    37    14    36    1
    38    15    37    1
    39    17    38    1
    40    18    39    1
    41    18    40    1
    42    19    41    1
    43    19    42    1
    44    20    43    1
    45    20    44    1
    46    21    45    1
    47    21    46    1
