@<TRIPOS>MOLECULE
*****
 42 43 0 0 0
SMALL
GASTEIGER

@<TRIPOS>ATOM
      1 O          -7.6756    1.5666   -0.1806 O.3     1  UNL1       -0.4806
      2 C          -7.6127    0.2990   -0.7030 C.2     1  UNL1        0.3047
      3 O          -8.8696    0.0830   -0.7944 O.2     1  UNL1       -0.2510
      4 C          -6.7756   -0.8115   -1.1593 C.3     1  UNL1        0.0452
      5 C          -5.2964   -0.5724   -1.0582 C.3     1  UNL1       -0.0347
      6 C          -4.7828   -0.3012    0.3112 C.3     1  UNL1        0.0248
      7 C          -3.2961   -0.0949    0.1703 C.2     1  UNL1        0.2172
      8 O          -2.9235   -0.2087   -1.0380 O.2     1  UNL1       -0.2755
      9 N          -2.4736    0.1913    1.3129 N.am    1  UNL1       -0.2855
     10 C          -1.0866    0.3641    1.0424 C.ar    1  UNL1        0.0334
     11 C          -0.3079   -0.7743    1.0976 C.ar    1  UNL1       -0.0399
     12 C           1.0463   -0.6882    0.8474 C.ar    1  UNL1       -0.0528
     13 C           1.6954    0.4864    0.5375 C.ar    1  UNL1       -0.0249
     14 C           3.1190    0.5974    0.2710 C.2     1  UNL1       -0.0540
     15 C           3.9840   -0.3831    0.2847 C.2     1  UNL1       -0.0540
     16 C           5.4162   -0.3060    0.0224 C.ar    1  UNL1       -0.0250
     17 C           6.2408   -1.4074    0.0633 C.ar    1  UNL1       -0.0546
     18 C           7.5924   -1.3190   -0.1869 C.ar    1  UNL1       -0.0612
     19 C           8.1947   -0.1162   -0.4933 C.ar    1  UNL1       -0.0617
     20 C           7.4024    1.0108   -0.5441 C.ar    1  UNL1       -0.0612
     21 C           6.0547    0.8734   -0.2864 C.ar    1  UNL1       -0.0546
     22 C           0.8811    1.5962    0.4934 C.ar    1  UNL1       -0.0528
     23 C          -0.4739    1.5458    0.7377 C.ar    1  UNL1       -0.0399
     24 H          -7.8826    1.7364    0.8047 H       1  UNL1        0.2951
     25 H          -7.1001   -1.7447   -0.6844 H       1  UNL1        0.0378
     26 H          -6.9884   -0.9483   -2.2499 H       1  UNL1        0.0378
     27 H          -4.8075   -1.5226   -1.4006 H       1  UNL1        0.0275
     28 H          -4.9320    0.1972   -1.7549 H       1  UNL1        0.0275
     29 H          -4.9419   -1.1050    1.0320 H       1  UNL1        0.0358
     30 H          -5.1873    0.6512    0.7192 H       1  UNL1        0.0358
     31 H          -2.9888    0.2409    2.2198 H       1  UNL1        0.1548
     32 H          -0.7473   -1.7534    1.3382 H       1  UNL1        0.0636
     33 H           1.6114   -1.6025    0.9022 H       1  UNL1        0.0624
     34 H           3.5250    1.5687    0.0376 H       1  UNL1        0.0624
     35 H           3.5914   -1.3770    0.5196 H       1  UNL1        0.0624
     36 H           5.7964   -2.3752    0.3029 H       1  UNL1        0.0623
     37 H           8.1583   -2.2424   -0.1307 H       1  UNL1        0.0618
     38 H           9.2567   -0.1011   -0.6807 H       1  UNL1        0.0618
     39 H           7.8609    1.9603   -0.7831 H       1  UNL1        0.0618
     40 H           5.5058    1.8015   -0.3463 H       1  UNL1        0.0623
     41 H           1.3265    2.5594    0.2544 H       1  UNL1        0.0624
     42 H          -1.1093    2.4255    0.7010 H       1  UNL1        0.0636
@<TRIPOS>BOND
     1     1     2    1
     2     2     3    2
     3     2     4    1
     4     4     5    1
     5     5     6    1
     6     6     7    1
     7     7     8    2
     8     7     9   am
     9     9    10    1
    10    10    11   ar
    11    11    12   ar
    12    12    13   ar
    13    13    14    1
    14    14    15    2
    15    15    16    1
    16    16    17   ar
    17    17    18   ar
    18    18    19   ar
    19    19    20   ar
    20    20    21   ar
    21    13    22   ar
    22    22    23   ar
    23    23    10   ar
    24    21    16   ar
    25     1    24    1
    26     4    25    1
    27     4    26    1
    28     5    27    1
    29     5    28    1
    30     6    29    1
    31     6    30    1
    32     9    31    1
    33    11    32    1
    34    12    33    1
    35    14    34    1
    36    15    35    1
    37    17    36    1
    38    18    37    1
    39    19    38    1
    40    20    39    1
    41    21    40    1
    42    22    41    1
    43    23    42    1
