@<TRIPOS>MOLECULE
*****
 41 43 0 0 0
SMALL
GASTEIGER

@<TRIPOS>ATOM
      1 C          -5.4773    2.2356   -0.1436 C.3     1  UNL1        0.0788
      2 O          -4.1408    1.7966    0.0096 O.3     1  UNL1       -0.4948
      3 C          -3.8065    0.4919   -0.3055 C.ar    1  UNL1        0.1236
      4 C          -4.7573   -0.3843   -0.7660 C.ar    1  UNL1       -0.0197
      5 C          -4.4277   -1.6847   -1.0808 C.ar    1  UNL1       -0.0580
      6 C          -3.1084   -2.0753   -0.9170 C.ar    1  UNL1       -0.0568
      7 C          -2.1410   -1.1935   -0.4514 C.ar    1  UNL1       -0.0250
      8 C          -2.4697    0.0979   -0.1390 C.ar    1  UNL1       -0.0000
      9 C          -1.4662    1.0686    0.3611 C.3     1  UNL1       -0.0095
     10 C          -0.0534    0.6111    0.0721 C.3     1  UNL1        0.0250
     11 N           0.0374   -0.7475    0.3772 N.3     1  UNL1       -0.1720
     12 S           1.2903   -1.2863    1.3416 S.O2    1  UNL1        0.0612
     13 O           1.2665   -0.5639    2.6612 O.2     1  UNL1       -0.1528
     14 O           1.1968   -2.7520    1.6461 O.2     1  UNL1       -0.1528
     15 C           2.8262   -0.9703    0.5968 C.ar    1  UNL1        0.1063
     16 C           3.3661   -1.9367   -0.2365 C.ar    1  UNL1       -0.0353
     17 C           4.5866   -1.6701   -0.8201 C.ar    1  UNL1       -0.0591
     18 C           5.2672   -0.4860   -0.5963 C.ar    1  UNL1       -0.0477
     19 C           4.7402    0.4836    0.2311 C.ar    1  UNL1        0.0607
     20 C           5.4366    1.7445    0.4862 C.2     1  UNL1        0.3369
     21 O           6.5462    1.9515   -0.0632 O.2     1  UNL1       -0.2451
     22 O           4.9100    2.7066    1.3093 O.3     1  UNL1       -0.4771
     23 C           3.5147    0.2056    0.8116 C.ar    1  UNL1       -0.0214
     24 C          -0.7523   -1.6660   -0.2986 C.3     1  UNL1        0.0459
     25 H          -6.2038    1.5308    0.3419 H       1  UNL1        0.0660
     26 H          -5.6901    2.3120   -1.2165 H       1  UNL1        0.0660
     27 H          -5.6260    3.2061    0.3908 H       1  UNL1        0.0660
     28 H          -5.7595   -0.0460   -0.8782 H       1  UNL1        0.0654
     29 H          -5.1601   -2.4048   -1.4489 H       1  UNL1        0.0619
     30 H          -2.8076   -3.0935   -1.1544 H       1  UNL1        0.0621
     31 H          -1.5663    1.0773    1.4789 H       1  UNL1        0.0327
     32 H          -1.6619    2.0742   -0.0635 H       1  UNL1        0.0327
     33 H           0.6442    1.1959    0.6985 H       1  UNL1        0.0447
     34 H           0.2095    0.7700   -1.0107 H       1  UNL1        0.0447
     35 H           2.8514   -2.8724   -0.4271 H       1  UNL1        0.0637
     36 H           4.9848   -2.4563   -1.4736 H       1  UNL1        0.0618
     37 H           6.2326   -0.3346   -1.0895 H       1  UNL1        0.0626
     38 H           5.2202    3.6670    1.3467 H       1  UNL1        0.2954
     39 H           3.1023    0.9724    1.4632 H       1  UNL1        0.0645
     40 H          -0.8043   -2.6179    0.2764 H       1  UNL1        0.0493
     41 H          -0.3494   -1.9143   -1.3199 H       1  UNL1        0.0493
@<TRIPOS>BOND
     1     1     2    1
     2     2     3    1
     3     3     4   ar
     4     4     5   ar
     5     5     6   ar
     6     6     7   ar
     7     7     8   ar
     8     8     9    1
     9     9    10    1
    10    10    11    1
    11    11    12    1
    12    12    13    2
    13    12    14    2
    14    12    15    1
    15    15    16   ar
    16    16    17   ar
    17    17    18   ar
    18    18    19   ar
    19    19    20    1
    20    20    21    2
    21    20    22    1
    22    19    23   ar
    23    11    24    1
    24     8     3   ar
    25    23    15   ar
    26    24     7    1
    27     1    25    1
    28     1    26    1
    29     1    27    1
    30     4    28    1
    31     5    29    1
    32     6    30    1
    33     9    31    1
    34     9    32    1
    35    10    33    1
    36    10    34    1
    37    16    35    1
    38    17    36    1
    39    18    37    1
    40    22    38    1
    41    23    39    1
    42    24    40    1
    43    24    41    1
