
     RDKit          3D

 41 43  0  0  0  0  0  0  0  0999 V2000
   -5.4773    2.2356   -0.1436 C   0  0  0  0  0  0  0  0  0  0  0  0
   -4.1408    1.7966    0.0096 O   0  0  0  0  0  0  0  0  0  0  0  0
   -3.8065    0.4919   -0.3055 C   0  0  0  0  0  0  0  0  0  0  0  0
   -4.7573   -0.3843   -0.7660 C   0  0  0  0  0  0  0  0  0  0  0  0
   -4.4277   -1.6847   -1.0808 C   0  0  0  0  0  0  0  0  0  0  0  0
   -3.1084   -2.0753   -0.9170 C   0  0  0  0  0  0  0  0  0  0  0  0
   -2.1410   -1.1935   -0.4514 C   0  0  0  0  0  0  0  0  0  0  0  0
   -2.4697    0.0979   -0.1390 C   0  0  0  0  0  0  0  0  0  0  0  0
   -1.4662    1.0686    0.3611 C   0  0  0  0  0  0  0  0  0  0  0  0
   -0.0534    0.6111    0.0721 C   0  0  0  0  0  0  0  0  0  0  0  0
    0.0374   -0.7475    0.3772 N   0  0  0  0  0  0  0  0  0  0  0  0
    1.2903   -1.2863    1.3416 S   0  0  0  0  0  6  0  0  0  0  0  0
    1.2665   -0.5639    2.6612 O   0  0  0  0  0  0  0  0  0  0  0  0
    1.1968   -2.7520    1.6461 O   0  0  0  0  0  0  0  0  0  0  0  0
    2.8262   -0.9703    0.5968 C   0  0  0  0  0  0  0  0  0  0  0  0
    3.3661   -1.9367   -0.2365 C   0  0  0  0  0  0  0  0  0  0  0  0
    4.5866   -1.6701   -0.8201 C   0  0  0  0  0  0  0  0  0  0  0  0
    5.2672   -0.4860   -0.5963 C   0  0  0  0  0  0  0  0  0  0  0  0
    4.7402    0.4836    0.2311 C   0  0  0  0  0  0  0  0  0  0  0  0
    5.4366    1.7445    0.4862 C   0  0  0  0  0  0  0  0  0  0  0  0
    6.5462    1.9515   -0.0632 O   0  0  0  0  0  0  0  0  0  0  0  0
    4.9100    2.7066    1.3093 O   0  0  0  0  0  0  0  0  0  0  0  0
    3.5147    0.2056    0.8116 C   0  0  0  0  0  0  0  0  0  0  0  0
   -0.7523   -1.6660   -0.2986 C   0  0  0  0  0  0  0  0  0  0  0  0
   -6.2038    1.5308    0.3419 H   0  0  0  0  0  0  0  0  0  0  0  0
   -5.6901    2.3120   -1.2165 H   0  0  0  0  0  0  0  0  0  0  0  0
   -5.6260    3.2061    0.3908 H   0  0  0  0  0  0  0  0  0  0  0  0
   -5.7595   -0.0460   -0.8782 H   0  0  0  0  0  0  0  0  0  0  0  0
   -5.1601   -2.4048   -1.4489 H   0  0  0  0  0  0  0  0  0  0  0  0
   -2.8076   -3.0935   -1.1544 H   0  0  0  0  0  0  0  0  0  0  0  0
   -1.5663    1.0773    1.4789 H   0  0  0  0  0  0  0  0  0  0  0  0
   -1.6619    2.0742   -0.0635 H   0  0  0  0  0  0  0  0  0  0  0  0
    0.6442    1.1959    0.6985 H   0  0  0  0  0  0  0  0  0  0  0  0
    0.2095    0.7700   -1.0107 H   0  0  0  0  0  0  0  0  0  0  0  0
    2.8514   -2.8724   -0.4271 H   0  0  0  0  0  0  0  0  0  0  0  0
    4.9848   -2.4563   -1.4736 H   0  0  0  0  0  0  0  0  0  0  0  0
    6.2326   -0.3346   -1.0895 H   0  0  0  0  0  0  0  0  0  0  0  0
    5.2202    3.6670    1.3467 H   0  0  0  0  0  0  0  0  0  0  0  0
    3.1023    0.9724    1.4632 H   0  0  0  0  0  0  0  0  0  0  0  0
   -0.8043   -2.6179    0.2764 H   0  0  0  0  0  0  0  0  0  0  0  0
   -0.3494   -1.9143   -1.3199 H   0  0  0  0  0  0  0  0  0  0  0  0
  1  2  1  0
  2  3  1  0
  3  4  2  0
  4  5  1  0
  5  6  2  0
  6  7  1  0
  7  8  2  0
  8  9  1  0
  9 10  1  0
 10 11  1  0
 11 12  1  0
 12 13  2  0
 12 14  2  0
 12 15  1  0
 15 16  2  0
 16 17  1  0
 17 18  2  0
 18 19  1  0
 19 20  1  0
 20 21  2  0
 20 22  1  0
 19 23  2  0
 11 24  1  0
  8  3  1  0
 23 15  1  0
 24  7  1  0
  1 25  1  0
  1 26  1  0
  1 27  1  0
  4 28  1  0
  5 29  1  0
  6 30  1  0
  9 31  1  0
  9 32  1  0
 10 33  1  0
 10 34  1  0
 16 35  1  0
 17 36  1  0
 18 37  1  0
 22 38  1  0
 23 39  1  0
 24 40  1  0
 24 41  1  0
M  END
$$$$
