@<TRIPOS>MOLECULE
*****
 53 56 0 0 0
SMALL
GASTEIGER

@<TRIPOS>ATOM
      1 C          -5.6504   -4.0860   -1.4693 C.3     1  UNL1        0.0001
      2 N          -5.3665   -2.8318   -0.7989 N.am    1  UNL1       -0.3172
      3 C          -4.0554   -2.4805   -0.3752 C.2     1  UNL1        0.2296
      4 O          -3.1005   -3.2723   -0.5810 O.2     1  UNL1       -0.2743
      5 C          -3.8338   -1.1840    0.3042 C.3     1  UNL1        0.1052
      6 C          -4.1743    0.0617   -0.4286 C.3     1  UNL1       -0.0220
      7 C          -2.7832   -0.2685   -0.1046 C.3     1  UNL1        0.0134
      8 C          -1.9822    0.3857    0.9716 C.3     1  UNL1        0.0935
      9 C          -1.0512   -0.6384    1.6167 C.3     1  UNL1       -0.0351
     10 C          -1.0719    1.4364    0.3892 C.ar    1  UNL1        0.0158
     11 C           0.2835    1.2555    0.3672 C.ar    1  UNL1       -0.0463
     12 C           1.1509    2.2041   -0.1617 C.ar    1  UNL1       -0.0217
     13 C           2.6036    2.0146   -0.1902 C.2     1  UNL1       -0.0172
     14 C           3.1892    0.8637   -0.4535 C.2     1  UNL1        0.1494
     15 F           2.4095   -0.2055   -0.7138 F       1  UNL1       -0.2032
     16 C           4.6328    0.6864   -0.4711 C.ar    1  UNL1        0.1019
     17 N           5.4505    1.7188   -0.2024 N.ar    1  UNL1       -0.2512
     18 C           6.7731    1.6534   -0.1924 C.ar    1  UNL1        0.0457
     19 C           7.3846    0.4523   -0.4743 C.ar    1  UNL1        0.0701
     20 C           8.7982    0.3151   -0.4801 C.1     1  UNL1        0.1007
     21 N           9.9529    0.1836   -0.4839 N.1     1  UNL1       -0.1908
     22 C           6.5910   -0.6429   -0.7582 C.ar    1  UNL1       -0.0379
     23 C           5.2015   -0.5331   -0.7587 C.ar    1  UNL1       -0.0210
     24 C           4.3537   -1.7382   -1.0717 C.3     1  UNL1       -0.0376
     25 C           0.5600    3.3440   -0.6655 C.ar    1  UNL1       -0.0518
     26 C          -0.8052    3.5297   -0.6452 C.ar    1  UNL1       -0.0255
     27 C          -1.6525    2.5783   -0.1165 C.ar    1  UNL1        0.1289
     28 F          -3.0004    2.7744   -0.1011 F       1  UNL1       -0.2051
     29 N          -2.7067    0.9710    2.0480 N.2     1  UNL1       -0.2521
     30 C          -3.6973    0.4492    2.6494 C.2     1  UNL1        0.1485
     31 N          -4.4072    1.0440    3.7191 N.pl3   1  UNL1       -0.3380
     32 S          -4.2208   -1.1658    2.0714 S.3     1  UNL1       -0.0746
     33 H          -6.1762   -3.9118   -2.4264 H       1  UNL1        0.0426
     34 H          -4.7358   -4.6788   -1.5600 H       1  UNL1        0.0426
     35 H          -6.3409   -4.6458   -0.7721 H       1  UNL1        0.0426
     36 H          -6.1620   -2.1663   -0.6247 H       1  UNL1        0.1484
     37 H          -4.5252   -0.1024   -1.4908 H       1  UNL1        0.0287
     38 H          -4.8038    0.7893    0.0821 H       1  UNL1        0.0287
     39 H          -2.1492   -0.6024   -0.9735 H       1  UNL1        0.0346
     40 H          -0.3631   -0.1606    2.3413 H       1  UNL1        0.0256
     41 H          -1.7066   -1.2986    2.2530 H       1  UNL1        0.0256
     42 H          -0.4815   -1.2226    0.8808 H       1  UNL1        0.0256
     43 H           0.7707    0.3593    0.7620 H       1  UNL1        0.0628
     44 H           3.2872    2.8419    0.0113 H       1  UNL1        0.0653
     45 H           7.3780    2.5363    0.0359 H       1  UNL1        0.0843
     46 H           7.0614   -1.5938   -0.9819 H       1  UNL1        0.0634
     47 H           3.7260   -2.0240   -0.2290 H       1  UNL1        0.0278
     48 H           5.0279   -2.5716   -1.3360 H       1  UNL1        0.0278
     49 H           3.7727   -1.5165   -2.0076 H       1  UNL1        0.0278
     50 H           1.2161    4.1144   -1.0906 H       1  UNL1        0.0624
     51 H          -1.2620    4.4456   -1.0514 H       1  UNL1        0.0646
     52 H          -5.3714    1.4297    3.6484 H       1  UNL1        0.1442
     53 H          -3.9379    1.1038    4.6471 H       1  UNL1        0.1442
@<TRIPOS>BOND
     1     1     2    1
     2     2     3   am
     3     3     4    2
     4     5     3    1
     5     5     6    1
     6     6     7    1
     7     7     8    1
     8     8     9    1
     9     8    10    1
    10    10    11   ar
    11    11    12   ar
    12    12    13    1
    13    13    14    2
    14    14    15    1
    15    14    16    1
    16    16    17   ar
    17    17    18   ar
    18    18    19   ar
    19    19    20    1
    20    20    21    3
    21    19    22   ar
    22    22    23   ar
    23    23    24    1
    24    12    25   ar
    25    25    26   ar
    26    26    27   ar
    27    27    28    1
    28     8    29    1
    29    29    30    2
    30    30    31    1
    31    30    32    1
    32     7     5    1
    33    27    10   ar
    34    32     5    1
    35    23    16   ar
    36     1    33    1
    37     1    34    1
    38     1    35    1
    39     2    36    1
    40     6    37    1
    41     6    38    1
    42     7    39    1
    43     9    40    1
    44     9    41    1
    45     9    42    1
    46    11    43    1
    47    13    44    1
    48    18    45    1
    49    22    46    1
    50    24    47    1
    51    24    48    1
    52    24    49    1
    53    25    50    1
    54    26    51    1
    55    31    52    1
    56    31    53    1
