
     RDKit          3D

118120  0  0  0  0  0  0  0  0999 V2000
   -7.0175   -2.5225    1.6675 C   0  0  0  0  0  0  0  0  0  0  0  0
   -5.8002   -1.6700    1.5303 C   0  0  0  0  0  0  0  0  0  0  0  0
   -4.8909   -1.9500    0.3899 C   0  0  1  0  0  0  0  0  0  0  0  0
   -3.8606   -1.0022    0.4721 O   0  0  0  0  0  0  0  0  0  0  0  0
   -3.2797   -0.1865   -0.4869 C   0  0  0  0  0  0  0  0  0  0  0  0
   -3.7370   -0.3263   -1.6274 O   0  0  0  0  0  0  0  0  0  0  0  0
   -2.2288    0.6988   -0.0106 C   0  0  2  0  0  0  0  0  0  0  0  0
   -3.0349    2.0121    0.3027 C   0  0  0  0  0  0  0  0  0  0  0  0
   -0.9764    1.0136   -0.6001 C   0  0  1  0  0  0  0  0  0  0  0  0
   -0.2023    1.7543    0.3434 O   0  0  0  0  0  0  0  0  0  0  0  0
   -0.0425    3.0901    0.0387 C   0  0  1  0  0  0  0  0  0  0  0  0
   -0.3430    4.0452    1.1466 C   0  0  0  0  0  0  0  0  0  0  0  0
   -0.2343    5.4590    0.6089 C   0  0  1  0  0  0  0  0  0  0  0  0
   -1.4583    5.7556   -0.2139 C   0  0  0  0  0  0  0  0  0  0  0  0
   -0.2882    6.3716    1.6911 O   0  0  0  0  0  0  0  0  0  0  0  0
   -0.2458    7.6533    1.2100 C   0  0  0  0  0  0  0  0  0  0  0  0
    1.0336    5.6962   -0.1480 C   0  0  1  0  0  0  0  0  0  0  0  0
    2.0508    6.1356    0.6978 O   0  0  0  0  0  0  0  0  0  0  0  0
    1.5451    4.4851   -0.8740 C   0  0  2  0  0  0  0  0  0  0  0  0
    0.9268    4.3742   -2.2480 C   0  0  0  0  0  0  0  0  0  0  0  0
    1.3661    3.3135   -0.2036 O   0  0  0  0  0  0  0  0  0  0  0  0
   -0.0693    0.3448   -1.5167 C   0  0  2  0  0  0  0  0  0  0  0  0
   -0.5274    0.2601   -2.9730 C   0  0  0  0  0  0  0  0  0  0  0  0
    0.7711   -0.8523   -1.1215 C   0  0  1  0  0  0  0  0  0  0  0  0
    1.5864   -0.4999   -0.1074 O   0  0  0  0  0  0  0  0  0  0  0  0
    2.9486   -0.5910   -0.3512 C   0  0  2  0  0  0  0  0  0  0  0  0
    3.4184   -1.4103    0.6707 O   0  0  0  0  0  0  0  0  0  0  0  0
    4.7314   -1.7716    0.5918 C   0  0  2  0  0  0  0  0  0  0  0  0
    5.0281   -2.6019    1.8444 C   0  0  0  0  0  0  0  0  0  0  0  0
    5.6428   -0.5395    0.7109 C   0  0  0  0  0  0  0  0  0  0  0  0
    5.1766    0.4111   -0.3378 C   0  0  2  0  0  0  0  0  0  0  0  0
    5.9691    1.6088   -0.4465 N   0  0  0  0  0  0  0  0  0  0  0  0
    5.9945    2.3658    0.7848 C   0  0  0  0  0  0  0  0  0  0  0  0
    7.3322    1.3158   -0.8243 C   0  0  0  0  0  0  0  0  0  0  0  0
    3.6883    0.7281   -0.2662 C   0  0  1  0  0  0  0  0  0  0  0  0
    3.4882    1.4732   -1.4595 O   0  0  0  0  0  0  0  0  0  0  0  0
   -0.0785   -2.0591   -0.8126 C   0  0  2  0  0  0  0  0  0  0  0  0
   -0.7223   -2.5561   -2.0657 C   0  0  0  0  0  0  0  0  0  0  0  0
   -0.8884   -1.7621    0.2729 O   0  0  0  0  0  0  0  0  0  0  0  0
    0.6623   -3.2557   -0.2620 C   0  0  0  0  0  0  0  0  0  0  0  0
   -0.4008   -4.2979    0.2199 C   0  0  1  0  0  0  0  0  0  0  0  0
    0.5727   -5.4834    0.6101 C   0  0  0  0  0  0  0  0  0  0  0  0
   -1.0096   -3.9785    1.5061 C   0  0  0  0  0  0  0  0  0  0  0  0
   -0.2700   -3.2911    2.2512 O   0  0  0  0  0  0  0  0  0  0  0  0
   -2.3084   -4.3067    2.0962 C   0  0  2  0  0  0  0  0  0  0  0  0
   -2.7187   -5.7454    1.9365 C   0  0  0  0  0  0  0  0  0  0  0  0
   -3.4078   -3.3019    1.8691 C   0  0  1  0  0  0  0  0  0  0  0  0
   -2.8827   -2.0720    2.2933 O   0  0  0  0  0  0  0  0  0  0  0  0
   -4.0938   -3.3051    0.5752 C   0  0  1  0  0  0  0  0  0  0  0  0
   -5.0656   -4.4139    0.3460 C   0  0  0  0  0  0  0  0  0  0  0  0
   -3.2316   -3.1740   -0.5345 O   0  0  0  0  0  0  0  0  0  0  0  0
   -6.8766   -3.2222    2.5276 H   0  0  0  0  0  0  0  0  0  0  0  0
   -7.9276   -1.8777    1.9561 H   0  0  0  0  0  0  0  0  0  0  0  0
   -7.3108   -3.0425    0.7500 H   0  0  0  0  0  0  0  0  0  0  0  0
   -5.2592   -1.6754    2.5160 H   0  0  0  0  0  0  0  0  0  0  0  0
   -6.1856   -0.5982    1.4858 H   0  0  0  0  0  0  0  0  0  0  0  0
   -5.3714   -2.0178   -0.5687 H   0  0  0  0  0  0  0  0  0  0  0  0
   -1.9742    0.4350    1.1092 H   0  0  0  0  0  0  0  0  0  0  0  0
   -4.1439    1.8161    0.1745 H   0  0  0  0  0  0  0  0  0  0  0  0
   -2.9514    2.3166    1.3353 H   0  0  0  0  0  0  0  0  0  0  0  0
   -2.8347    2.7694   -0.4741 H   0  0  0  0  0  0  0  0  0  0  0  0
   -1.2712    1.9435   -1.3080 H   0  0  0  0  0  0  0  0  0  0  0  0
   -0.5887    3.4206   -0.8637 H   0  0  0  0  0  0  0  0  0  0  0  0
    0.4351    3.9415    1.9497 H   0  0  0  0  0  0  0  0  0  0  0  0
   -1.3497    3.9672    1.5881 H   0  0  0  0  0  0  0  0  0  0  0  0
   -2.2679    6.2287    0.3830 H   0  0  0  0  0  0  0  0  0  0  0  0
   -1.9034    4.9230   -0.7408 H   0  0  0  0  0  0  0  0  0  0  0  0
   -1.2050    6.5393   -0.9923 H   0  0  0  0  0  0  0  0  0  0  0  0
   -1.0974    7.8912    0.5228 H   0  0  0  0  0  0  0  0  0  0  0  0
   -0.3659    8.4159    2.0360 H   0  0  0  0  0  0  0  0  0  0  0  0
    0.6806    7.9573    0.6953 H   0  0  0  0  0  0  0  0  0  0  0  0
    0.8659    6.4922   -0.8882 H   0  0  0  0  0  0  0  0  0  0  0  0
    2.8591    6.4039    0.2364 H   0  0  0  0  0  0  0  0  0  0  0  0
    2.6431    4.6058   -1.0429 H   0  0  0  0  0  0  0  0  0  0  0  0
   -0.0975    4.7892   -2.3019 H   0  0  0  0  0  0  0  0  0  0  0  0
    0.8738    3.3001   -2.5079 H   0  0  0  0  0  0  0  0  0  0  0  0
    1.5871    4.8234   -3.0300 H   0  0  0  0  0  0  0  0  0  0  0  0
    0.7791    1.1107   -1.6024 H   0  0  0  0  0  0  0  0  0  0  0  0
   -0.3552    1.2864   -3.4765 H   0  0  0  0  0  0  0  0  0  0  0  0
   -1.6154    0.1725   -3.0962 H   0  0  0  0  0  0  0  0  0  0  0  0
    0.0966   -0.3859   -3.5857 H   0  0  0  0  0  0  0  0  0  0  0  0
    1.3653   -1.1205   -2.0002 H   0  0  0  0  0  0  0  0  0  0  0  0
    3.1808   -0.9626   -1.3691 H   0  0  0  0  0  0  0  0  0  0  0  0
    5.0014   -2.3945   -0.2624 H   0  0  0  0  0  0  0  0  0  0  0  0
    5.2560   -1.8957    2.6782 H   0  0  0  0  0  0  0  0  0  0  0  0
    5.8219   -3.3328    1.6948 H   0  0  0  0  0  0  0  0  0  0  0  0
    4.0877   -3.1303    2.1784 H   0  0  0  0  0  0  0  0  0  0  0  0
    6.6471   -0.9011    0.4292 H   0  0  0  0  0  0  0  0  0  0  0  0
    5.6177   -0.1433    1.7319 H   0  0  0  0  0  0  0  0  0  0  0  0
    5.3026   -0.1204   -1.3281 H   0  0  0  0  0  0  0  0  0  0  0  0
    6.6085    1.8565    1.5577 H   0  0  0  0  0  0  0  0  0  0  0  0
    4.9679    2.6020    1.1401 H   0  0  0  0  0  0  0  0  0  0  0  0
    6.4741    3.3449    0.5832 H   0  0  0  0  0  0  0  0  0  0  0  0
    7.6201    1.8464   -1.7714 H   0  0  0  0  0  0  0  0  0  0  0  0
    7.5201    0.2433   -1.0137 H   0  0  0  0  0  0  0  0  0  0  0  0
    8.0752    1.6492   -0.0702 H   0  0  0  0  0  0  0  0  0  0  0  0
    3.4337    1.3109    0.6230 H   0  0  0  0  0  0  0  0  0  0  0  0
    3.2099    0.8613   -2.1790 H   0  0  0  0  0  0  0  0  0  0  0  0
    0.0575   -2.5827   -2.8762 H   0  0  0  0  0  0  0  0  0  0  0  0
   -1.0099   -3.6099   -1.9631 H   0  0  0  0  0  0  0  0  0  0  0  0
   -1.6321   -2.0426   -2.3814 H   0  0  0  0  0  0  0  0  0  0  0  0
   -0.3217   -1.1509    0.8433 H   0  0  0  0  0  0  0  0  0  0  0  0
    1.2070   -3.0284    0.6783 H   0  0  0  0  0  0  0  0  0  0  0  0
    1.2394   -3.7960   -1.0085 H   0  0  0  0  0  0  0  0  0  0  0  0
   -0.9798   -4.7427   -0.5483 H   0  0  0  0  0  0  0  0  0  0  0  0
    1.1167   -5.2084    1.5116 H   0  0  0  0  0  0  0  0  0  0  0  0
    1.1937   -5.6597   -0.2872 H   0  0  0  0  0  0  0  0  0  0  0  0
   -0.0766   -6.3737    0.7362 H   0  0  0  0  0  0  0  0  0  0  0  0
   -2.1900   -4.2450    3.2624 H   0  0  0  0  0  0  0  0  0  0  0  0
   -3.7748   -5.8358    2.1940 H   0  0  0  0  0  0  0  0  0  0  0  0
   -2.5160   -6.1650    0.9462 H   0  0  0  0  0  0  0  0  0  0  0  0
   -2.1586   -6.3663    2.6793 H   0  0  0  0  0  0  0  0  0  0  0  0
   -4.1999   -3.5264    2.6644 H   0  0  0  0  0  0  0  0  0  0  0  0
   -2.9810   -1.8986    3.2438 H   0  0  0  0  0  0  0  0  0  0  0  0
   -4.5245   -5.3377   -0.0229 H   0  0  0  0  0  0  0  0  0  0  0  0
   -5.7697   -4.2020   -0.5020 H   0  0  0  0  0  0  0  0  0  0  0  0
   -5.6767   -4.7021    1.2126 H   0  0  0  0  0  0  0  0  0  0  0  0
   -3.6788   -3.4086   -1.3672 H   0  0  0  0  0  0  0  0  0  0  0  0
  1  2  1  0
  2  3  1  0
  3  4  1  0
  4  5  1  0
  5  6  2  0
  5  7  1  0
  7  8  1  0
  7  9  1  0
  9 10  1  0
 10 11  1  0
 11 12  1  0
 12 13  1  0
 13 14  1  0
 13 15  1  1
 15 16  1  0
 13 17  1  0
 17 18  1  0
 17 19  1  0
 19 20  1  0
 19 21  1  0
  9 22  1  0
 22 23  1  0
 22 24  1  0
 24 25  1  0
 25 26  1  0
 26 27  1  0
 27 28  1  0
 28 29  1  0
 28 30  1  0
 30 31  1  0
 31 32  1  0
 32 33  1  0
 32 34  1  0
 31 35  1  0
 35 36  1  0
 24 37  1  0
 37 38  1  0
 37 39  1  1
 37 40  1  0
 40 41  1  0
 41 42  1  0
 41 43  1  0
 43 44  2  0
 43 45  1  0
 45 46  1  0
 45 47  1  0
 47 48  1  0
 47 49  1  0
 49 50  1  0
 49 51  1  6
 49  3  1  0
 21 11  1  0
 35 26  1  0
  1 52  1  0
  1 53  1  0
  1 54  1  0
  2 55  1  0
  2 56  1  0
  3 57  1  6
  7 58  1  1
  8 59  1  0
  8 60  1  0
  8 61  1  0
  9 62  1  6
 11 63  1  6
 12 64  1  0
 12 65  1  0
 14 66  1  0
 14 67  1  0
 14 68  1  0
 16 69  1  0
 16 70  1  0
 16 71  1  0
 17 72  1  6
 18 73  1  0
 19 74  1  6
 20 75  1  0
 20 76  1  0
 20 77  1  0
 22 78  1  6
 23 79  1  0
 23 80  1  0
 23 81  1  0
 24 82  1  6
 26 83  1  6
 28 84  1  6
 29 85  1  0
 29 86  1  0
 29 87  1  0
 30 88  1  0
 30 89  1  0
 31 90  1  6
 33 91  1  0
 33 92  1  0
 33 93  1  0
 34 94  1  0
 34 95  1  0
 34 96  1  0
 35 97  1  1
 36 98  1  0
 38 99  1  0
 38100  1  0
 38101  1  0
 39102  1  0
 40103  1  0
 40104  1  0
 41105  1  6
 42106  1  0
 42107  1  0
 42108  1  0
 45109  1  1
 46110  1  0
 46111  1  0
 46112  1  0
 47113  1  1
 48114  1  0
 50115  1  0
 50116  1  0
 50117  1  0
 51118  1  0
M  END
$$$$
