@<TRIPOS>MOLECULE
*****
 118 120 0 0 0
SMALL
GASTEIGER

@<TRIPOS>ATOM
      1 C          -7.0175   -2.5225    1.6675 C.3     1  UNL1       -0.0618
      2 C          -5.8002   -1.6700    1.5303 C.3     1  UNL1       -0.0157
      3 C          -4.8909   -1.9500    0.3899 C.3     1  UNL1        0.1335
      4 O          -3.8606   -1.0022    0.4721 O.3     1  UNL1       -0.4581
      5 C          -3.2797   -0.1865   -0.4869 C.2     1  UNL1        0.3128
      6 O          -3.7370   -0.3263   -1.6274 O.2     1  UNL1       -0.2504
      7 C          -2.2288    0.6988   -0.0106 C.3     1  UNL1        0.0801
      8 C          -3.0349    2.0121    0.3027 C.3     1  UNL1       -0.0499
      9 C          -0.9764    1.0136   -0.6001 C.3     1  UNL1        0.0793
     10 O          -0.2023    1.7543    0.3434 O.3     1  UNL1       -0.3468
     11 C          -0.0425    3.0901    0.0387 C.3     1  UNL1        0.1627
     12 C          -0.3430    4.0452    1.1466 C.3     1  UNL1        0.0298
     13 C          -0.2343    5.4590    0.6089 C.3     1  UNL1        0.0991
     14 C          -1.4583    5.7556   -0.2139 C.3     1  UNL1       -0.0331
     15 O          -0.2882    6.3716    1.6911 O.3     1  UNL1       -0.3740
     16 C          -0.2458    7.6533    1.2100 C.3     1  UNL1        0.0373
     17 C           1.0336    5.6962   -0.1480 C.3     1  UNL1        0.1098
     18 O           2.0508    6.1356    0.6978 O.3     1  UNL1       -0.3864
     19 C           1.5451    4.4851   -0.8740 C.3     1  UNL1        0.0874
     20 C           0.9268    4.3742   -2.2480 C.3     1  UNL1       -0.0361
     21 O           1.3661    3.3135   -0.2036 O.3     1  UNL1       -0.3456
     22 C          -0.0693    0.3448   -1.5167 C.3     1  UNL1        0.0124
     23 C          -0.5274    0.2601   -2.9730 C.3     1  UNL1       -0.0576
     24 C           0.7711   -0.8523   -1.1215 C.3     1  UNL1        0.0951
     25 O           1.5864   -0.4999   -0.1074 O.3     1  UNL1       -0.3423
     26 C           2.9486   -0.5910   -0.3512 C.3     1  UNL1        0.1871
     27 O           3.4184   -1.4103    0.6707 O.3     1  UNL1       -0.3457
     28 C           4.7314   -1.7716    0.5918 C.3     1  UNL1        0.0605
     29 C           5.0281   -2.6019    1.8444 C.3     1  UNL1       -0.0385
     30 C           5.6428   -0.5395    0.7109 C.3     1  UNL1       -0.0085
     31 C           5.1766    0.4111   -0.3378 C.3     1  UNL1        0.0429
     32 N           5.9691    1.6088   -0.4465 N.3     1  UNL1       -0.3027
     33 C           5.9945    2.3658    0.7848 C.3     1  UNL1       -0.0127
     34 C           7.3322    1.3158   -0.8243 C.3     1  UNL1       -0.0127
     35 C           3.6883    0.7281   -0.2662 C.3     1  UNL1        0.1214
     36 O           3.4882    1.4732   -1.4595 O.3     1  UNL1       -0.3852
     37 C          -0.0785   -2.0591   -0.8126 C.3     1  UNL1        0.0903
     38 C          -0.7223   -2.5561   -2.0657 C.3     1  UNL1       -0.0336
     39 O          -0.8884   -1.7621    0.2729 O.3     1  UNL1       -0.3863
     40 C           0.6623   -3.2557   -0.2620 C.3     1  UNL1       -0.0125
     41 C          -0.4008   -4.2979    0.2199 C.3     1  UNL1        0.0177
     42 C           0.5727   -5.4834    0.6101 C.3     1  UNL1       -0.0556
     43 C          -1.0096   -3.9785    1.5061 C.2     1  UNL1        0.1416
     44 O          -0.2700   -3.2911    2.2512 O.2     1  UNL1       -0.2967
     45 C          -2.3084   -4.3067    2.0962 C.3     1  UNL1        0.0437
     46 C          -2.7187   -5.7454    1.9365 C.3     1  UNL1       -0.0532
     47 C          -3.4078   -3.3019    1.8691 C.3     1  UNL1        0.0963
     48 O          -2.8827   -2.0720    2.2933 O.3     1  UNL1       -0.3881
     49 C          -4.0938   -3.3051    0.5752 C.3     1  UNL1        0.1262
     50 C          -5.0656   -4.4139    0.3460 C.3     1  UNL1       -0.0301
     51 O          -3.2316   -3.1740   -0.5345 O.3     1  UNL1       -0.3826
     52 H          -6.8766   -3.2222    2.5276 H       1  UNL1        0.0231
     53 H          -7.9276   -1.8777    1.9561 H       1  UNL1        0.0231
     54 H          -7.3108   -3.0425    0.7500 H       1  UNL1        0.0231
     55 H          -5.2592   -1.6754    2.5160 H       1  UNL1        0.0299
     56 H          -6.1856   -0.5982    1.4858 H       1  UNL1        0.0299
     57 H          -5.3714   -2.0178   -0.5687 H       1  UNL1        0.0764
     58 H          -1.9742    0.4350    1.1092 H       1  UNL1        0.0436
     59 H          -4.1439    1.8161    0.1745 H       1  UNL1        0.0238
     60 H          -2.9514    2.3166    1.3353 H       1  UNL1        0.0238
     61 H          -2.8347    2.7694   -0.4741 H       1  UNL1        0.0238
     62 H          -1.2712    1.9435   -1.3080 H       1  UNL1        0.0608
     63 H          -0.5887    3.4206   -0.8637 H       1  UNL1        0.0911
     64 H           0.4351    3.9415    1.9497 H       1  UNL1        0.0343
     65 H          -1.3497    3.9672    1.5881 H       1  UNL1        0.0343
     66 H          -2.2679    6.2287    0.3830 H       1  UNL1        0.0258
     67 H          -1.9034    4.9230   -0.7408 H       1  UNL1        0.0258
     68 H          -1.2050    6.5393   -0.9923 H       1  UNL1        0.0258
     69 H          -1.0974    7.8912    0.5228 H       1  UNL1        0.0524
     70 H          -0.3659    8.4159    2.0360 H       1  UNL1        0.0524
     71 H           0.6806    7.9573    0.6953 H       1  UNL1        0.0524
     72 H           0.8659    6.4922   -0.8882 H       1  UNL1        0.0648
     73 H           2.8591    6.4039    0.2364 H       1  UNL1        0.2100
     74 H           2.6431    4.6058   -1.0429 H       1  UNL1        0.0621
     75 H          -0.0975    4.7892   -2.3019 H       1  UNL1        0.0255
     76 H           0.8738    3.3001   -2.5079 H       1  UNL1        0.0255
     77 H           1.5871    4.8234   -3.0300 H       1  UNL1        0.0255
     78 H           0.7791    1.1107   -1.6024 H       1  UNL1        0.0349
     79 H          -0.3552    1.2864   -3.4765 H       1  UNL1        0.0234
     80 H          -1.6154    0.1725   -3.0962 H       1  UNL1        0.0234
     81 H           0.0966   -0.3859   -3.5857 H       1  UNL1        0.0234
     82 H           1.3653   -1.1205   -2.0002 H       1  UNL1        0.0629
     83 H           3.1808   -0.9626   -1.3691 H       1  UNL1        0.0937
     84 H           5.0014   -2.3945   -0.2624 H       1  UNL1        0.0595
     85 H           5.2560   -1.8957    2.6782 H       1  UNL1        0.0255
     86 H           5.8219   -3.3328    1.6948 H       1  UNL1        0.0255
     87 H           4.0877   -3.1303    2.1784 H       1  UNL1        0.0255
     88 H           6.6471   -0.9011    0.4292 H       1  UNL1        0.0306
     89 H           5.6177   -0.1433    1.7319 H       1  UNL1        0.0306
     90 H           5.3026   -0.1204   -1.3281 H       1  UNL1        0.0490
     91 H           6.6085    1.8565    1.5577 H       1  UNL1        0.0391
     92 H           4.9679    2.6020    1.1401 H       1  UNL1        0.0391
     93 H           6.4741    3.3449    0.5832 H       1  UNL1        0.0391
     94 H           7.6201    1.8464   -1.7714 H       1  UNL1        0.0391
     95 H           7.5201    0.2433   -1.0137 H       1  UNL1        0.0391
     96 H           8.0752    1.6492   -0.0702 H       1  UNL1        0.0391
     97 H           3.4337    1.3109    0.6230 H       1  UNL1        0.0660
     98 H           3.2099    0.8613   -2.1790 H       1  UNL1        0.2101
     99 H           0.0575   -2.5827   -2.8762 H       1  UNL1        0.0258
    100 H          -1.0099   -3.6099   -1.9631 H       1  UNL1        0.0258
    101 H          -1.6321   -2.0426   -2.3814 H       1  UNL1        0.0258
    102 H          -0.3217   -1.1509    0.8433 H       1  UNL1        0.2103
    103 H           1.2070   -3.0284    0.6783 H       1  UNL1        0.0300
    104 H           1.2394   -3.7960   -1.0085 H       1  UNL1        0.0300
    105 H          -0.9798   -4.7427   -0.5483 H       1  UNL1        0.0376
    106 H           1.1167   -5.2084    1.5116 H       1  UNL1        0.0236
    107 H           1.1937   -5.6597   -0.2872 H       1  UNL1        0.0236
    108 H          -0.0766   -6.3737    0.7362 H       1  UNL1        0.0236
    109 H          -2.1900   -4.2450    3.2624 H       1  UNL1        0.0401
    110 H          -3.7748   -5.8358    2.1940 H       1  UNL1        0.0237
    111 H          -2.5160   -6.1650    0.9462 H       1  UNL1        0.0237
    112 H          -2.1586   -6.3663    2.6793 H       1  UNL1        0.0237
    113 H          -4.1999   -3.5264    2.6644 H       1  UNL1        0.0630
    114 H          -2.9810   -1.8986    3.2438 H       1  UNL1        0.2099
    115 H          -4.5245   -5.3377   -0.0229 H       1  UNL1        0.0259
    116 H          -5.7697   -4.2020   -0.5020 H       1  UNL1        0.0259
    117 H          -5.6767   -4.7021    1.2126 H       1  UNL1        0.0259
    118 H          -3.6788   -3.4086   -1.3672 H       1  UNL1        0.2104
@<TRIPOS>BOND
     1     1     2    1
     2     2     3    1
     3     3     4    1
     4     4     5    1
     5     5     6    2
     6     5     7    1
     7     7     8    1
     8     7     9    1
     9     9    10    1
    10    10    11    1
    11    11    12    1
    12    12    13    1
    13    13    14    1
    14    13    15    1
    15    15    16    1
    16    13    17    1
    17    17    18    1
    18    17    19    1
    19    19    20    1
    20    19    21    1
    21     9    22    1
    22    22    23    1
    23    22    24    1
    24    24    25    1
    25    25    26    1
    26    26    27    1
    27    27    28    1
    28    28    29    1
    29    28    30    1
    30    30    31    1
    31    31    32    1
    32    32    33    1
    33    32    34    1
    34    31    35    1
    35    35    36    1
    36    24    37    1
    37    37    38    1
    38    37    39    1
    39    37    40    1
    40    40    41    1
    41    41    42    1
    42    41    43    1
    43    43    44    2
    44    43    45    1
    45    45    46    1
    46    45    47    1
    47    47    48    1
    48    47    49    1
    49    49    50    1
    50    49    51    1
    51    49     3    1
    52    21    11    1
    53    35    26    1
    54     1    52    1
    55     1    53    1
    56     1    54    1
    57     2    55    1
    58     2    56    1
    59     3    57    1
    60     7    58    1
    61     8    59    1
    62     8    60    1
    63     8    61    1
    64     9    62    1
    65    11    63    1
    66    12    64    1
    67    12    65    1
    68    14    66    1
    69    14    67    1
    70    14    68    1
    71    16    69    1
    72    16    70    1
    73    16    71    1
    74    17    72    1
    75    18    73    1
    76    19    74    1
    77    20    75    1
    78    20    76    1
    79    20    77    1
    80    22    78    1
    81    23    79    1
    82    23    80    1
    83    23    81    1
    84    24    82    1
    85    26    83    1
    86    28    84    1
    87    29    85    1
    88    29    86    1
    89    29    87    1
    90    30    88    1
    91    30    89    1
    92    31    90    1
    93    33    91    1
    94    33    92    1
    95    33    93    1
    96    34    94    1
    97    34    95    1
    98    34    96    1
    99    35    97    1
   100    36    98    1
   101    38    99    1
   102    38   100    1
   103    38   101    1
   104    39   102    1
   105    40   103    1
   106    40   104    1
   107    41   105    1
   108    42   106    1
   109    42   107    1
   110    42   108    1
   111    45   109    1
   112    46   110    1
   113    46   111    1
   114    46   112    1
   115    47   113    1
   116    48   114    1
   117    50   115    1
   118    50   116    1
   119    50   117    1
   120    51   118    1
