@<TRIPOS>MOLECULE
*****
 47 50 0 0 0
SMALL
GASTEIGER

@<TRIPOS>ATOM
      1 C          -9.6986    0.6015    0.9906 C.3     1  UNL1        0.0004
      2 N          -8.2936    0.4328    1.3253 N.am    1  UNL1       -0.3132
      3 C          -7.3679    0.5438    0.2620 C.2     1  UNL1        0.2623
      4 O          -7.7328    0.7785   -0.9282 O.2     1  UNL1       -0.2685
      5 C          -5.9341    0.3777    0.5686 C.ar    1  UNL1        0.1288
      6 N          -5.5102    0.1259    1.8303 N.ar    1  UNL1       -0.2501
      7 C          -4.2206   -0.0318    2.1546 C.ar    1  UNL1        0.0319
      8 C          -3.2898    0.0705    1.1393 C.ar    1  UNL1       -0.0012
      9 C          -3.6396    0.3258   -0.1765 C.ar    1  UNL1        0.1321
     10 O          -2.7607    0.4384   -1.2270 O.3     1  UNL1       -0.4558
     11 C          -1.3934    0.2991   -1.0443 C.ar    1  UNL1        0.1305
     12 C          -0.6435   -0.8417   -1.1157 C.ar    1  UNL1        0.0062
     13 C           0.7149   -0.7775   -0.9016 C.ar    1  UNL1        0.0709
     14 C           1.3162    0.4051   -0.6206 C.ar    1  UNL1        0.0909
     15 C           0.6091    1.6090   -0.5326 C.ar    1  UNL1       -0.0307
     16 C          -0.7628    1.5102   -0.7544 C.ar    1  UNL1       -0.0172
     17 N           2.6149    0.1083   -0.4736 N.ar    1  UNL1       -0.2143
     18 C           2.8528   -1.1991   -0.6488 C.ar    1  UNL1        0.1983
     19 N           4.0618   -1.9393   -0.5867 N.pl3   1  UNL1       -0.2851
     20 C           5.3465   -1.4084   -0.3082 C.ar    1  UNL1        0.0341
     21 C           5.6405   -0.0982   -0.0529 C.ar    1  UNL1       -0.0274
     22 C           6.8812    0.4074    0.2148 C.ar    1  UNL1        0.0748
     23 C           7.9591   -0.4499    0.2384 C.ar    1  UNL1        0.0527
     24 CL          9.5628    0.1551    0.5767 Cl      1  UNL1       -0.0830
     25 C           7.7235   -1.7770   -0.0109 C.ar    1  UNL1       -0.0411
     26 C           6.4515   -2.2236   -0.2738 C.ar    1  UNL1       -0.0391
     27 C           7.1079    1.8625    0.4834 C.3     1  UNL1        0.4188
     28 F           7.6469    2.0931    1.7263 F       1  UNL1       -0.1658
     29 F           7.9575    2.4028   -0.4641 F       1  UNL1       -0.1658
     30 F           5.9047    2.5382    0.4366 F       1  UNL1       -0.1658
     31 N           1.6496   -1.7377   -0.9162 N.ar    1  UNL1       -0.3257
     32 C          -5.0009    0.4821   -0.4594 C.ar    1  UNL1        0.0112
     33 H         -10.1180    1.5162    1.4701 H       1  UNL1        0.0426
     34 H         -10.2402   -0.2577    1.4361 H       1  UNL1        0.0426
     35 H          -9.8829    0.5956   -0.0911 H       1  UNL1        0.0426
     36 H          -8.0357    0.2429    2.3055 H       1  UNL1        0.1487
     37 H          -3.9002   -0.2338    3.1759 H       1  UNL1        0.0831
     38 H          -2.2106   -0.0466    1.3245 H       1  UNL1        0.0669
     39 H          -1.1779   -1.7307   -1.3393 H       1  UNL1        0.0676
     40 H           1.1218    2.5108   -0.3102 H       1  UNL1        0.0641
     41 H          -1.2729    2.4666   -0.6767 H       1  UNL1        0.0655
     42 H           4.0202   -2.9798   -0.7607 H       1  UNL1        0.1550
     43 H           4.8501    0.6339   -0.0535 H       1  UNL1        0.0642
     44 H           8.5807   -2.4418    0.0107 H       1  UNL1        0.0633
     45 H           6.3872   -3.2994   -0.4569 H       1  UNL1        0.0636
     46 H           1.4506   -2.7406   -1.1077 H       1  UNL1        0.1686
     47 H          -5.3252    0.6807   -1.4595 H       1  UNL1        0.0677
@<TRIPOS>BOND
     1     1     2    1
     2     2     3   am
     3     3     4    2
     4     3     5    1
     5     5     6   ar
     6     6     7   ar
     7     7     8   ar
     8     8     9   ar
     9     9    10    1
    10    10    11    1
    11    11    12   ar
    12    12    13   ar
    13    13    14   ar
    14    14    15   ar
    15    15    16   ar
    16    14    17   ar
    17    17    18   ar
    18    18    19    1
    19    19    20    1
    20    20    21   ar
    21    21    22   ar
    22    22    23   ar
    23    23    24    1
    24    23    25   ar
    25    25    26   ar
    26    22    27    1
    27    27    28    1
    28    27    29    1
    29    27    30    1
    30    18    31   ar
    31     9    32   ar
    32    32     5   ar
    33    16    11   ar
    34    26    20   ar
    35    31    13   ar
    36     1    33    1
    37     1    34    1
    38     1    35    1
    39     2    36    1
    40     7    37    1
    41     8    38    1
    42    12    39    1
    43    15    40    1
    44    16    41    1
    45    19    42    1
    46    21    43    1
    47    25    44    1
    48    26    45    1
    49    31    46    1
    50    32    47    1
