@<TRIPOS>MOLECULE
*****
 59 63 0 0 0
SMALL
GASTEIGER

@<TRIPOS>ATOM
      1 N          -7.4862   -1.3030    1.1515 N.am    1  UNL1       -0.3289
      2 C          -6.8102   -0.1243    0.7626 C.2     1  UNL1        0.2167
      3 O          -7.4341    0.9648    0.8154 O.2     1  UNL1       -0.2754
      4 C          -5.4193   -0.1261    0.3036 C.3     1  UNL1        0.0477
      5 C          -5.2647   -0.9974   -0.9376 C.3     1  UNL1       -0.0362
      6 C          -3.8239   -0.9793   -1.3526 C.3     1  UNL1       -0.0394
      7 C          -2.9209   -1.5094   -0.2607 C.3     1  UNL1       -0.0439
      8 C          -3.1239   -0.6449    0.9794 C.3     1  UNL1       -0.0023
      9 C          -4.5658   -0.7486    1.3833 C.3     1  UNL1       -0.0328
     10 C          -2.6971    0.7672    0.6855 C.3     1  UNL1        0.1103
     11 O          -1.3218    0.7522    0.3994 O.3     1  UNL1       -0.4464
     12 C          -0.3547    1.4226    1.0922 C.2     1  UNL1        0.4032
     13 O          -0.7028    2.1223    2.0784 O.2     1  UNL1       -0.2262
     14 N           1.0330    1.3827    0.7710 N.am    1  UNL1       -0.2656
     15 C           2.1453    2.0247    1.3982 C.3     1  UNL1        0.0196
     16 C           3.3792    1.2352    1.0297 C.3     1  UNL1       -0.0171
     17 C           2.9174    0.1123    0.1261 C.3     1  UNL1        0.0392
     18 N           3.7451   -0.0091   -1.0628 N.pl3   1  UNL1       -0.3247
     19 C           5.1395   -0.2753   -0.8840 C.ar    1  UNL1        0.1189
     20 C           5.9879   -0.4040   -1.9643 C.ar    1  UNL1       -0.0214
     21 C           7.3370   -0.6603   -1.8286 C.ar    1  UNL1       -0.0454
     22 C           7.8705   -0.7954   -0.5640 C.ar    1  UNL1        0.0730
     23 C           9.3258   -1.0723   -0.4022 C.3     1  UNL1        0.4188
     24 F           9.6341   -1.3981    0.8868 F       1  UNL1       -0.1658
     25 F           9.6929   -2.1354   -1.2099 F       1  UNL1       -0.1658
     26 F          10.0996    0.0159   -0.7666 F       1  UNL1       -0.1658
     27 C           7.0083   -0.6637    0.5047 C.ar    1  UNL1        0.0413
     28 N           5.6810   -0.4107    0.3397 N.ar    1  UNL1       -0.2400
     29 C           1.5680    0.6188   -0.3345 C.3     1  UNL1        0.0362
     30 C          -3.5202    1.2767   -0.4812 C.3     1  UNL1       -0.0023
     31 C          -3.3648    0.4064   -1.7043 C.3     1  UNL1       -0.0439
     32 C          -4.9609    1.2644   -0.0522 C.3     1  UNL1       -0.0328
     33 H          -7.7890   -1.4098    2.1357 H       1  UNL1        0.1449
     34 H          -7.6899   -2.0664    0.4842 H       1  UNL1        0.1449
     35 H          -5.5882   -2.0325   -0.7429 H       1  UNL1        0.0278
     36 H          -5.8609   -0.5090   -1.7354 H       1  UNL1        0.0278
     37 H          -3.7249   -1.6017   -2.2661 H       1  UNL1        0.0301
     38 H          -3.1722   -2.5379    0.0243 H       1  UNL1        0.0272
     39 H          -1.8768   -1.3851   -0.5773 H       1  UNL1        0.0272
     40 H          -2.4753   -1.0289    1.7813 H       1  UNL1        0.0337
     41 H          -4.8232   -1.8375    1.3961 H       1  UNL1        0.0279
     42 H          -4.7783   -0.3556    2.3796 H       1  UNL1        0.0279
     43 H          -2.9577    1.3934    1.5588 H       1  UNL1        0.0740
     44 H           2.2818    3.0543    0.9838 H       1  UNL1        0.0466
     45 H           2.0350    2.1258    2.4973 H       1  UNL1        0.0466
     46 H           3.9118    0.8307    1.9116 H       1  UNL1        0.0299
     47 H           4.1224    1.8553    0.4751 H       1  UNL1        0.0299
     48 H           2.8407   -0.8534    0.6693 H       1  UNL1        0.0514
     49 H           3.3749    0.0875   -2.0251 H       1  UNL1        0.1478
     50 H           5.5502   -0.2943   -2.9618 H       1  UNL1        0.0652
     51 H           7.9992   -0.7605   -2.6826 H       1  UNL1        0.0625
     52 H           7.4409   -0.7726    1.5094 H       1  UNL1        0.0836
     53 H           0.9562   -0.2688   -0.5773 H       1  UNL1        0.0484
     54 H           1.6783    1.2154   -1.2618 H       1  UNL1        0.0484
     55 H          -3.2192    2.3258   -0.6627 H       1  UNL1        0.0337
     56 H          -3.9886    0.8281   -2.4987 H       1  UNL1        0.0272
     57 H          -2.2975    0.3410   -2.0038 H       1  UNL1        0.0272
     58 H          -5.0932    1.8893    0.8688 H       1  UNL1        0.0279
     59 H          -5.6501    1.6585   -0.8183 H       1  UNL1        0.0279
@<TRIPOS>BOND
     1     1     2   am
     2     2     3    2
     3     4     2    1
     4     4     5    1
     5     5     6    1
     6     6     7    1
     7     7     8    1
     8     8     9    1
     9     8    10    1
    10    10    11    1
    11    11    12    1
    12    12    13    2
    13    12    14   am
    14    14    15    1
    15    15    16    1
    16    16    17    1
    17    17    18    1
    18    18    19    1
    19    19    20   ar
    20    20    21   ar
    21    21    22   ar
    22    22    23    1
    23    23    24    1
    24    23    25    1
    25    23    26    1
    26    22    27   ar
    27    27    28   ar
    28    17    29    1
    29    10    30    1
    30    30    31    1
    31    30    32    1
    32     9     4    1
    33    29    14    1
    34    32     4    1
    35    31     6    1
    36    28    19   ar
    37     1    33    1
    38     1    34    1
    39     5    35    1
    40     5    36    1
    41     6    37    1
    42     7    38    1
    43     7    39    1
    44     8    40    1
    45     9    41    1
    46     9    42    1
    47    10    43    1
    48    15    44    1
    49    15    45    1
    50    16    46    1
    51    16    47    1
    52    17    48    1
    53    18    49    1
    54    20    50    1
    55    21    51    1
    56    27    52    1
    57    29    53    1
    58    29    54    1
    59    30    55    1
    60    31    56    1
    61    31    57    1
    62    32    58    1
    63    32    59    1
