@<TRIPOS>MOLECULE
*****
 31 33 0 0 0
SMALL
GASTEIGER

@<TRIPOS>ATOM
      1 C           5.7874    0.8651    0.8328 C.3     1  UNL1       -0.0396
      2 C           4.5461    0.5307    0.0854 C.ar    1  UNL1       -0.0484
      3 C           4.5808    0.5021   -1.3079 C.ar    1  UNL1       -0.0567
      4 C           3.4648    0.1778   -2.0262 C.ar    1  UNL1       -0.0340
      5 C           2.3028   -0.1207   -1.3660 C.ar    1  UNL1        0.0900
      6 N           1.0963   -0.4823   -1.7898 N.ar    1  UNL1       -0.2220
      7 C           0.2591   -0.6935   -0.7808 C.ar    1  UNL1        0.1676
      8 S          -1.4264   -1.2197   -1.0218 S.3     1  UNL1       -0.0816
      9 C          -2.3663   -1.3771    0.4887 C.3     1  UNL1        0.0434
     10 C          -3.6852   -0.7355    0.2851 C.ar    1  UNL1        0.0515
     11 C          -3.8481    0.5993    0.5261 C.ar    1  UNL1       -0.0396
     12 C          -5.0826    1.2037    0.3447 C.ar    1  UNL1       -0.0586
     13 C          -6.1376    0.4511   -0.0784 C.ar    1  UNL1       -0.0436
     14 C          -5.9738   -0.9069   -0.3242 C.ar    1  UNL1        0.0279
     15 N          -4.7611   -1.4454   -0.1342 N.ar    1  UNL1       -0.2590
     16 N           0.9490   -0.4584    0.3414 N.ar    1  UNL1       -0.3329
     17 C           2.2097   -0.1064    0.0202 C.ar    1  UNL1        0.0671
     18 C           3.3551    0.2252    0.7159 C.ar    1  UNL1       -0.0333
     19 H           5.8119    1.9620    0.9530 H       1  UNL1        0.0278
     20 H           5.8749    0.2883    1.7638 H       1  UNL1        0.0278
     21 H           6.6546    0.5770    0.1639 H       1  UNL1        0.0278
     22 H           5.5437    0.7492   -1.7713 H       1  UNL1        0.0621
     23 H           3.5009    0.1617   -3.0910 H       1  UNL1        0.0639
     24 H          -2.5175   -2.4658    0.7009 H       1  UNL1        0.0445
     25 H          -1.8505   -0.9389    1.3824 H       1  UNL1        0.0445
     26 H          -3.0176    1.2123    0.8631 H       1  UNL1        0.0636
     27 H          -5.2106    2.2466    0.5314 H       1  UNL1        0.0619
     28 H          -7.0928    0.9418   -0.2146 H       1  UNL1        0.0633
     29 H          -6.8421   -1.4497   -0.6546 H       1  UNL1        0.0829
     30 H           0.5659   -0.5368    1.2993 H       1  UNL1        0.1679
     31 H           3.3091    0.2433    1.8148 H       1  UNL1        0.0641
@<TRIPOS>BOND
     1     1     2    1
     2     2     3   ar
     3     3     4   ar
     4     4     5   ar
     5     5     6   ar
     6     6     7   ar
     7     7     8    1
     8     8     9    1
     9     9    10    1
    10    10    11   ar
    11    11    12   ar
    12    12    13   ar
    13    13    14   ar
    14    14    15   ar
    15     7    16   ar
    16    16    17   ar
    17    17    18   ar
    18    18     2   ar
    19    17     5   ar
    20    15    10   ar
    21     1    19    1
    22     1    20    1
    23     1    21    1
    24     3    22    1
    25     4    23    1
    26     9    24    1
    27     9    25    1
    28    11    26    1
    29    12    27    1
    30    13    28    1
    31    14    29    1
    32    16    30    1
    33    18    31    1
