
     RDKit          3D

 32 33  0  0  0  0  0  0  0  0999 V2000
   -4.6651   -0.0965   -2.0341 C   0  0  0  0  0  0  0  0  0  0  0  0
   -4.1292   -0.2011   -0.6336 C   0  0  0  0  0  0  0  0  0  0  0  0
   -5.0772    0.4299    0.3476 C   0  0  0  0  0  0  0  0  0  0  0  0
   -2.7750    0.2848   -0.5054 N   0  0  0  0  0  0  0  0  0  0  0  0
   -1.6747   -0.5017   -0.1422 C   0  0  0  0  0  0  0  0  0  0  0  0
   -1.8621   -1.7222    0.0930 O   0  0  0  0  0  0  0  0  0  0  0  0
   -0.3313    0.0892   -0.0390 C   0  0  0  0  0  0  0  0  0  0  0  0
    0.8389   -0.5540    0.3050 C   0  0  0  0  0  0  0  0  0  0  0  0
    1.8730    0.3719    0.2811 C   0  0  0  0  0  0  0  0  0  0  0  0
    3.2676    0.0607    0.5911 C   0  0  0  0  0  0  0  0  0  0  0  0
    3.6589   -1.2136    0.9386 C   0  0  0  0  0  0  0  0  0  0  0  0
    4.9634   -1.5384    1.2360 C   0  0  0  0  0  0  0  0  0  0  0  0
    5.9528   -0.5797    1.1972 C   0  0  0  0  0  0  0  0  0  0  0  0
    7.6244   -0.9580    1.5700 Cl  0  0  0  0  0  0  0  0  0  0  0  0
    5.5775    0.7023    0.8508 C   0  0  0  0  0  0  0  0  0  0  0  0
    4.2560    1.0206    0.5519 C   0  0  0  0  0  0  0  0  0  0  0  0
    3.8301    2.6531    0.1199 Cl  0  0  0  0  0  0  0  0  0  0  0  0
    1.3152    1.5228   -0.0681 N   0  0  0  0  0  0  0  0  0  0  0  0
   -0.0046    1.3733   -0.2641 N   0  0  0  0  0  0  0  0  0  0  0  0
   -4.4319   -1.0006   -2.5989 H   0  0  0  0  0  0  0  0  0  0  0  0
   -4.3572    0.8408   -2.5388 H   0  0  0  0  0  0  0  0  0  0  0  0
   -5.7793   -0.0438   -1.9474 H   0  0  0  0  0  0  0  0  0  0  0  0
   -4.0930   -1.2939   -0.3877 H   0  0  0  0  0  0  0  0  0  0  0  0
   -4.5597    0.5648    1.3104 H   0  0  0  0  0  0  0  0  0  0  0  0
   -5.5682    1.3435   -0.0329 H   0  0  0  0  0  0  0  0  0  0  0  0
   -5.9098   -0.2974    0.5451 H   0  0  0  0  0  0  0  0  0  0  0  0
   -2.6149    1.3035   -0.7011 H   0  0  0  0  0  0  0  0  0  0  0  0
    0.9066   -1.6182    0.5502 H   0  0  0  0  0  0  0  0  0  0  0  0
    2.8764   -1.9850    0.9722 H   0  0  0  0  0  0  0  0  0  0  0  0
    5.2348   -2.5559    1.5063 H   0  0  0  0  0  0  0  0  0  0  0  0
    6.3347    1.4767    0.8121 H   0  0  0  0  0  0  0  0  0  0  0  0
   -0.6771    2.1222   -0.5449 H   0  0  0  0  0  0  0  0  0  0  0  0
  1  2  1  0
  2  3  1  0
  2  4  1  0
  4  5  1  0
  5  6  2  0
  5  7  1  0
  7  8  2  0
  8  9  1  0
  9 10  1  0
 10 11  2  0
 11 12  1  0
 12 13  2  0
 13 14  1  0
 13 15  1  0
 15 16  2  0
 16 17  1  0
  9 18  2  0
 18 19  1  0
 19  7  1  0
 16 10  1  0
  1 20  1  0
  1 21  1  0
  1 22  1  0
  2 23  1  0
  3 24  1  0
  3 25  1  0
  3 26  1  0
  4 27  1  0
  8 28  1  0
 11 29  1  0
 12 30  1  0
 15 31  1  0
 19 32  1  0
M  END
$$$$
