@<TRIPOS>MOLECULE
*****
 32 33 0 0 0
SMALL
GASTEIGER

@<TRIPOS>ATOM
      1 C          -4.6651   -0.0965   -2.0341 C.3     1  UNL1       -0.0469
      2 C          -4.1292   -0.2011   -0.6336 C.3     1  UNL1        0.0178
      3 C          -5.0772    0.4299    0.3476 C.3     1  UNL1       -0.0469
      4 N          -2.7750    0.2848   -0.5054 N.am    1  UNL1       -0.3078
      5 C          -1.6747   -0.5017   -0.1422 C.2     1  UNL1        0.2621
      6 O          -1.8621   -1.7222    0.0930 O.2     1  UNL1       -0.2685
      7 C          -0.3313    0.0892   -0.0390 C.ar    1  UNL1        0.1207
      8 C           0.8389   -0.5540    0.3050 C.ar    1  UNL1       -0.0041
      9 C           1.8730    0.3719    0.2811 C.ar    1  UNL1        0.0946
     10 C           3.2676    0.0607    0.5911 C.ar    1  UNL1        0.0205
     11 C           3.6589   -1.2136    0.9386 C.ar    1  UNL1       -0.0497
     12 C           4.9634   -1.5384    1.2360 C.ar    1  UNL1       -0.0427
     13 C           5.9528   -0.5797    1.1972 C.ar    1  UNL1        0.0424
     14 CL          7.6244   -0.9580    1.5700 Cl      1  UNL1       -0.0835
     15 C           5.5775    0.7023    0.8508 C.ar    1  UNL1       -0.0244
     16 C           4.2560    1.0206    0.5519 C.ar    1  UNL1        0.0516
     17 CL          3.8301    2.6531    0.1199 Cl      1  UNL1       -0.0828
     18 N           1.3152    1.5228   -0.0681 N.ar    1  UNL1       -0.1732
     19 N          -0.0046    1.3733   -0.2641 N.ar    1  UNL1       -0.2719
     20 H          -4.4319   -1.0006   -2.5989 H       1  UNL1        0.0247
     21 H          -4.3572    0.8408   -2.5388 H       1  UNL1        0.0247
     22 H          -5.7793   -0.0438   -1.9474 H       1  UNL1        0.0247
     23 H          -4.0930   -1.2939   -0.3877 H       1  UNL1        0.0493
     24 H          -4.5597    0.5648    1.3104 H       1  UNL1        0.0247
     25 H          -5.5682    1.3435   -0.0329 H       1  UNL1        0.0247
     26 H          -5.9098   -0.2974    0.5451 H       1  UNL1        0.0247
     27 H          -2.6149    1.3035   -0.7011 H       1  UNL1        0.1493
     28 H           0.9066   -1.6182    0.5502 H       1  UNL1        0.0662
     29 H           2.8764   -1.9850    0.9722 H       1  UNL1        0.0625
     30 H           5.2348   -2.5559    1.5063 H       1  UNL1        0.0632
     31 H           6.3347    1.4767    0.8121 H       1  UNL1        0.0647
     32 H          -0.6771    2.1222   -0.5449 H       1  UNL1        0.1891
@<TRIPOS>BOND
     1     1     2    1
     2     2     3    1
     3     2     4    1
     4     4     5   am
     5     5     6    2
     6     5     7    1
     7     7     8   ar
     8     8     9   ar
     9     9    10    1
    10    10    11   ar
    11    11    12   ar
    12    12    13   ar
    13    13    14    1
    14    13    15   ar
    15    15    16   ar
    16    16    17    1
    17     9    18   ar
    18    18    19   ar
    19    19     7   ar
    20    16    10   ar
    21     1    20    1
    22     1    21    1
    23     1    22    1
    24     2    23    1
    25     3    24    1
    26     3    25    1
    27     3    26    1
    28     4    27    1
    29     8    28    1
    30    11    29    1
    31    12    30    1
    32    15    31    1
    33    19    32    1
