
     RDKit          3D

 50 54  0  0  0  0  0  0  0  0999 V2000
   -2.3213   -3.9974    1.4203 C   0  0  0  0  0  0  0  0  0  0  0  0
   -2.3184   -2.5776    1.2644 N   0  0  0  0  0  0  0  0  0  0  0  0
   -1.0983   -2.1734    0.6372 C   0  0  0  0  0  0  0  0  0  0  0  0
   -1.2447   -2.7579   -0.7605 C   0  0  0  0  0  0  0  0  0  0  0  0
   -2.7200   -2.7586   -1.0364 C   0  0  0  0  0  0  0  0  0  0  0  0
   -3.3105   -2.2071    0.2442 C   0  0  2  0  0  0  0  0  0  0  0  0
   -3.3660   -0.7012    0.2383 C   0  0  0  0  0  0  0  0  0  0  0  0
   -2.0720   -0.1431   -0.3207 C   0  0  0  0  0  0  0  0  0  0  0  0
   -2.1739    1.3140   -0.3254 C   0  0  0  0  0  0  0  0  0  0  0  0
   -2.3112    2.0857    0.8108 C   0  0  0  0  0  0  0  0  0  0  0  0
   -2.4022    3.4507    0.7444 C   0  0  0  0  0  0  0  0  0  0  0  0
   -2.3602    4.1019   -0.4551 C   0  0  0  0  0  0  0  0  0  0  0  0
   -2.4748    5.8565   -0.5720 Cl  0  0  0  0  0  0  0  0  0  0  0  0
   -2.2247    3.3738   -1.6071 C   0  0  0  0  0  0  0  0  0  0  0  0
   -2.1330    1.9842   -1.5281 C   0  0  0  0  0  0  0  0  0  0  0  0
   -0.9489   -0.6658    0.5367 C   0  0  2  0  0  0  0  0  0  0  0  0
    0.3809   -0.3949   -0.0382 C   0  0  0  0  0  0  0  0  0  0  0  0
    1.0416   -0.6059   -1.1053 N   0  0  0  0  0  0  0  0  0  0  0  0
    2.2329   -0.2403   -1.3421 C   0  0  0  0  0  0  0  0  0  0  0  0
    2.9197    0.4668   -0.3561 C   0  0  0  0  0  0  0  0  0  0  0  0
    4.2465    0.9878   -0.3625 C   0  0  0  0  0  0  0  0  0  0  0  0
    4.7627    1.6686    0.7164 C   0  0  0  0  0  0  0  0  0  0  0  0
    6.0675    2.1731    0.6923 C   0  0  0  0  0  0  0  0  0  0  0  0
    6.8616    1.9961   -0.4170 C   0  0  0  0  0  0  0  0  0  0  0  0
    6.3503    1.3166   -1.4975 C   0  0  0  0  0  0  0  0  0  0  0  0
    5.0629    0.8276   -1.4538 C   0  0  0  0  0  0  0  0  0  0  0  0
    1.7015    0.5455    0.9097 S   0  0  0  0  0  0  0  0  0  0  0  0
   -3.3086   -4.2883    1.8785 H   0  0  0  0  0  0  0  0  0  0  0  0
   -1.5449   -4.3024    2.1495 H   0  0  0  0  0  0  0  0  0  0  0  0
   -2.2408   -4.5498    0.4633 H   0  0  0  0  0  0  0  0  0  0  0  0
   -0.2563   -2.6316    1.1817 H   0  0  0  0  0  0  0  0  0  0  0  0
   -0.7407   -2.1443   -1.5175 H   0  0  0  0  0  0  0  0  0  0  0  0
   -0.7885   -3.7711   -0.7998 H   0  0  0  0  0  0  0  0  0  0  0  0
   -3.0071   -2.1759   -1.9297 H   0  0  0  0  0  0  0  0  0  0  0  0
   -3.1111   -3.7974   -1.2215 H   0  0  0  0  0  0  0  0  0  0  0  0
   -4.2771   -2.6786    0.4108 H   0  0  0  0  0  0  0  0  0  0  0  0
   -4.2498   -0.3169   -0.3206 H   0  0  0  0  0  0  0  0  0  0  0  0
   -3.5163   -0.3880    1.3042 H   0  0  0  0  0  0  0  0  0  0  0  0
   -1.9711   -0.5210   -1.3388 H   0  0  0  0  0  0  0  0  0  0  0  0
   -2.3447    1.5811    1.7518 H   0  0  0  0  0  0  0  0  0  0  0  0
   -2.5095    4.0431    1.6422 H   0  0  0  0  0  0  0  0  0  0  0  0
   -2.1901    3.8752   -2.5620 H   0  0  0  0  0  0  0  0  0  0  0  0
   -2.0278    1.4511   -2.4547 H   0  0  0  0  0  0  0  0  0  0  0  0
   -1.0612   -0.2575    1.5612 H   0  0  0  0  0  0  0  0  0  0  0  0
    2.7766   -0.4435   -2.2875 H   0  0  0  0  0  0  0  0  0  0  0  0
    4.2059    1.8500    1.6238 H   0  0  0  0  0  0  0  0  0  0  0  0
    6.4867    2.7091    1.5302 H   0  0  0  0  0  0  0  0  0  0  0  0
    7.8775    2.3733   -0.4712 H   0  0  0  0  0  0  0  0  0  0  0  0
    6.9486    1.1567   -2.3933 H   0  0  0  0  0  0  0  0  0  0  0  0
    4.7022    0.3009   -2.3230 H   0  0  0  0  0  0  0  0  0  0  0  0
  1  2  1  0
  2  3  1  0
  3  4  1  0
  4  5  1  0
  5  6  1  0
  6  7  1  0
  7  8  1  0
  8  9  1  0
  9 10  2  0
 10 11  1  0
 11 12  2  0
 12 13  1  0
 12 14  1  0
 14 15  2  0
  8 16  1  0
 16 17  1  0
 17 18  2  0
 18 19  1  0
 19 20  2  0
 20 21  1  0
 21 22  2  0
 22 23  1  0
 23 24  2  0
 24 25  1  0
 25 26  2  0
 20 27  1  0
  6  2  1  0
 15  9  1  0
 27 17  1  0
 16  3  1  0
 26 21  1  0
  1 28  1  0
  1 29  1  0
  1 30  1  0
  3 31  1  0
  4 32  1  0
  4 33  1  0
  5 34  1  0
  5 35  1  0
  6 36  1  1
  7 37  1  0
  7 38  1  0
  8 39  1  0
 10 40  1  0
 11 41  1  0
 14 42  1  0
 15 43  1  0
 16 44  1  1
 19 45  1  0
 22 46  1  0
 23 47  1  0
 24 48  1  0
 25 49  1  0
 26 50  1  0
M  END
$$$$
