@<TRIPOS>MOLECULE
*****
 50 54 0 0 0
SMALL
GASTEIGER

@<TRIPOS>ATOM
      1 C          -2.3213   -3.9974    1.4203 C.3     1  UNL1       -0.0122
      2 N          -2.3184   -2.5776    1.2644 N.3     1  UNL1       -0.2988
      3 C          -1.0983   -2.1734    0.6372 C.3     1  UNL1        0.0197
      4 C          -1.2447   -2.7579   -0.7605 C.3     1  UNL1       -0.0353
      5 C          -2.7200   -2.7586   -1.0364 C.3     1  UNL1       -0.0359
      6 C          -3.3105   -2.2071    0.2442 C.3     1  UNL1        0.0110
      7 C          -3.3660   -0.7012    0.2383 C.3     1  UNL1       -0.0298
      8 C          -2.0720   -0.1431   -0.3207 C.3     1  UNL1       -0.0043
      9 C          -2.1739    1.3140   -0.3254 C.ar    1  UNL1       -0.0434
     10 C          -2.3112    2.0857    0.8108 C.ar    1  UNL1       -0.0569
     11 C          -2.4022    3.4507    0.7444 C.ar    1  UNL1       -0.0431
     12 C          -2.3602    4.1019   -0.4551 C.ar    1  UNL1        0.0410
     13 CL         -2.4748    5.8565   -0.5720 Cl      1  UNL1       -0.0835
     14 C          -2.2247    3.3738   -1.6071 C.ar    1  UNL1       -0.0431
     15 C          -2.1330    1.9842   -1.5281 C.ar    1  UNL1       -0.0569
     16 C          -0.9489   -0.6658    0.5367 C.3     1  UNL1        0.0301
     17 C           0.3809   -0.3949   -0.0382 C.ar    1  UNL1        0.0840
     18 N           1.0416   -0.6059   -1.1053 N.ar    1  UNL1       -0.2513
     19 C           2.2329   -0.2403   -1.3421 C.ar    1  UNL1        0.0428
     20 C           2.9197    0.4668   -0.3561 C.ar    1  UNL1        0.0391
     21 C           4.2465    0.9878   -0.3625 C.ar    1  UNL1       -0.0098
     22 C           4.7627    1.6686    0.7164 C.ar    1  UNL1       -0.0535
     23 C           6.0675    2.1731    0.6923 C.ar    1  UNL1       -0.0612
     24 C           6.8616    1.9961   -0.4170 C.ar    1  UNL1       -0.0617
     25 C           6.3503    1.3166   -1.4975 C.ar    1  UNL1       -0.0612
     26 C           5.0629    0.8276   -1.4538 C.ar    1  UNL1       -0.0535
     27 S           1.7015    0.5455    0.9097 S.2     1  UNL1       -0.0718
     28 H          -3.3086   -4.2883    1.8785 H       1  UNL1        0.0391
     29 H          -1.5449   -4.3024    2.1495 H       1  UNL1        0.0391
     30 H          -2.2408   -4.5498    0.4633 H       1  UNL1        0.0391
     31 H          -0.2563   -2.6316    1.1817 H       1  UNL1        0.0469
     32 H          -0.7407   -2.1443   -1.5175 H       1  UNL1        0.0281
     33 H          -0.7885   -3.7711   -0.7998 H       1  UNL1        0.0281
     34 H          -3.0071   -2.1759   -1.9297 H       1  UNL1        0.0281
     35 H          -3.1111   -3.7974   -1.2215 H       1  UNL1        0.0281
     36 H          -4.2771   -2.6786    0.4108 H       1  UNL1        0.0463
     37 H          -4.2498   -0.3169   -0.3206 H       1  UNL1        0.0286
     38 H          -3.5163   -0.3880    1.3042 H       1  UNL1        0.0286
     39 H          -1.9711   -0.5210   -1.3388 H       1  UNL1        0.0356
     40 H          -2.3447    1.5811    1.7518 H       1  UNL1        0.0621
     41 H          -2.5095    4.0431    1.6422 H       1  UNL1        0.0632
     42 H          -2.1901    3.8752   -2.5620 H       1  UNL1        0.0632
     43 H          -2.0278    1.4511   -2.4547 H       1  UNL1        0.0621
     44 H          -1.0612   -0.2575    1.5612 H       1  UNL1        0.0390
     45 H           2.7766   -0.4435   -2.2875 H       1  UNL1        0.0841
     46 H           4.2059    1.8500    1.6238 H       1  UNL1        0.0624
     47 H           6.4867    2.7091    1.5302 H       1  UNL1        0.0618
     48 H           7.8775    2.3733   -0.4712 H       1  UNL1        0.0618
     49 H           6.9486    1.1567   -2.3933 H       1  UNL1        0.0618
     50 H           4.7022    0.3009   -2.3230 H       1  UNL1        0.0624
@<TRIPOS>BOND
     1     1     2    1
     2     2     3    1
     3     3     4    1
     4     4     5    1
     5     5     6    1
     6     6     7    1
     7     7     8    1
     8     8     9    1
     9     9    10   ar
    10    10    11   ar
    11    11    12   ar
    12    12    13    1
    13    12    14   ar
    14    14    15   ar
    15     8    16    1
    16    16    17    1
    17    17    18   ar
    18    18    19   ar
    19    19    20   ar
    20    20    21    1
    21    21    22   ar
    22    22    23   ar
    23    23    24   ar
    24    24    25   ar
    25    25    26   ar
    26    20    27   ar
    27     6     2    1
    28    15     9   ar
    29    27    17   ar
    30    16     3    1
    31    26    21   ar
    32     1    28    1
    33     1    29    1
    34     1    30    1
    35     3    31    1
    36     4    32    1
    37     4    33    1
    38     5    34    1
    39     5    35    1
    40     6    36    1
    41     7    37    1
    42     7    38    1
    43     8    39    1
    44    10    40    1
    45    11    41    1
    46    14    42    1
    47    15    43    1
    48    16    44    1
    49    19    45    1
    50    22    46    1
    51    23    47    1
    52    24    48    1
    53    25    49    1
    54    26    50    1
