
     RDKit          3D

  9  8  0  0  0  0  0  0  0  0999 V2000
    1.3622   -0.3108   -0.1417 N   0  0  0  0  0  0  0  0  0  0  0  0
    0.0698    0.3216   -0.0540 C   0  0  0  0  0  0  0  0  0  0  0  0
   -0.9753   -0.6026    0.2126 N   0  0  0  0  0  0  0  0  0  0  0  0
   -0.1407    1.5707   -0.1960 N   0  0  0  0  0  0  0  0  0  0  0  0
    1.5963   -0.9510   -0.9322 H   0  0  0  0  0  0  0  0  0  0  0  0
    1.9921   -0.0552    0.6464 H   0  0  0  0  0  0  0  0  0  0  0  0
   -1.1306   -1.1073    1.1238 H   0  0  0  0  0  0  0  0  0  0  0  0
   -1.6693   -0.8246   -0.5396 H   0  0  0  0  0  0  0  0  0  0  0  0
   -1.1045    1.9592   -0.1193 H   0  0  0  0  0  0  0  0  0  0  0  0
  1  2  1  0
  2  3  1  0
  2  4  2  3
  1  5  1  0
  1  6  1  0
  3  7  1  0
  3  8  1  0
  4  9  1  0
M  END
$$$$
