@<TRIPOS>MOLECULE
*****
 9 8 0 0 0
SMALL
GASTEIGER

@<TRIPOS>ATOM
      1 N           1.3622   -0.3108   -0.1417 N.pl3   1  UNL1       -0.2894
      2 C           0.0698    0.3216   -0.0540 C.cat   1  UNL1        0.3740
      3 N          -0.9753   -0.6026    0.2126 N.pl3   1  UNL1       -0.2894
      4 N          -0.1407    1.5707   -0.1960 N.pl3   1  UNL1       -0.1299
      5 H           1.5963   -0.9510   -0.9322 H       1  UNL1        0.2546
      6 H           1.9921   -0.0552    0.6464 H       1  UNL1        0.2546
      7 H          -1.1306   -1.1073    1.1238 H       1  UNL1        0.2546
      8 H          -1.6693   -0.8246   -0.5396 H       1  UNL1        0.2546
      9 H          -1.1045    1.9592   -0.1193 H       1  UNL1        0.3062
@<TRIPOS>BOND
     1     1     2    1
     2     2     3    1
     3     2     4    2
     4     1     5    1
     5     1     6    1
     6     3     7    1
     7     3     8    1
     8     4     9    1
