
     RDKit          3D

 71 73  0  0  0  0  0  0  0  0999 V2000
   -2.0384    3.7356    1.4919 C   0  0  0  0  0  0  0  0  0  0  0  0
   -2.2673    3.4184   -0.0035 C   0  0  0  0  0  0  0  0  0  0  0  0
   -0.9337    3.2258   -0.6012 C   0  0  0  0  0  0  0  0  0  0  0  0
   -0.1170    2.1472   -0.0293 C   0  0  0  0  0  0  0  0  0  0  0  0
   -0.4327    0.7781   -0.1608 N   0  0  0  0  0  0  0  0  0  0  0  0
   -1.4470    0.0959    0.5202 C   0  0  0  0  0  0  0  0  0  0  0  0
   -1.2486   -0.3204    1.8362 C   0  0  0  0  0  0  0  0  0  0  0  0
   -2.2339   -0.9351    2.5602 C   0  0  0  0  0  0  0  0  0  0  0  0
   -3.4507   -1.1568    2.0008 C   0  0  0  0  0  0  0  0  0  0  0  0
   -3.6930   -0.7636    0.7031 C   0  0  0  0  0  0  0  0  0  0  0  0
   -5.0113   -0.9714    0.1021 C   0  0  0  0  0  0  0  0  0  0  0  0
   -5.5432   -2.2599   -0.0164 C   0  0  0  0  0  0  0  0  0  0  0  0
   -6.7805   -2.4603   -0.5495 C   0  0  0  0  0  0  0  0  0  0  0  0
   -7.4892   -1.3499   -0.9678 C   0  0  0  0  0  0  0  0  0  0  0  0
   -8.8527   -1.4814   -1.5652 C   0  0  0  0  0  0  0  0  0  0  0  0
   -8.7351   -1.3118   -2.9226 F   0  0  0  0  0  0  0  0  0  0  0  0
   -9.3453   -2.7552   -1.3286 F   0  0  0  0  0  0  0  0  0  0  0  0
   -9.7346   -0.5820   -1.0281 F   0  0  0  0  0  0  0  0  0  0  0  0
   -6.9783   -0.0774   -0.8567 C   0  0  0  0  0  0  0  0  0  0  0  0
   -5.7177    0.1299   -0.3133 C   0  0  0  0  0  0  0  0  0  0  0  0
   -2.6878   -0.1468   -0.0134 C   0  0  0  0  0  0  0  0  0  0  0  0
   -2.9064    0.1685   -1.4293 C   0  0  0  0  0  0  0  0  0  0  0  0
    0.6620   -0.1737   -1.1940 S   0  0  0  0  0  6  0  0  0  0  0  0
    0.7321    0.5432   -2.5425 O   0  0  0  0  0  0  0  0  0  0  0  0
    0.0838   -1.5184   -1.4522 O   0  0  0  0  0  0  0  0  0  0  0  0
    2.2674   -0.1984   -0.5535 C   0  0  0  0  0  0  0  0  0  0  0  0
    2.5500    0.3833    0.6523 C   0  0  0  0  0  0  0  0  0  0  0  0
    3.8084    0.3680    1.1899 C   0  0  0  0  0  0  0  0  0  0  0  0
    4.8991   -0.2547    0.5275 C   0  0  0  0  0  0  0  0  0  0  0  0
    6.0982   -0.2320    1.1089 O   0  0  0  0  0  0  0  0  0  0  0  0
    7.3540   -0.6168    0.9762 C   0  0  0  0  0  0  0  0  0  0  0  0
    8.3491    0.5930    0.8936 C   0  0  0  0  0  0  0  0  0  0  0  0
    7.8492   -1.4581    2.1424 C   0  0  0  0  0  0  0  0  0  0  0  0
    9.0136   -1.8695    2.1089 O   0  0  0  0  0  0  0  0  0  0  0  0
    7.0068   -1.7324    3.1809 O   0  0  0  0  0  0  0  0  0  0  0  0
    4.5719   -0.8378   -0.6992 C   0  0  0  0  0  0  0  0  0  0  0  0
    5.6327   -1.5097   -1.4840 C   0  0  0  0  0  0  0  0  0  0  0  0
    3.2888   -0.8085   -1.2221 C   0  0  0  0  0  0  0  0  0  0  0  0
    3.0359   -1.4851   -2.5498 C   0  0  0  0  0  0  0  0  0  0  0  0
   -1.8699    2.7596    2.0011 H   0  0  0  0  0  0  0  0  0  0  0  0
   -1.0894    4.3170    1.6101 H   0  0  0  0  0  0  0  0  0  0  0  0
   -2.8807    4.2799    1.9262 H   0  0  0  0  0  0  0  0  0  0  0  0
   -2.7717    4.3403   -0.4591 H   0  0  0  0  0  0  0  0  0  0  0  0
   -2.9296    2.5969   -0.0991 H   0  0  0  0  0  0  0  0  0  0  0  0
   -0.9534    3.2178   -1.7295 H   0  0  0  0  0  0  0  0  0  0  0  0
   -0.3553    4.1917   -0.3897 H   0  0  0  0  0  0  0  0  0  0  0  0
    0.9684    2.2646   -0.3648 H   0  0  0  0  0  0  0  0  0  0  0  0
    0.0020    2.4272    1.0880 H   0  0  0  0  0  0  0  0  0  0  0  0
   -0.2489   -0.1222    2.2542 H   0  0  0  0  0  0  0  0  0  0  0  0
   -2.0363   -1.2390    3.5716 H   0  0  0  0  0  0  0  0  0  0  0  0
   -4.2766   -1.6373    2.5166 H   0  0  0  0  0  0  0  0  0  0  0  0
   -4.9310   -3.0876    0.3329 H   0  0  0  0  0  0  0  0  0  0  0  0
   -7.2013   -3.4524   -0.6454 H   0  0  0  0  0  0  0  0  0  0  0  0
   -7.5437    0.7822   -1.1876 H   0  0  0  0  0  0  0  0  0  0  0  0
   -5.3782    1.1469   -0.2360 H   0  0  0  0  0  0  0  0  0  0  0  0
   -1.9514    0.4069   -1.9642 H   0  0  0  0  0  0  0  0  0  0  0  0
   -3.5859    0.9894   -1.6636 H   0  0  0  0  0  0  0  0  0  0  0  0
   -3.3754   -0.7573   -1.8793 H   0  0  0  0  0  0  0  0  0  0  0  0
    1.7976    0.8816    1.2769 H   0  0  0  0  0  0  0  0  0  0  0  0
    4.0609    0.8184    2.1365 H   0  0  0  0  0  0  0  0  0  0  0  0
    7.6498   -1.2169    0.0970 H   0  0  0  0  0  0  0  0  0  0  0  0
    8.3356    1.1008    1.8577 H   0  0  0  0  0  0  0  0  0  0  0  0
    9.3437    0.1514    0.6762 H   0  0  0  0  0  0  0  0  0  0  0  0
    7.9811    1.1873    0.0555 H   0  0  0  0  0  0  0  0  0  0  0  0
    7.1428   -2.5599    3.7667 H   0  0  0  0  0  0  0  0  0  0  0  0
    6.4598   -0.8576   -1.7931 H   0  0  0  0  0  0  0  0  0  0  0  0
    5.1765   -1.9021   -2.4308 H   0  0  0  0  0  0  0  0  0  0  0  0
    6.0246   -2.3909   -0.9767 H   0  0  0  0  0  0  0  0  0  0  0  0
    3.6196   -1.0210   -3.3408 H   0  0  0  0  0  0  0  0  0  0  0  0
    3.2975   -2.5698   -2.4718 H   0  0  0  0  0  0  0  0  0  0  0  0
    1.9603   -1.3653   -2.8350 H   0  0  0  0  0  0  0  0  0  0  0  0
  1  2  1  0
  2  3  1  0
  3  4  1  0
  4  5  1  0
  5  6  1  0
  6  7  2  0
  7  8  1  0
  8  9  2  0
  9 10  1  0
 10 11  1  0
 11 12  2  0
 12 13  1  0
 13 14  2  0
 14 15  1  0
 15 16  1  0
 15 17  1  0
 15 18  1  0
 14 19  1  0
 19 20  2  0
 10 21  2  0
 21 22  1  0
  5 23  1  0
 23 24  2  0
 23 25  2  0
 23 26  1  0
 26 27  2  0
 27 28  1  0
 28 29  2  0
 29 30  1  0
 30 31  1  0
 31 32  1  0
 31 33  1  0
 33 34  2  0
 33 35  1  0
 29 36  1  0
 36 37  1  0
 36 38  2  0
 38 39  1  0
 21  6  1  0
 38 26  1  0
 20 11  1  0
  1 40  1  0
  1 41  1  0
  1 42  1  0
  2 43  1  0
  2 44  1  0
  3 45  1  0
  3 46  1  0
  4 47  1  0
  4 48  1  0
  7 49  1  0
  8 50  1  0
  9 51  1  0
 12 52  1  0
 13 53  1  0
 19 54  1  0
 20 55  1  0
 22 56  1  0
 22 57  1  0
 22 58  1  0
 27 59  1  0
 28 60  1  0
 31 61  1  0
 32 62  1  0
 32 63  1  0
 32 64  1  0
 35 65  1  0
 37 66  1  0
 37 67  1  0
 37 68  1  0
 39 69  1  0
 39 70  1  0
 39 71  1  0
M  END
$$$$
