@<TRIPOS>MOLECULE
*****
 71 73 0 0 0
SMALL
GASTEIGER

@<TRIPOS>ATOM
      1 C          -2.0384    3.7356    1.4919 C.3     1  UNL1       -0.0652
      2 C          -2.2673    3.4184   -0.0035 C.3     1  UNL1       -0.0544
      3 C          -0.9337    3.2258   -0.6012 C.3     1  UNL1       -0.0357
      4 C          -0.1170    2.1472   -0.0293 C.3     1  UNL1        0.0350
      5 N          -0.4327    0.7781   -0.1608 N.pl3   1  UNL1       -0.2027
      6 C          -1.4470    0.0959    0.5202 C.ar    1  UNL1        0.0547
      7 C          -1.2486   -0.3204    1.8362 C.ar    1  UNL1       -0.0388
      8 C          -2.2339   -0.9351    2.5602 C.ar    1  UNL1       -0.0594
      9 C          -3.4507   -1.1568    2.0008 C.ar    1  UNL1       -0.0537
     10 C          -3.6930   -0.7636    0.7031 C.ar    1  UNL1       -0.0132
     11 C          -5.0113   -0.9714    0.1021 C.ar    1  UNL1       -0.0176
     12 C          -5.5432   -2.2599   -0.0164 C.ar    1  UNL1       -0.0535
     13 C          -6.7805   -2.4603   -0.5495 C.ar    1  UNL1       -0.0495
     14 C          -7.4892   -1.3499   -0.9678 C.ar    1  UNL1        0.0548
     15 C          -8.8527   -1.4814   -1.5652 C.3     1  UNL1        0.4174
     16 F          -8.7351   -1.3118   -2.9226 F       1  UNL1       -0.1659
     17 F          -9.3453   -2.7552   -1.3286 F       1  UNL1       -0.1659
     18 F          -9.7346   -0.5820   -1.0281 F       1  UNL1       -0.1659
     19 C          -6.9783   -0.0774   -0.8567 C.ar    1  UNL1       -0.0495
     20 C          -5.7177    0.1299   -0.3133 C.ar    1  UNL1       -0.0535
     21 C          -2.6878   -0.1468   -0.0134 C.ar    1  UNL1       -0.0202
     22 C          -2.9064    0.1685   -1.4293 C.3     1  UNL1       -0.0373
     23 S           0.6620   -0.1737   -1.1940 S.O2    1  UNL1        0.0750
     24 O           0.7321    0.5432   -2.5425 O.2     1  UNL1       -0.1498
     25 O           0.0838   -1.5184   -1.4522 O.2     1  UNL1       -0.1498
     26 C           2.2674   -0.1984   -0.5535 C.ar    1  UNL1        0.1121
     27 C           2.5500    0.3833    0.6523 C.ar    1  UNL1       -0.0313
     28 C           3.8084    0.3680    1.1899 C.ar    1  UNL1       -0.0178
     29 C           4.8991   -0.2547    0.5275 C.ar    1  UNL1        0.1249
     30 O           6.0982   -0.2320    1.1089 O.3     1  UNL1       -0.4776
     31 C           7.3540   -0.6168    0.9762 C.3     1  UNL1        0.1931
     32 C           8.3491    0.5930    0.8936 C.3     1  UNL1       -0.0172
     33 C           7.8492   -1.4581    2.1424 C.2     1  UNL1        0.3456
     34 O           9.0136   -1.8695    2.1089 O.2     1  UNL1       -0.2468
     35 O           7.0068   -1.7324    3.1809 O.3     1  UNL1       -0.4781
     36 C           4.5719   -0.8378   -0.6992 C.ar    1  UNL1       -0.0040
     37 C           5.6327   -1.5097   -1.4840 C.3     1  UNL1       -0.0359
     38 C           3.2888   -0.8085   -1.2221 C.ar    1  UNL1       -0.0175
     39 C           3.0359   -1.4851   -2.5498 C.3     1  UNL1       -0.0375
     40 H          -1.8699    2.7596    2.0011 H       1  UNL1        0.0230
     41 H          -1.0894    4.3170    1.6101 H       1  UNL1        0.0230
     42 H          -2.8807    4.2799    1.9262 H       1  UNL1        0.0230
     43 H          -2.7717    4.3403   -0.4591 H       1  UNL1        0.0263
     44 H          -2.9296    2.5969   -0.0991 H       1  UNL1        0.0263
     45 H          -0.9534    3.2178   -1.7295 H       1  UNL1        0.0281
     46 H          -0.3553    4.1917   -0.3897 H       1  UNL1        0.0281
     47 H           0.9684    2.2646   -0.3648 H       1  UNL1        0.0482
     48 H           0.0020    2.4272    1.0880 H       1  UNL1        0.0482
     49 H          -0.2489   -0.1222    2.2542 H       1  UNL1        0.0637
     50 H          -2.0363   -1.2390    3.5716 H       1  UNL1        0.0618
     51 H          -4.2766   -1.6373    2.5166 H       1  UNL1        0.0624
     52 H          -4.9310   -3.0876    0.3329 H       1  UNL1        0.0624
     53 H          -7.2013   -3.4524   -0.6454 H       1  UNL1        0.0623
     54 H          -7.5437    0.7822   -1.1876 H       1  UNL1        0.0623
     55 H          -5.3782    1.1469   -0.2360 H       1  UNL1        0.0624
     56 H          -1.9514    0.4069   -1.9642 H       1  UNL1        0.0278
     57 H          -3.5859    0.9894   -1.6636 H       1  UNL1        0.0278
     58 H          -3.3754   -0.7573   -1.8793 H       1  UNL1        0.0278
     59 H           1.7976    0.8816    1.2769 H       1  UNL1        0.0638
     60 H           4.0609    0.8184    2.1365 H       1  UNL1        0.0655
     61 H           7.6498   -1.2169    0.0970 H       1  UNL1        0.0849
     62 H           8.3356    1.1008    1.8577 H       1  UNL1        0.0271
     63 H           9.3437    0.1514    0.6762 H       1  UNL1        0.0271
     64 H           7.9811    1.1873    0.0555 H       1  UNL1        0.0271
     65 H           7.1428   -2.5599    3.7667 H       1  UNL1        0.2952
     66 H           6.4598   -0.8576   -1.7931 H       1  UNL1        0.0279
     67 H           5.1765   -1.9021   -2.4308 H       1  UNL1        0.0279
     68 H           6.0246   -2.3909   -0.9767 H       1  UNL1        0.0279
     69 H           3.6196   -1.0210   -3.3408 H       1  UNL1        0.0278
     70 H           3.2975   -2.5698   -2.4718 H       1  UNL1        0.0278
     71 H           1.9603   -1.3653   -2.8350 H       1  UNL1        0.0278
@<TRIPOS>BOND
     1     1     2    1
     2     2     3    1
     3     3     4    1
     4     4     5    1
     5     5     6    1
     6     6     7   ar
     7     7     8   ar
     8     8     9   ar
     9     9    10   ar
    10    10    11    1
    11    11    12   ar
    12    12    13   ar
    13    13    14   ar
    14    14    15    1
    15    15    16    1
    16    15    17    1
    17    15    18    1
    18    14    19   ar
    19    19    20   ar
    20    10    21   ar
    21    21    22    1
    22     5    23    1
    23    23    24    2
    24    23    25    2
    25    23    26    1
    26    26    27   ar
    27    27    28   ar
    28    28    29   ar
    29    29    30    1
    30    30    31    1
    31    31    32    1
    32    31    33    1
    33    33    34    2
    34    33    35    1
    35    29    36   ar
    36    36    37    1
    37    36    38   ar
    38    38    39    1
    39    21     6   ar
    40    38    26   ar
    41    20    11   ar
    42     1    40    1
    43     1    41    1
    44     1    42    1
    45     2    43    1
    46     2    44    1
    47     3    45    1
    48     3    46    1
    49     4    47    1
    50     4    48    1
    51     7    49    1
    52     8    50    1
    53     9    51    1
    54    12    52    1
    55    13    53    1
    56    19    54    1
    57    20    55    1
    58    22    56    1
    59    22    57    1
    60    22    58    1
    61    27    59    1
    62    28    60    1
    63    31    61    1
    64    32    62    1
    65    32    63    1
    66    32    64    1
    67    35    65    1
    68    37    66    1
    69    37    67    1
    70    37    68    1
    71    39    69    1
    72    39    70    1
    73    39    71    1
