
     RDKit          3D

 61 64  0  0  0  0  0  0  0  0999 V2000
    0.6400   -4.5652    0.3499 C   0  0  0  0  0  0  0  0  0  0  0  0
    1.4334   -3.3142    0.5973 C   0  0  0  0  0  0  0  0  0  0  0  0
    2.1619   -2.9624   -0.6847 C   0  0  0  0  0  0  0  0  0  0  0  0
    2.9797   -1.7220   -0.5191 C   0  0  0  0  0  0  0  0  0  0  0  0
    4.3664   -1.8019   -0.3688 C   0  0  0  0  0  0  0  0  0  0  0  0
    5.1145   -0.6584   -0.2146 C   0  0  0  0  0  0  0  0  0  0  0  0
    6.5050   -0.6707   -0.0601 O   0  0  0  0  0  0  0  0  0  0  0  0
    7.2295    0.4938    0.1031 C   0  0  0  0  0  0  0  0  0  0  0  0
    7.7269    1.1856   -0.9807 C   0  0  0  0  0  0  0  0  0  0  0  0
    8.4535    2.3508   -0.8536 C   0  0  0  0  0  0  0  0  0  0  0  0
    8.6973    2.8515    0.4030 C   0  0  0  0  0  0  0  0  0  0  0  0
    9.6193    4.3385    0.6391 Cl  0  0  0  0  0  0  0  0  0  0  0  0
    8.1976    2.1567    1.4953 C   0  0  0  0  0  0  0  0  0  0  0  0
    8.5114    2.7991    3.1043 Cl  0  0  0  0  0  0  0  0  0  0  0  0
    7.4787    1.0031    1.3600 C   0  0  0  0  0  0  0  0  0  0  0  0
    4.4480    0.5506   -0.2145 C   0  0  0  0  0  0  0  0  0  0  0  0
    3.0787    0.6285   -0.3630 C   0  0  0  0  0  0  0  0  0  0  0  0
    2.3069   -0.5199   -0.5204 C   0  0  0  0  0  0  0  0  0  0  0  0
    0.9206   -0.4386   -0.6710 O   0  0  0  0  0  0  0  0  0  0  0  0
    0.3534    0.8559   -0.6563 C   0  0  0  0  0  0  0  0  0  0  0  0
   -1.1590    0.8031   -0.8316 C   0  0  0  0  0  0  0  0  0  0  0  0
   -1.7248    0.0084    0.2970 C   0  0  0  0  0  0  0  0  0  0  0  0
   -3.0818   -0.0829    0.2339 O   0  0  0  0  0  0  0  0  0  0  0  0
   -4.1015    0.8117    0.2996 C   0  0  0  0  0  0  0  0  0  0  0  0
   -3.9529    2.1614    0.4886 C   0  0  0  0  0  0  0  0  0  0  0  0
   -5.0366    3.0471    0.5460 C   0  0  0  0  0  0  0  0  0  0  0  0
   -6.2982    2.5070    0.4033 C   0  0  0  0  0  0  0  0  0  0  0  0
   -6.4927    1.1482    0.2114 C   0  0  0  0  0  0  0  0  0  0  0  0
   -7.8772    0.6820    0.0719 C   0  0  0  0  0  0  0  0  0  0  0  0
   -9.2969    1.6920    0.1220 S   0  0  0  0  0  0  0  0  0  0  0  0
  -10.5014    0.3435   -0.1216 C   0  0  0  0  0  0  0  0  0  0  0  0
  -11.7620    0.4915   -0.1745 O   0  0  0  0  0  0  0  0  0  0  0  0
   -9.6924   -0.7066   -0.2116 N   0  0  0  0  0  0  0  0  0  0  0  0
   -8.4037   -0.5602   -0.1192 C   0  0  0  0  0  0  0  0  0  0  0  0
   -7.5074   -1.6804   -0.2132 O   0  0  0  0  0  0  0  0  0  0  0  0
   -5.4146    0.3381    0.1634 C   0  0  0  0  0  0  0  0  0  0  0  0
    0.1151   -4.8818    1.2829 H   0  0  0  0  0  0  0  0  0  0  0  0
   -0.0664   -4.3831   -0.4831 H   0  0  0  0  0  0  0  0  0  0  0  0
    1.2976   -5.4199    0.0304 H   0  0  0  0  0  0  0  0  0  0  0  0
    2.1828   -3.5516    1.3813 H   0  0  0  0  0  0  0  0  0  0  0  0
    0.7614   -2.5347    0.9557 H   0  0  0  0  0  0  0  0  0  0  0  0
    2.8141   -3.8197   -0.9261 H   0  0  0  0  0  0  0  0  0  0  0  0
    1.3716   -2.8213   -1.4707 H   0  0  0  0  0  0  0  0  0  0  0  0
    4.8553   -2.7658   -0.3739 H   0  0  0  0  0  0  0  0  0  0  0  0
    7.5664    0.8382   -2.0095 H   0  0  0  0  0  0  0  0  0  0  0  0
    8.8489    2.9026   -1.6979 H   0  0  0  0  0  0  0  0  0  0  0  0
    7.1195    0.5132    2.2655 H   0  0  0  0  0  0  0  0  0  0  0  0
    5.0383    1.4699   -0.0914 H   0  0  0  0  0  0  0  0  0  0  0  0
    2.5838    1.5804   -0.3598 H   0  0  0  0  0  0  0  0  0  0  0  0
    0.5161    1.3350    0.3522 H   0  0  0  0  0  0  0  0  0  0  0  0
    0.8213    1.5188   -1.4104 H   0  0  0  0  0  0  0  0  0  0  0  0
   -1.3339    0.1692   -1.7616 H   0  0  0  0  0  0  0  0  0  0  0  0
   -1.6019    1.7775   -0.9587 H   0  0  0  0  0  0  0  0  0  0  0  0
   -1.3154    0.3333    1.2848 H   0  0  0  0  0  0  0  0  0  0  0  0
   -1.3137   -1.0469    0.1952 H   0  0  0  0  0  0  0  0  0  0  0  0
   -2.9965    2.6362    0.6229 H   0  0  0  0  0  0  0  0  0  0  0  0
   -4.8767    4.1062    0.6968 H   0  0  0  0  0  0  0  0  0  0  0  0
   -7.1460    3.1857    0.4462 H   0  0  0  0  0  0  0  0  0  0  0  0
  -10.1643   -1.6783   -0.3650 H   0  0  0  0  0  0  0  0  0  0  0  0
   -7.4711   -2.3138    0.5895 H   0  0  0  0  0  0  0  0  0  0  0  0
   -5.5261   -0.7139    0.0167 H   0  0  0  0  0  0  0  0  0  0  0  0
  1  2  1  0
  2  3  1  0
  3  4  1  0
  4  5  2  0
  5  6  1  0
  6  7  1  0
  7  8  1  0
  8  9  2  0
  9 10  1  0
 10 11  2  0
 11 12  1  0
 11 13  1  0
 13 14  1  0
 13 15  2  0
  6 16  2  0
 16 17  1  0
 17 18  2  0
 18 19  1  0
 19 20  1  0
 20 21  1  0
 21 22  1  0
 22 23  1  0
 23 24  1  0
 24 25  2  0
 25 26  1  0
 26 27  2  0
 27 28  1  0
 28 29  1  0
 29 30  1  0
 30 31  1  0
 31 32  2  0
 31 33  1  0
 33 34  1  0
 34 35  1  0
 28 36  2  0
 18  4  1  0
 36 24  1  0
 15  8  1  0
 34 29  2  0
  1 37  1  0
  1 38  1  0
  1 39  1  0
  2 40  1  0
  2 41  1  0
  3 42  1  0
  3 43  1  0
  5 44  1  0
  9 45  1  0
 10 46  1  0
 15 47  1  0
 16 48  1  0
 17 49  1  0
 20 50  1  0
 20 51  1  0
 21 52  1  0
 21 53  1  0
 22 54  1  0
 22 55  1  0
 25 56  1  0
 26 57  1  0
 27 58  1  0
 33 59  1  0
 35 60  1  0
 36 61  1  0
M  END
$$$$
