@<TRIPOS>MOLECULE
*****
 61 64 0 0 0
SMALL
GASTEIGER

@<TRIPOS>ATOM
      1 C           0.6400   -4.5652    0.3499 C.3     1  UNL1       -0.0650
      2 C           1.4334   -3.3142    0.5973 C.3     1  UNL1       -0.0518
      3 C           2.1619   -2.9624   -0.6847 C.3     1  UNL1       -0.0244
      4 C           2.9797   -1.7220   -0.5191 C.ar    1  UNL1       -0.0022
      5 C           4.3664   -1.8019   -0.3688 C.ar    1  UNL1       -0.0127
      6 C           5.1145   -0.6584   -0.2146 C.ar    1  UNL1        0.1289
      7 O           6.5050   -0.6707   -0.0601 O.3     1  UNL1       -0.4560
      8 C           7.2295    0.4938    0.1031 C.ar    1  UNL1        0.1299
      9 C           7.7269    1.1856   -0.9807 C.ar    1  UNL1       -0.0179
     10 C           8.4535    2.3508   -0.8536 C.ar    1  UNL1       -0.0385
     11 C           8.6973    2.8515    0.4030 C.ar    1  UNL1        0.0595
     12 CL          9.6193    4.3385    0.6391 Cl      1  UNL1       -0.0820
     13 C           8.1976    2.1567    1.4953 C.ar    1  UNL1        0.0627
     14 CL          8.5114    2.7991    3.1043 Cl      1  UNL1       -0.0819
     15 C           7.4787    1.0031    1.3600 C.ar    1  UNL1        0.0004
     16 C           4.4480    0.5506   -0.2145 C.ar    1  UNL1       -0.0159
     17 C           3.0787    0.6285   -0.3630 C.ar    1  UNL1       -0.0162
     18 C           2.3069   -0.5199   -0.5204 C.ar    1  UNL1        0.1239
     19 O           0.9206   -0.4386   -0.6710 O.3     1  UNL1       -0.4916
     20 C           0.3534    0.8559   -0.6563 C.3     1  UNL1        0.0927
     21 C          -1.1590    0.8031   -0.8316 C.3     1  UNL1        0.0157
     22 C          -1.7248    0.0084    0.2970 C.3     1  UNL1        0.0927
     23 O          -3.0818   -0.0829    0.2339 O.3     1  UNL1       -0.4918
     24 C          -4.1015    0.8117    0.2996 C.ar    1  UNL1        0.1211
     25 C          -3.9529    2.1614    0.4886 C.ar    1  UNL1       -0.0199
     26 C          -5.0366    3.0471    0.5460 C.ar    1  UNL1       -0.0577
     27 C          -6.2982    2.5070    0.4033 C.ar    1  UNL1       -0.0531
     28 C          -6.4927    1.1482    0.2114 C.ar    1  UNL1       -0.0026
     29 C          -7.8772    0.6820    0.0719 C.ar    1  UNL1        0.0838
     30 S          -9.2969    1.6920    0.1220 S.2     1  UNL1       -0.0230
     31 C         -10.5014    0.3435   -0.1216 C.ar    1  UNL1        0.2913
     32 O         -11.7620    0.4915   -0.1745 O.2     1  UNL1       -0.2596
     33 N          -9.6924   -0.7066   -0.2116 N.ar    1  UNL1       -0.2870
     34 C          -8.4037   -0.5602   -0.1192 C.ar    1  UNL1        0.2081
     35 O          -7.5074   -1.6804   -0.2132 O.3     1  UNL1       -0.4928
     36 C          -5.4146    0.3381    0.1634 C.ar    1  UNL1       -0.0116
     37 H           0.1151   -4.8818    1.2829 H       1  UNL1        0.0230
     38 H          -0.0664   -4.3831   -0.4831 H       1  UNL1        0.0230
     39 H           1.2976   -5.4199    0.0304 H       1  UNL1        0.0230
     40 H           2.1828   -3.5516    1.3813 H       1  UNL1        0.0266
     41 H           0.7614   -2.5347    0.9557 H       1  UNL1        0.0266
     42 H           2.8141   -3.8197   -0.9261 H       1  UNL1        0.0314
     43 H           1.3716   -2.8213   -1.4707 H       1  UNL1        0.0314
     44 H           4.8553   -2.7658   -0.3739 H       1  UNL1        0.0658
     45 H           7.5664    0.8382   -2.0095 H       1  UNL1        0.0655
     46 H           8.8489    2.9026   -1.6979 H       1  UNL1        0.0634
     47 H           7.1195    0.5132    2.2655 H       1  UNL1        0.0669
     48 H           5.0383    1.4699   -0.0914 H       1  UNL1        0.0655
     49 H           2.5838    1.5804   -0.3598 H       1  UNL1        0.0655
     50 H           0.5161    1.3350    0.3522 H       1  UNL1        0.0697
     51 H           0.8213    1.5188   -1.4104 H       1  UNL1        0.0697
     52 H          -1.3339    0.1692   -1.7616 H       1  UNL1        0.0331
     53 H          -1.6019    1.7775   -0.9587 H       1  UNL1        0.0331
     54 H          -1.3154    0.3333    1.2848 H       1  UNL1        0.0697
     55 H          -1.3137   -1.0469    0.1952 H       1  UNL1        0.0697
     56 H          -2.9965    2.6362    0.6229 H       1  UNL1        0.0654
     57 H          -4.8767    4.1062    0.6968 H       1  UNL1        0.0619
     58 H          -7.1460    3.1857    0.4462 H       1  UNL1        0.0624
     59 H         -10.1643   -1.6783   -0.3650 H       1  UNL1        0.1723
     60 H          -7.4711   -2.3138    0.5895 H       1  UNL1        0.2937
     61 H          -5.5261   -0.7139    0.0167 H       1  UNL1        0.0660
@<TRIPOS>BOND
     1     1     2    1
     2     2     3    1
     3     3     4    1
     4     4     5   ar
     5     5     6   ar
     6     6     7    1
     7     7     8    1
     8     8     9   ar
     9     9    10   ar
    10    10    11   ar
    11    11    12    1
    12    11    13   ar
    13    13    14    1
    14    13    15   ar
    15     6    16   ar
    16    16    17   ar
    17    17    18   ar
    18    18    19    1
    19    19    20    1
    20    20    21    1
    21    21    22    1
    22    22    23    1
    23    23    24    1
    24    24    25   ar
    25    25    26   ar
    26    26    27   ar
    27    27    28   ar
    28    28    29    1
    29    29    30   ar
    30    30    31   ar
    31    31    32    2
    32    31    33   ar
    33    33    34   ar
    34    34    35    1
    35    28    36   ar
    36    18     4   ar
    37    36    24   ar
    38    15     8   ar
    39    34    29   ar
    40     1    37    1
    41     1    38    1
    42     1    39    1
    43     2    40    1
    44     2    41    1
    45     3    42    1
    46     3    43    1
    47     5    44    1
    48     9    45    1
    49    10    46    1
    50    15    47    1
    51    16    48    1
    52    17    49    1
    53    20    50    1
    54    20    51    1
    55    21    52    1
    56    21    53    1
    57    22    54    1
    58    22    55    1
    59    25    56    1
    60    26    57    1
    61    27    58    1
    62    33    59    1
    63    35    60    1
    64    36    61    1
