@<TRIPOS>MOLECULE
*****
 48 52 0 0 0
SMALL
GASTEIGER

@<TRIPOS>ATOM
      1 C          -8.0348    1.4001   -0.3734 C.3     1  UNL1       -0.0218
      2 C          -7.2250    0.1210   -0.2748 C.ar    1  UNL1        0.0462
      3 C          -7.9346   -1.1610   -0.1644 C.ar    1  UNL1       -0.0012
      4 S          -6.4494   -2.2449   -0.0646 S.2     1  UNL1       -0.0723
      5 C          -5.1829   -0.8500   -0.1858 C.ar    1  UNL1        0.1456
      6 C          -3.7724   -1.1905   -0.1203 C.ar    1  UNL1        0.1895
      7 N          -3.1874   -2.3966   -0.2852 N.ar    1  UNL1       -0.1269
      8 N          -1.8728   -2.3068   -0.0815 N.ar    1  UNL1       -0.1320
      9 C          -1.5978   -1.0436    0.2162 C.ar    1  UNL1        0.1542
     10 N          -2.7717   -0.3705    0.1838 N.ar    1  UNL1       -0.3062
     11 C          -2.6987    1.0845    0.4173 C.3     1  UNL1        0.0423
     12 C          -1.5706    1.6339   -0.4651 C.3     1  UNL1        0.0338
     13 N          -0.3029    0.9200   -0.1675 N.am    1  UNL1       -0.2860
     14 C           0.8623    1.4742   -0.7120 C.2     1  UNL1        0.2472
     15 O           0.7410    2.5184   -1.4472 O.2     1  UNL1       -0.2700
     16 C           2.2285    1.0207   -0.5506 C.ar    1  UNL1        0.0370
     17 C           2.7190   -0.0857   -1.1758 C.ar    1  UNL1       -0.0490
     18 C           4.0142   -0.5292   -0.9999 C.ar    1  UNL1       -0.0528
     19 C           4.8569    0.1490   -0.1747 C.ar    1  UNL1       -0.0113
     20 C           6.2015   -0.3403    0.0581 C.ar    1  UNL1        0.0193
     21 C           6.8696   -1.4509   -0.3039 C.ar    1  UNL1       -0.0469
     22 C           8.1285   -1.6510    0.0950 C.ar    1  UNL1       -0.0541
     23 C           8.7344   -0.6911    0.8893 C.ar    1  UNL1       -0.0237
     24 S           7.3836    0.5311    1.0362 S.2     1  UNL1       -0.0967
     25 C           4.3916    1.2699    0.4662 C.ar    1  UNL1       -0.0528
     26 C           3.1052    1.7147    0.2972 C.ar    1  UNL1       -0.0490
     27 C          -0.4108   -0.2146    0.6369 C.3     1  UNL1        0.0834
     28 C           0.7518   -1.0865    0.8980 C.3     1  UNL1       -0.0393
     29 N          -5.9736    0.0643   -0.2684 N.ar    1  UNL1       -0.2411
     30 H          -8.9785    1.2880    0.1981 H       1  UNL1        0.0293
     31 H          -7.4878    2.2486    0.0348 H       1  UNL1        0.0293
     32 H          -8.3343    1.4978   -1.4328 H       1  UNL1        0.0293
     33 H          -8.9061   -1.3869   -0.1444 H       1  UNL1        0.0712
     34 H          -2.5262    1.3328    1.4711 H       1  UNL1        0.0508
     35 H          -3.6398    1.5453    0.0942 H       1  UNL1        0.0508
     36 H          -1.8854    1.5249   -1.5030 H       1  UNL1        0.0482
     37 H          -1.4386    2.7082   -0.2450 H       1  UNL1        0.0482
     38 H           2.0895   -0.6546   -1.8388 H       1  UNL1        0.0625
     39 H           4.3554   -1.4298   -1.5361 H       1  UNL1        0.0624
     40 H           6.3258   -2.2050   -0.9507 H       1  UNL1        0.0629
     41 H           8.6942   -2.5971   -0.2040 H       1  UNL1        0.0623
     42 H           9.7218   -0.6028    1.3436 H       1  UNL1        0.0693
     43 H           5.0664    1.8262    1.1343 H       1  UNL1        0.0624
     44 H           2.7137    2.6040    0.7986 H       1  UNL1        0.0625
     45 H          -0.7384    0.1737    1.6753 H       1  UNL1        0.0579
     46 H           1.6096   -0.5723    1.3371 H       1  UNL1        0.0252
     47 H           0.9497   -1.8146    0.0983 H       1  UNL1        0.0252
     48 H           0.4063   -1.7747    1.7616 H       1  UNL1        0.0252
@<TRIPOS>BOND
     1     1     2    1
     2     2     3   ar
     3     3     4   ar
     4     4     5   ar
     5     5     6    1
     6     6     7   ar
     7     7     8   ar
     8     8     9   ar
     9     9    10   ar
    10    10    11    1
    11    11    12    1
    12    12    13    1
    13    13    14   am
    14    14    15    2
    15    14    16    1
    16    16    17   ar
    17    17    18   ar
    18    18    19   ar
    19    19    20    1
    20    20    21   ar
    21    21    22   ar
    22    22    23   ar
    23    23    24   ar
    24    19    25   ar
    25    25    26   ar
    26    13    27    1
    27    27    28    1
    28     5    29   ar
    29    29     2   ar
    30    10     6   ar
    31    26    16   ar
    32    27     9    1
    33    24    20   ar
    34     1    30    1
    35     1    31    1
    36     1    32    1
    37     3    33    1
    38    11    34    1
    39    11    35    1
    40    12    36    1
    41    12    37    1
    42    17    38    1
    43    18    39    1
    44    21    40    1
    45    22    41    1
    46    23    42    1
    47    25    43    1
    48    26    44    1
    49    27    45    1
    50    28    46    1
    51    28    47    1
    52    28    48    1
