
     RDKit          3D

 48 52  0  0  0  0  0  0  0  0999 V2000
   -8.0348    1.4001   -0.3734 C   0  0  0  0  0  0  0  0  0  0  0  0
   -7.2250    0.1210   -0.2748 C   0  0  0  0  0  0  0  0  0  0  0  0
   -7.9346   -1.1610   -0.1644 C   0  0  0  0  0  0  0  0  0  0  0  0
   -6.4494   -2.2449   -0.0646 S   0  0  0  0  0  0  0  0  0  0  0  0
   -5.1829   -0.8500   -0.1858 C   0  0  0  0  0  0  0  0  0  0  0  0
   -3.7724   -1.1905   -0.1203 C   0  0  0  0  0  0  0  0  0  0  0  0
   -3.1874   -2.3966   -0.2852 N   0  0  0  0  0  0  0  0  0  0  0  0
   -1.8728   -2.3068   -0.0815 N   0  0  0  0  0  0  0  0  0  0  0  0
   -1.5978   -1.0436    0.2162 C   0  0  0  0  0  0  0  0  0  0  0  0
   -2.7717   -0.3705    0.1838 N   0  0  0  0  0  0  0  0  0  0  0  0
   -2.6987    1.0845    0.4173 C   0  0  0  0  0  0  0  0  0  0  0  0
   -1.5706    1.6339   -0.4651 C   0  0  0  0  0  0  0  0  0  0  0  0
   -0.3029    0.9200   -0.1675 N   0  0  0  0  0  0  0  0  0  0  0  0
    0.8623    1.4742   -0.7120 C   0  0  0  0  0  0  0  0  0  0  0  0
    0.7410    2.5184   -1.4472 O   0  0  0  0  0  0  0  0  0  0  0  0
    2.2285    1.0207   -0.5506 C   0  0  0  0  0  0  0  0  0  0  0  0
    2.7190   -0.0857   -1.1758 C   0  0  0  0  0  0  0  0  0  0  0  0
    4.0142   -0.5292   -0.9999 C   0  0  0  0  0  0  0  0  0  0  0  0
    4.8569    0.1490   -0.1747 C   0  0  0  0  0  0  0  0  0  0  0  0
    6.2015   -0.3403    0.0581 C   0  0  0  0  0  0  0  0  0  0  0  0
    6.8696   -1.4509   -0.3039 C   0  0  0  0  0  0  0  0  0  0  0  0
    8.1285   -1.6510    0.0950 C   0  0  0  0  0  0  0  0  0  0  0  0
    8.7344   -0.6911    0.8893 C   0  0  0  0  0  0  0  0  0  0  0  0
    7.3836    0.5311    1.0362 S   0  0  0  0  0  0  0  0  0  0  0  0
    4.3916    1.2699    0.4662 C   0  0  0  0  0  0  0  0  0  0  0  0
    3.1052    1.7147    0.2972 C   0  0  0  0  0  0  0  0  0  0  0  0
   -0.4108   -0.2146    0.6369 C   0  0  2  0  0  0  0  0  0  0  0  0
    0.7518   -1.0865    0.8980 C   0  0  0  0  0  0  0  0  0  0  0  0
   -5.9736    0.0643   -0.2684 N   0  0  0  0  0  0  0  0  0  0  0  0
   -8.9785    1.2880    0.1981 H   0  0  0  0  0  0  0  0  0  0  0  0
   -7.4878    2.2486    0.0348 H   0  0  0  0  0  0  0  0  0  0  0  0
   -8.3343    1.4978   -1.4328 H   0  0  0  0  0  0  0  0  0  0  0  0
   -8.9061   -1.3869   -0.1444 H   0  0  0  0  0  0  0  0  0  0  0  0
   -2.5262    1.3328    1.4711 H   0  0  0  0  0  0  0  0  0  0  0  0
   -3.6398    1.5453    0.0942 H   0  0  0  0  0  0  0  0  0  0  0  0
   -1.8854    1.5249   -1.5030 H   0  0  0  0  0  0  0  0  0  0  0  0
   -1.4386    2.7082   -0.2450 H   0  0  0  0  0  0  0  0  0  0  0  0
    2.0895   -0.6546   -1.8388 H   0  0  0  0  0  0  0  0  0  0  0  0
    4.3554   -1.4298   -1.5361 H   0  0  0  0  0  0  0  0  0  0  0  0
    6.3258   -2.2050   -0.9507 H   0  0  0  0  0  0  0  0  0  0  0  0
    8.6942   -2.5971   -0.2040 H   0  0  0  0  0  0  0  0  0  0  0  0
    9.7218   -0.6028    1.3436 H   0  0  0  0  0  0  0  0  0  0  0  0
    5.0664    1.8262    1.1343 H   0  0  0  0  0  0  0  0  0  0  0  0
    2.7137    2.6040    0.7986 H   0  0  0  0  0  0  0  0  0  0  0  0
   -0.7384    0.1737    1.6753 H   0  0  0  0  0  0  0  0  0  0  0  0
    1.6096   -0.5723    1.3371 H   0  0  0  0  0  0  0  0  0  0  0  0
    0.9497   -1.8146    0.0983 H   0  0  0  0  0  0  0  0  0  0  0  0
    0.4063   -1.7747    1.7616 H   0  0  0  0  0  0  0  0  0  0  0  0
  1  2  1  0
  2  3  2  0
  3  4  1  0
  4  5  1  0
  5  6  1  0
  6  7  2  0
  7  8  1  0
  8  9  2  0
  9 10  1  0
 10 11  1  0
 11 12  1  0
 12 13  1  0
 13 14  1  0
 14 15  2  0
 14 16  1  0
 16 17  2  0
 17 18  1  0
 18 19  2  0
 19 20  1  0
 20 21  2  0
 21 22  1  0
 22 23  2  0
 23 24  1  0
 19 25  1  0
 25 26  2  0
 13 27  1  0
 27 28  1  0
  5 29  2  0
 29  2  1  0
 10  6  1  0
 26 16  1  0
 27  9  1  0
 24 20  1  0
  1 30  1  0
  1 31  1  0
  1 32  1  0
  3 33  1  0
 11 34  1  0
 11 35  1  0
 12 36  1  0
 12 37  1  0
 17 38  1  0
 18 39  1  0
 21 40  1  0
 22 41  1  0
 23 42  1  0
 25 43  1  0
 26 44  1  0
 27 45  1  1
 28 46  1  0
 28 47  1  0
 28 48  1  0
M  END
$$$$
