@<TRIPOS>MOLECULE
*****
 74 79 0 0 0
SMALL
GASTEIGER

@<TRIPOS>ATOM
      1 C          -3.2324    7.6306   -1.8804 C.3     1  UNL1       -0.0151
      2 N          -2.7538    6.2834   -1.8238 N.3     1  UNL1       -0.3089
      3 C          -2.6052    5.7595   -0.4783 C.3     1  UNL1        0.0820
      4 C          -3.9193    5.7204    0.2442 C.3     1  UNL1       -0.0411
      5 C          -2.1606    4.3146   -0.6725 C.2     1  UNL1        0.2350
      6 O          -1.7476    3.8552   -1.7530 O.2     1  UNL1       -0.2737
      7 N          -2.2246    3.4501    0.4525 N.am    1  UNL1       -0.2691
      8 C          -1.9151    2.0856    0.4672 C.ar    1  UNL1        0.1263
      9 C          -2.9783    1.1878    0.2551 C.ar    1  UNL1       -0.0208
     10 C          -2.7708   -0.1468    0.0960 C.ar    1  UNL1       -0.0466
     11 C          -1.4512   -0.6359    0.1499 C.ar    1  UNL1        0.0349
     12 C          -1.3517   -2.0318   -0.2250 C.ar    1  UNL1        0.0837
     13 C          -1.5594   -3.1967    0.4565 C.ar    1  UNL1        0.1006
     14 C          -2.1439   -3.3994    1.8248 C.ar    1  UNL1        0.0387
     15 C          -2.0957   -2.4437    2.8250 C.ar    1  UNL1        0.0403
     16 N          -2.8537   -2.7392    3.8555 N.ar    1  UNL1       -0.2399
     17 C          -3.6473   -3.7238    4.1419 C.ar    1  UNL1        0.1259
     18 C          -4.4991   -4.0991    5.2759 C.3     1  UNL1       -0.0046
     19 N          -3.6549   -4.6620    3.0879 N.ar    1  UNL1       -0.2399
     20 C          -2.9582   -4.5338    2.0019 C.ar    1  UNL1        0.0403
     21 N          -1.5668   -4.2136   -0.4673 N.ar    1  UNL1       -0.2271
     22 C          -1.3847   -3.7182   -1.6751 C.ar    1  UNL1        0.1390
     23 C          -1.5767   -4.2873   -2.9677 C.ar    1  UNL1       -0.0158
     24 C          -1.6020   -3.5073   -4.1032 C.ar    1  UNL1       -0.0456
     25 C          -2.0495   -4.1108   -5.4118 C.3     1  UNL1       -0.0395
     26 C          -1.4186   -2.1880   -3.9649 C.ar    1  UNL1       -0.0421
     27 C          -1.2414   -1.6232   -2.6668 C.ar    1  UNL1        0.0120
     28 N          -1.2425   -2.4314   -1.5565 N.ar    1  UNL1       -0.2986
     29 C          -0.4487    0.1924    0.3571 C.ar    1  UNL1        0.1250
     30 C           0.8954   -0.0905    0.4869 C.1     1  UNL1       -0.0404
     31 C           2.1661   -0.3512    0.6316 C.1     1  UNL1       -0.0595
     32 C           3.4930   -0.6022    0.7938 C.ar    1  UNL1        0.0260
     33 C           4.0601    0.1487    1.8769 C.ar    1  UNL1       -0.0443
     34 C           5.4045    0.4063    2.0225 C.ar    1  UNL1       -0.0364
     35 C           6.2433   -0.1225    0.9836 C.ar    1  UNL1        0.0518
     36 C           5.7278   -0.8128   -0.0226 C.ar    1  UNL1       -0.0001
     37 C           6.4679   -1.1535   -1.0603 C.ar    1  UNL1       -0.0475
     38 C           7.8616   -0.7520   -1.0367 C.ar    1  UNL1        0.0036
     39 C           8.3801   -0.0760   -0.0265 C.ar    1  UNL1        0.2515
     40 O           9.5326    0.3368    0.1262 O.2     1  UNL1       -0.2677
     41 N           7.5252    0.2714    1.0583 N.ar    1  UNL1       -0.3112
     42 C           8.0973    1.0217    2.1667 C.3     1  UNL1        0.0153
     43 C           4.3562   -1.0998   -0.1633 C.ar    1  UNL1       -0.0372
     44 N          -0.7667    1.5386    0.5065 N.ar    1  UNL1       -0.2229
     45 H          -4.3512    7.6627   -1.7257 H       1  UNL1        0.0388
     46 H          -3.0689    8.0094   -2.9340 H       1  UNL1        0.0388
     47 H          -2.8115    8.2521   -1.1088 H       1  UNL1        0.0388
     48 H          -2.0581    5.9764   -2.4456 H       1  UNL1        0.1223
     49 H          -1.8748    6.3420    0.0866 H       1  UNL1        0.0554
     50 H          -3.7547    5.7563    1.3514 H       1  UNL1        0.0249
     51 H          -4.6195    6.4701   -0.1087 H       1  UNL1        0.0249
     52 H          -4.4306    4.7021    0.0643 H       1  UNL1        0.0249
     53 H          -2.5973    3.9481    1.3617 H       1  UNL1        0.1563
     54 H          -3.9934    1.6392    0.2494 H       1  UNL1        0.0652
     55 H          -3.5662   -0.8310   -0.0685 H       1  UNL1        0.0626
     56 H          -1.4891   -1.5803    2.7124 H       1  UNL1        0.0837
     57 H          -3.8996   -4.8229    5.8915 H       1  UNL1        0.0308
     58 H          -4.8945   -3.2443    5.8079 H       1  UNL1        0.0308
     59 H          -5.3499   -4.7441    4.8918 H       1  UNL1        0.0308
     60 H          -2.9923   -5.2512    1.2016 H       1  UNL1        0.0837
     61 H          -1.7103   -5.3583   -3.0182 H       1  UNL1        0.0657
     62 H          -1.3026   -4.5793   -6.0109 H       1  UNL1        0.0278
     63 H          -2.9151   -4.8218   -5.1997 H       1  UNL1        0.0278
     64 H          -2.6102   -3.2608   -5.9310 H       1  UNL1        0.0278
     65 H          -1.4360   -1.4878   -4.7810 H       1  UNL1        0.0635
     66 H          -1.0435   -0.6037   -2.6177 H       1  UNL1        0.0813
     67 H           3.3565    0.4784    2.6508 H       1  UNL1        0.0630
     68 H           5.8345    0.9263    2.8432 H       1  UNL1        0.0639
     69 H           6.1453   -1.7872   -1.8986 H       1  UNL1        0.0626
     70 H           8.4091   -1.0621   -1.9677 H       1  UNL1        0.0672
     71 H           7.4301    1.8656    2.3970 H       1  UNL1        0.0457
     72 H           9.1380    1.3203    1.9996 H       1  UNL1        0.0457
     73 H           8.1337    0.3274    3.0463 H       1  UNL1        0.0457
     74 H           3.9313   -1.6919   -0.9281 H       1  UNL1        0.0636
@<TRIPOS>BOND
     1     1     2    1
     2     2     3    1
     3     3     4    1
     4     3     5    1
     5     5     6    2
     6     5     7   am
     7     7     8    1
     8     8     9   ar
     9     9    10   ar
    10    10    11   ar
    11    11    12    1
    12    12    13   ar
    13    13    14    1
    14    14    15   ar
    15    15    16   ar
    16    16    17   ar
    17    17    18    1
    18    17    19   ar
    19    19    20   ar
    20    13    21   ar
    21    21    22   ar
    22    22    23   ar
    23    23    24   ar
    24    24    25    1
    25    24    26   ar
    26    26    27   ar
    27    27    28   ar
    28    11    29   ar
    29    29    30    1
    30    30    31    3
    31    31    32    1
    32    32    33   ar
    33    33    34   ar
    34    34    35   ar
    35    35    36   ar
    36    36    37   ar
    37    37    38   ar
    38    38    39   ar
    39    39    40    2
    40    39    41   ar
    41    41    42    1
    42    36    43   ar
    43    29    44   ar
    44    44     8   ar
    45    28    12   ar
    46    43    32   ar
    47    20    14   ar
    48    28    22   ar
    49    41    35   ar
    50     1    45    1
    51     1    46    1
    52     1    47    1
    53     2    48    1
    54     3    49    1
    55     4    50    1
    56     4    51    1
    57     4    52    1
    58     7    53    1
    59     9    54    1
    60    10    55    1
    61    15    56    1
    62    18    57    1
    63    18    58    1
    64    18    59    1
    65    20    60    1
    66    23    61    1
    67    25    62    1
    68    25    63    1
    69    25    64    1
    70    26    65    1
    71    27    66    1
    72    33    67    1
    73    34    68    1
    74    37    69    1
    75    38    70    1
    76    42    71    1
    77    42    72    1
    78    42    73    1
    79    43    74    1
