
     RDKit          3D

 74 79  0  0  0  0  0  0  0  0999 V2000
   -3.2324    7.6306   -1.8804 C   0  0  0  0  0  0  0  0  0  0  0  0
   -2.7538    6.2834   -1.8238 N   0  0  0  0  0  0  0  0  0  0  0  0
   -2.6052    5.7595   -0.4783 C   0  0  1  0  0  0  0  0  0  0  0  0
   -3.9193    5.7204    0.2442 C   0  0  0  0  0  0  0  0  0  0  0  0
   -2.1606    4.3146   -0.6725 C   0  0  0  0  0  0  0  0  0  0  0  0
   -1.7476    3.8552   -1.7530 O   0  0  0  0  0  0  0  0  0  0  0  0
   -2.2246    3.4501    0.4525 N   0  0  0  0  0  0  0  0  0  0  0  0
   -1.9151    2.0856    0.4672 C   0  0  0  0  0  0  0  0  0  0  0  0
   -2.9783    1.1878    0.2551 C   0  0  0  0  0  0  0  0  0  0  0  0
   -2.7708   -0.1468    0.0960 C   0  0  0  0  0  0  0  0  0  0  0  0
   -1.4512   -0.6359    0.1499 C   0  0  0  0  0  0  0  0  0  0  0  0
   -1.3517   -2.0318   -0.2250 C   0  0  0  0  0  0  0  0  0  0  0  0
   -1.5594   -3.1967    0.4565 C   0  0  0  0  0  0  0  0  0  0  0  0
   -2.1439   -3.3994    1.8248 C   0  0  0  0  0  0  0  0  0  0  0  0
   -2.0957   -2.4437    2.8250 C   0  0  0  0  0  0  0  0  0  0  0  0
   -2.8537   -2.7392    3.8555 N   0  0  0  0  0  0  0  0  0  0  0  0
   -3.6473   -3.7238    4.1419 C   0  0  0  0  0  0  0  0  0  0  0  0
   -4.4991   -4.0991    5.2759 C   0  0  0  0  0  0  0  0  0  0  0  0
   -3.6549   -4.6620    3.0879 N   0  0  0  0  0  0  0  0  0  0  0  0
   -2.9582   -4.5338    2.0019 C   0  0  0  0  0  0  0  0  0  0  0  0
   -1.5668   -4.2136   -0.4673 N   0  0  0  0  0  0  0  0  0  0  0  0
   -1.3847   -3.7182   -1.6751 C   0  0  0  0  0  0  0  0  0  0  0  0
   -1.5767   -4.2873   -2.9677 C   0  0  0  0  0  0  0  0  0  0  0  0
   -1.6020   -3.5073   -4.1032 C   0  0  0  0  0  0  0  0  0  0  0  0
   -2.0495   -4.1108   -5.4118 C   0  0  0  0  0  0  0  0  0  0  0  0
   -1.4186   -2.1880   -3.9649 C   0  0  0  0  0  0  0  0  0  0  0  0
   -1.2414   -1.6232   -2.6668 C   0  0  0  0  0  0  0  0  0  0  0  0
   -1.2425   -2.4314   -1.5565 N   0  0  0  0  0  0  0  0  0  0  0  0
   -0.4487    0.1924    0.3571 C   0  0  0  0  0  0  0  0  0  0  0  0
    0.8954   -0.0905    0.4869 C   0  0  0  0  0  0  0  0  0  0  0  0
    2.1661   -0.3512    0.6316 C   0  0  0  0  0  0  0  0  0  0  0  0
    3.4930   -0.6022    0.7938 C   0  0  0  0  0  0  0  0  0  0  0  0
    4.0601    0.1487    1.8769 C   0  0  0  0  0  0  0  0  0  0  0  0
    5.4045    0.4063    2.0225 C   0  0  0  0  0  0  0  0  0  0  0  0
    6.2433   -0.1225    0.9836 C   0  0  0  0  0  0  0  0  0  0  0  0
    5.7278   -0.8128   -0.0226 C   0  0  0  0  0  0  0  0  0  0  0  0
    6.4679   -1.1535   -1.0603 C   0  0  0  0  0  0  0  0  0  0  0  0
    7.8616   -0.7520   -1.0367 C   0  0  0  0  0  0  0  0  0  0  0  0
    8.3801   -0.0760   -0.0265 C   0  0  0  0  0  0  0  0  0  0  0  0
    9.5326    0.3368    0.1262 O   0  0  0  0  0  0  0  0  0  0  0  0
    7.5252    0.2714    1.0583 N   0  0  0  0  0  0  0  0  0  0  0  0
    8.0973    1.0217    2.1667 C   0  0  0  0  0  0  0  0  0  0  0  0
    4.3562   -1.0998   -0.1633 C   0  0  0  0  0  0  0  0  0  0  0  0
   -0.7667    1.5386    0.5065 N   0  0  0  0  0  0  0  0  0  0  0  0
   -4.3512    7.6627   -1.7257 H   0  0  0  0  0  0  0  0  0  0  0  0
   -3.0689    8.0094   -2.9340 H   0  0  0  0  0  0  0  0  0  0  0  0
   -2.8115    8.2521   -1.1088 H   0  0  0  0  0  0  0  0  0  0  0  0
   -2.0581    5.9764   -2.4456 H   0  0  0  0  0  0  0  0  0  0  0  0
   -1.8748    6.3420    0.0866 H   0  0  0  0  0  0  0  0  0  0  0  0
   -3.7547    5.7563    1.3514 H   0  0  0  0  0  0  0  0  0  0  0  0
   -4.6195    6.4701   -0.1087 H   0  0  0  0  0  0  0  0  0  0  0  0
   -4.4306    4.7021    0.0643 H   0  0  0  0  0  0  0  0  0  0  0  0
   -2.5973    3.9481    1.3617 H   0  0  0  0  0  0  0  0  0  0  0  0
   -3.9934    1.6392    0.2494 H   0  0  0  0  0  0  0  0  0  0  0  0
   -3.5662   -0.8310   -0.0685 H   0  0  0  0  0  0  0  0  0  0  0  0
   -1.4891   -1.5803    2.7124 H   0  0  0  0  0  0  0  0  0  0  0  0
   -3.8996   -4.8229    5.8915 H   0  0  0  0  0  0  0  0  0  0  0  0
   -4.8945   -3.2443    5.8079 H   0  0  0  0  0  0  0  0  0  0  0  0
   -5.3499   -4.7441    4.8918 H   0  0  0  0  0  0  0  0  0  0  0  0
   -2.9923   -5.2512    1.2016 H   0  0  0  0  0  0  0  0  0  0  0  0
   -1.7103   -5.3583   -3.0182 H   0  0  0  0  0  0  0  0  0  0  0  0
   -1.3026   -4.5793   -6.0109 H   0  0  0  0  0  0  0  0  0  0  0  0
   -2.9151   -4.8218   -5.1997 H   0  0  0  0  0  0  0  0  0  0  0  0
   -2.6102   -3.2608   -5.9310 H   0  0  0  0  0  0  0  0  0  0  0  0
   -1.4360   -1.4878   -4.7810 H   0  0  0  0  0  0  0  0  0  0  0  0
   -1.0435   -0.6037   -2.6177 H   0  0  0  0  0  0  0  0  0  0  0  0
    3.3565    0.4784    2.6508 H   0  0  0  0  0  0  0  0  0  0  0  0
    5.8345    0.9263    2.8432 H   0  0  0  0  0  0  0  0  0  0  0  0
    6.1453   -1.7872   -1.8986 H   0  0  0  0  0  0  0  0  0  0  0  0
    8.4091   -1.0621   -1.9677 H   0  0  0  0  0  0  0  0  0  0  0  0
    7.4301    1.8656    2.3970 H   0  0  0  0  0  0  0  0  0  0  0  0
    9.1380    1.3203    1.9996 H   0  0  0  0  0  0  0  0  0  0  0  0
    8.1337    0.3274    3.0463 H   0  0  0  0  0  0  0  0  0  0  0  0
    3.9313   -1.6919   -0.9281 H   0  0  0  0  0  0  0  0  0  0  0  0
  1  2  1  0
  2  3  1  0
  3  4  1  0
  3  5  1  0
  5  6  2  0
  5  7  1  0
  7  8  1  0
  8  9  2  0
  9 10  1  0
 10 11  2  0
 11 12  1  0
 12 13  2  0
 13 14  1  0
 14 15  2  0
 15 16  1  0
 16 17  2  0
 17 18  1  0
 17 19  1  0
 19 20  2  0
 13 21  1  0
 21 22  2  0
 22 23  1  0
 23 24  2  0
 24 25  1  0
 24 26  1  0
 26 27  2  0
 27 28  1  0
 11 29  1  0
 29 30  1  0
 30 31  3  0
 31 32  1  0
 32 33  2  0
 33 34  1  0
 34 35  2  0
 35 36  1  0
 36 37  1  0
 37 38  2  0
 38 39  1  0
 39 40  2  0
 39 41  1  0
 41 42  1  0
 36 43  2  0
 29 44  2  0
 44  8  1  0
 28 12  1  0
 43 32  1  0
 20 14  1  0
 28 22  1  0
 41 35  1  0
  1 45  1  0
  1 46  1  0
  1 47  1  0
  2 48  1  0
  3 49  1  1
  4 50  1  0
  4 51  1  0
  4 52  1  0
  7 53  1  0
  9 54  1  0
 10 55  1  0
 15 56  1  0
 18 57  1  0
 18 58  1  0
 18 59  1  0
 20 60  1  0
 23 61  1  0
 25 62  1  0
 25 63  1  0
 25 64  1  0
 26 65  1  0
 27 66  1  0
 33 67  1  0
 34 68  1  0
 37 69  1  0
 38 70  1  0
 42 71  1  0
 42 72  1  0
 42 73  1  0
 43 74  1  0
M  END
$$$$
