@<TRIPOS>MOLECULE
*****
 70 74 0 0 0
SMALL
GASTEIGER

@<TRIPOS>ATOM
      1 C           0.5633   -0.0113    0.4911 C.3     1  UNL1       -0.0530
      2 C           0.5143    1.2787    1.2303 C.3     1  UNL1       -0.0530
      3 C          -0.8269    1.8611    1.4948 C.3     1  UNL1       -0.0516
      4 C          -1.6249    2.3435    0.3678 C.3     1  UNL1       -0.0375
      5 C          -2.0098    1.5160   -0.7720 C.3     1  UNL1        0.0091
      6 N          -2.7493    0.3278   -0.6703 N.pl3   1  UNL1       -0.3431
      7 C          -3.9307   -0.2763   -0.1910 C.ar    1  UNL1        0.0413
      8 C          -4.9836   -0.1007   -1.1048 C.ar    1  UNL1       -0.0047
      9 C          -5.1038    0.5367   -2.4414 C.3     1  UNL1       -0.0242
     10 C          -6.1838    1.6146   -2.2598 C.3     1  UNL1       -0.0486
     11 C          -7.5520    0.9856   -2.1990 C.3     1  UNL1       -0.0473
     12 C          -7.3985   -0.4478   -1.7332 C.3     1  UNL1       -0.0101
     13 C          -6.2474   -0.6095   -0.8062 C.ar    1  UNL1        0.0469
     14 N          -6.4546   -1.2749    0.3677 N.ar    1  UNL1       -0.2512
     15 C          -5.4705   -1.4626    1.2603 C.ar    1  UNL1        0.0731
     16 C          -5.6029   -2.1443    2.4506 C.ar    1  UNL1       -0.0357
     17 C          -4.5314   -2.3255    3.3209 C.ar    1  UNL1       -0.0597
     18 C          -3.2959   -1.8111    2.9895 C.ar    1  UNL1       -0.0610
     19 C          -3.1699   -1.1315    1.8013 C.ar    1  UNL1       -0.0508
     20 C          -4.2341   -0.9591    0.9568 C.ar    1  UNL1        0.0215
     21 C           1.9955   -0.5045    0.2471 C.3     1  UNL1       -0.0516
     22 C           2.6906   -0.7165    1.5574 C.3     1  UNL1       -0.0375
     23 C           4.1148   -1.2307    1.2933 C.3     1  UNL1        0.0091
     24 N           4.8201   -0.2495    0.5248 N.pl3   1  UNL1       -0.3433
     25 C           6.1647   -0.5708    0.1716 C.ar    1  UNL1        0.0378
     26 C           6.7663   -1.7608    0.5444 C.ar    1  UNL1       -0.0221
     27 C           8.0510   -2.1297    0.2384 C.ar    1  UNL1        0.0300
     28 N           8.8027   -1.2759   -0.4834 N.ar    1  UNL1       -0.2549
     29 C           8.2945   -0.1048   -0.8825 C.ar    1  UNL1        0.0727
     30 C           9.1126    0.7255   -1.6179 C.ar    1  UNL1       -0.0357
     31 C           8.6283    1.9421   -2.0493 C.ar    1  UNL1       -0.0597
     32 C           7.3165    2.3118   -1.7333 C.ar    1  UNL1       -0.0610
     33 C           6.5582    1.4458   -1.0028 C.ar    1  UNL1       -0.0508
     34 C           7.0095    0.2251   -0.5566 C.ar    1  UNL1        0.0212
     35 H          -0.0334   -0.1380   -0.3926 H       1  UNL1        0.0265
     36 H           0.1467   -0.7986    1.2134 H       1  UNL1        0.0265
     37 H           1.1360    2.0187    0.6193 H       1  UNL1        0.0265
     38 H           1.1001    1.1799    2.1981 H       1  UNL1        0.0265
     39 H          -0.6653    2.7703    2.2281 H       1  UNL1        0.0266
     40 H          -1.4354    1.1912    2.1754 H       1  UNL1        0.0266
     41 H          -1.0672    3.2503   -0.1233 H       1  UNL1        0.0280
     42 H          -2.5675    2.8926    0.7575 H       1  UNL1        0.0280
     43 H          -1.1269    1.3533   -1.4598 H       1  UNL1        0.0461
     44 H          -2.6105    2.2357   -1.5218 H       1  UNL1        0.0461
     45 H          -2.3546   -0.5679   -1.0924 H       1  UNL1        0.1461
     46 H          -5.4489   -0.1970   -3.2099 H       1  UNL1        0.0314
     47 H          -4.2008    1.0713   -2.7777 H       1  UNL1        0.0314
     48 H          -5.9820    2.0761   -1.2726 H       1  UNL1        0.0269
     49 H          -6.1000    2.3907   -3.0440 H       1  UNL1        0.0269
     50 H          -8.0682    1.0427   -3.1827 H       1  UNL1        0.0269
     51 H          -8.1403    1.5240   -1.4389 H       1  UNL1        0.0269
     52 H          -7.1959   -1.0640   -2.6320 H       1  UNL1        0.0328
     53 H          -8.3213   -0.8424   -1.2800 H       1  UNL1        0.0328
     54 H          -6.5800   -2.5382    2.6877 H       1  UNL1        0.0639
     55 H          -4.7703   -2.8853    4.2343 H       1  UNL1        0.0618
     56 H          -2.4921   -1.9722    3.6861 H       1  UNL1        0.0618
     57 H          -2.2067   -0.7746    1.5567 H       1  UNL1        0.0625
     58 H           1.8807   -1.4757   -0.2803 H       1  UNL1        0.0266
     59 H           2.4776    0.2563   -0.3816 H       1  UNL1        0.0266
     60 H           2.8528    0.2659    2.0882 H       1  UNL1        0.0280
     61 H           2.1233   -1.4231    2.1958 H       1  UNL1        0.0280
     62 H           4.1075   -2.2122    0.7894 H       1  UNL1        0.0461
     63 H           4.5695   -1.3244    2.3190 H       1  UNL1        0.0461
     64 H           4.3571    0.6301    0.2590 H       1  UNL1        0.1461
     65 H           6.2007   -2.4981    1.1356 H       1  UNL1        0.0651
     66 H           8.4847   -3.0581    0.5429 H       1  UNL1        0.0830
     67 H          10.1299    0.4973   -1.8926 H       1  UNL1        0.0639
     68 H           9.2439    2.6197   -2.6294 H       1  UNL1        0.0618
     69 H           6.9551    3.2713   -2.0815 H       1  UNL1        0.0618
     70 H           5.5692    1.7899   -0.7977 H       1  UNL1        0.0625
@<TRIPOS>BOND
     1     1     2    1
     2     2     3    1
     3     3     4    1
     4     4     5    1
     5     5     6    1
     6     6     7    1
     7     7     8   ar
     8     8     9    1
     9     9    10    1
    10    10    11    1
    11    11    12    1
    12    12    13    1
    13    13    14   ar
    14    14    15   ar
    15    15    16   ar
    16    16    17   ar
    17    17    18   ar
    18    18    19   ar
    19    19    20   ar
    20     1    21    1
    21    21    22    1
    22    22    23    1
    23    23    24    1
    24    24    25    1
    25    25    26   ar
    26    26    27   ar
    27    27    28   ar
    28    28    29   ar
    29    29    30   ar
    30    30    31   ar
    31    31    32   ar
    32    32    33   ar
    33    33    34   ar
    34    20     7   ar
    35    34    25   ar
    36    13     8   ar
    37    20    15   ar
    38    34    29   ar
    39     1    35    1
    40     1    36    1
    41     2    37    1
    42     2    38    1
    43     3    39    1
    44     3    40    1
    45     4    41    1
    46     4    42    1
    47     5    43    1
    48     5    44    1
    49     6    45    1
    50     9    46    1
    51     9    47    1
    52    10    48    1
    53    10    49    1
    54    11    50    1
    55    11    51    1
    56    12    52    1
    57    12    53    1
    58    16    54    1
    59    17    55    1
    60    18    56    1
    61    19    57    1
    62    21    58    1
    63    21    59    1
    64    22    60    1
    65    22    61    1
    66    23    62    1
    67    23    63    1
    68    24    64    1
    69    26    65    1
    70    27    66    1
    71    30    67    1
    72    31    68    1
    73    32    69    1
    74    33    70    1
