
     RDKit          3D

 50 52  0  0  0  0  0  0  0  0999 V2000
   -5.0850    1.7668   -2.4279 C   0  0  0  0  0  0  0  0  0  0  0  0
   -4.2734    1.4489   -1.3005 N   0  0  0  0  0  0  0  0  0  0  0  0
   -3.1686    0.5746   -1.6068 C   0  0  0  0  0  0  0  0  0  0  0  0
   -2.2494    0.3704   -0.4288 C   0  0  0  0  0  0  0  0  0  0  0  0
   -3.0887   -0.2010    0.6966 C   0  0  0  0  0  0  0  0  0  0  0  0
   -2.1451   -0.5316    2.1468 S   0  0  0  0  0  6  0  0  0  0  0  0
   -1.4695    0.7498    2.5574 O   0  0  0  0  0  0  0  0  0  0  0  0
   -3.1123   -0.8787    3.2500 O   0  0  0  0  0  0  0  0  0  0  0  0
   -0.9352   -1.7423    1.9235 C   0  0  0  0  0  0  0  0  0  0  0  0
   -1.2355   -3.0582    2.1513 C   0  0  0  0  0  0  0  0  0  0  0  0
   -2.8273   -3.5900    2.6715 Cl  0  0  0  0  0  0  0  0  0  0  0  0
   -0.2203   -3.9624    1.9521 C   0  0  0  0  0  0  0  0  0  0  0  0
    1.0261   -3.5614    1.5456 C   0  0  0  0  0  0  0  0  0  0  0  0
    1.3573   -2.2155    1.3048 C   0  0  0  0  0  0  0  0  0  0  0  0
    2.6850   -1.9464    0.9277 N   0  0  0  0  0  0  0  0  0  0  0  0
    3.1627   -0.8227    0.2339 C   0  0  0  0  0  0  0  0  0  0  0  0
    2.4114    0.0752   -0.1550 O   0  0  0  0  0  0  0  0  0  0  0  0
    4.5823   -0.6843   -0.0501 N   0  0  0  0  0  0  0  0  0  0  0  0
    5.0177    0.4755   -0.7578 C   0  0  0  0  0  0  0  0  0  0  0  0
    5.0747    0.4551   -2.1330 C   0  0  0  0  0  0  0  0  0  0  0  0
    5.4992    1.5836   -2.8396 C   0  0  0  0  0  0  0  0  0  0  0  0
    5.8550    2.7054   -2.1231 C   0  0  0  0  0  0  0  0  0  0  0  0
    5.7893    2.6992   -0.7576 C   0  0  0  0  0  0  0  0  0  0  0  0
    6.2545    4.1569    0.1135 Cl  0  0  0  0  0  0  0  0  0  0  0  0
    5.3696    1.5872   -0.0311 C   0  0  0  0  0  0  0  0  0  0  0  0
    5.3040    1.6327    1.7172 Cl  0  0  0  0  0  0  0  0  0  0  0  0
    0.3448   -1.3250    1.5062 C   0  0  0  0  0  0  0  0  0  0  0  0
    0.5739    0.0271    1.3016 O   0  0  0  0  0  0  0  0  0  0  0  0
   -4.1150    0.8590    1.0420 C   0  0  0  0  0  0  0  0  0  0  0  0
   -5.0189    1.0259   -0.1403 C   0  0  0  0  0  0  0  0  0  0  0  0
   -5.3582    0.8174   -2.9722 H   0  0  0  0  0  0  0  0  0  0  0  0
   -6.0749    2.1381   -2.0309 H   0  0  0  0  0  0  0  0  0  0  0  0
   -4.6640    2.5156   -3.1032 H   0  0  0  0  0  0  0  0  0  0  0  0
   -2.6277    1.0370   -2.4696 H   0  0  0  0  0  0  0  0  0  0  0  0
   -3.5896   -0.4090   -1.9124 H   0  0  0  0  0  0  0  0  0  0  0  0
   -1.4484   -0.3163   -0.7397 H   0  0  0  0  0  0  0  0  0  0  0  0
   -1.8696    1.3573   -0.0821 H   0  0  0  0  0  0  0  0  0  0  0  0
   -3.6332   -1.0661    0.3047 H   0  0  0  0  0  0  0  0  0  0  0  0
   -0.4472   -5.0183    2.1308 H   0  0  0  0  0  0  0  0  0  0  0  0
    1.8214   -4.2775    1.3887 H   0  0  0  0  0  0  0  0  0  0  0  0
    3.4603   -2.6628    1.1914 H   0  0  0  0  0  0  0  0  0  0  0  0
    5.2383   -1.4071    0.2555 H   0  0  0  0  0  0  0  0  0  0  0  0
    4.7869   -0.4427   -2.6423 H   0  0  0  0  0  0  0  0  0  0  0  0
    5.5380    1.5521   -3.9082 H   0  0  0  0  0  0  0  0  0  0  0  0
    6.1800    3.5626   -2.7134 H   0  0  0  0  0  0  0  0  0  0  0  0
    0.8815    0.6000    2.0810 H   0  0  0  0  0  0  0  0  0  0  0  0
   -3.5562    1.8167    1.2022 H   0  0  0  0  0  0  0  0  0  0  0  0
   -4.6983    0.6015    1.9456 H   0  0  0  0  0  0  0  0  0  0  0  0
   -5.5613    0.0832   -0.3126 H   0  0  0  0  0  0  0  0  0  0  0  0
   -5.7408    1.8446    0.0966 H   0  0  0  0  0  0  0  0  0  0  0  0
  1  2  1  0
  2  3  1  0
  3  4  1  0
  4  5  1  0
  5  6  1  0
  6  7  2  0
  6  8  2  0
  6  9  1  0
  9 10  2  0
 10 11  1  0
 10 12  1  0
 12 13  2  0
 13 14  1  0
 14 15  1  0
 15 16  1  0
 16 17  2  0
 16 18  1  0
 18 19  1  0
 19 20  2  0
 20 21  1  0
 21 22  2  0
 22 23  1  0
 23 24  1  0
 23 25  2  0
 25 26  1  0
 14 27  2  0
 27 28  1  0
  5 29  1  0
 29 30  1  0
 30  2  1  0
 27  9  1  0
 25 19  1  0
  1 31  1  0
  1 32  1  0
  1 33  1  0
  3 34  1  0
  3 35  1  0
  4 36  1  0
  4 37  1  0
  5 38  1  0
 12 39  1  0
 13 40  1  0
 15 41  1  0
 18 42  1  0
 20 43  1  0
 21 44  1  0
 22 45  1  0
 28 46  1  0
 29 47  1  0
 29 48  1  0
 30 49  1  0
 30 50  1  0
M  END
$$$$
