@<TRIPOS>MOLECULE
*****
 50 52 0 0 0
SMALL
GASTEIGER

@<TRIPOS>ATOM
      1 C          -5.0850    1.7668   -2.4279 C.3     1  UNL1       -0.0128
      2 N          -4.2734    1.4489   -1.3005 N.3     1  UNL1       -0.3052
      3 C          -3.1686    0.5746   -1.6068 C.3     1  UNL1        0.0003
      4 C          -2.2494    0.3704   -0.4288 C.3     1  UNL1       -0.0175
      5 C          -3.0887   -0.2010    0.6966 C.3     1  UNL1        0.0845
      6 S          -2.1451   -0.5316    2.1468 S.O2    1  UNL1        0.0047
      7 O          -1.4695    0.7498    2.5574 O.2     1  UNL1       -0.1689
      8 O          -3.1123   -0.8787    3.2500 O.2     1  UNL1       -0.1689
      9 C          -0.9352   -1.7423    1.9235 C.ar    1  UNL1        0.1497
     10 C          -1.2355   -3.0582    2.1513 C.ar    1  UNL1        0.0694
     11 CL         -2.8273   -3.5900    2.6715 Cl      1  UNL1       -0.0815
     12 C          -0.2203   -3.9624    1.9521 C.ar    1  UNL1       -0.0395
     13 C           1.0261   -3.5614    1.5456 C.ar    1  UNL1       -0.0354
     14 C           1.3573   -2.2155    1.3048 C.ar    1  UNL1        0.0785
     15 N           2.6850   -1.9464    0.9277 N.am    1  UNL1       -0.2661
     16 C           3.1627   -0.8227    0.2339 C.2     1  UNL1        0.3082
     17 O           2.4114    0.0752   -0.1550 O.2     1  UNL1       -0.2521
     18 N           4.5823   -0.6843   -0.0501 N.am    1  UNL1       -0.2678
     19 C           5.0177    0.4755   -0.7578 C.ar    1  UNL1        0.0546
     20 C           5.0747    0.4551   -2.1330 C.ar    1  UNL1       -0.0389
     21 C           5.4992    1.5836   -2.8396 C.ar    1  UNL1       -0.0585
     22 C           5.8550    2.7054   -2.1231 C.ar    1  UNL1       -0.0419
     23 C           5.7893    2.6992   -0.7576 C.ar    1  UNL1        0.0610
     24 CL          6.2545    4.1569    0.1135 Cl      1  UNL1       -0.0820
     25 C           5.3696    1.5872   -0.0311 C.ar    1  UNL1        0.0804
     26 CL          5.3040    1.6327    1.7172 Cl      1  UNL1       -0.0801
     27 C           0.3448   -1.3250    1.5062 C.ar    1  UNL1        0.1644
     28 O           0.5739    0.0271    1.3016 O.3     1  UNL1       -0.5032
     29 C          -4.1150    0.8590    1.0420 C.3     1  UNL1       -0.0175
     30 C          -5.0189    1.0259   -0.1403 C.3     1  UNL1        0.0003
     31 H          -5.3582    0.8174   -2.9722 H       1  UNL1        0.0391
     32 H          -6.0749    2.1381   -2.0309 H       1  UNL1        0.0391
     33 H          -4.6640    2.5156   -3.1032 H       1  UNL1        0.0391
     34 H          -2.6277    1.0370   -2.4696 H       1  UNL1        0.0427
     35 H          -3.5896   -0.4090   -1.9124 H       1  UNL1        0.0427
     36 H          -1.4484   -0.3163   -0.7397 H       1  UNL1        0.0296
     37 H          -1.8696    1.3573   -0.0821 H       1  UNL1        0.0296
     38 H          -3.6332   -1.0661    0.3047 H       1  UNL1        0.0541
     39 H          -0.4472   -5.0183    2.1308 H       1  UNL1        0.0633
     40 H           1.8214   -4.2775    1.3887 H       1  UNL1        0.0638
     41 H           3.4603   -2.6628    1.1914 H       1  UNL1        0.1565
     42 H           5.2383   -1.4071    0.2555 H       1  UNL1        0.1564
     43 H           4.7869   -0.4427   -2.6423 H       1  UNL1        0.0637
     44 H           5.5380    1.5521   -3.9082 H       1  UNL1        0.0619
     45 H           6.1800    3.5626   -2.7134 H       1  UNL1        0.0633
     46 H           0.8815    0.6000    2.0810 H       1  UNL1        0.2923
     47 H          -3.5562    1.8167    1.2022 H       1  UNL1        0.0296
     48 H          -4.6983    0.6015    1.9456 H       1  UNL1        0.0296
     49 H          -5.5613    0.0832   -0.3126 H       1  UNL1        0.0427
     50 H          -5.7408    1.8446    0.0966 H       1  UNL1        0.0427
@<TRIPOS>BOND
     1     1     2    1
     2     2     3    1
     3     3     4    1
     4     4     5    1
     5     5     6    1
     6     6     7    2
     7     6     8    2
     8     6     9    1
     9     9    10   ar
    10    10    11    1
    11    10    12   ar
    12    12    13   ar
    13    13    14   ar
    14    14    15    1
    15    15    16   am
    16    16    17    2
    17    16    18   am
    18    18    19    1
    19    19    20   ar
    20    20    21   ar
    21    21    22   ar
    22    22    23   ar
    23    23    24    1
    24    23    25   ar
    25    25    26    1
    26    14    27   ar
    27    27    28    1
    28     5    29    1
    29    29    30    1
    30    30     2    1
    31    27     9   ar
    32    25    19   ar
    33     1    31    1
    34     1    32    1
    35     1    33    1
    36     3    34    1
    37     3    35    1
    38     4    36    1
    39     4    37    1
    40     5    38    1
    41    12    39    1
    42    13    40    1
    43    15    41    1
    44    18    42    1
    45    20    43    1
    46    21    44    1
    47    22    45    1
    48    28    46    1
    49    29    47    1
    50    29    48    1
    51    30    49    1
    52    30    50    1
