@<TRIPOS>MOLECULE
*****
 55 57 0 0 0
SMALL
GASTEIGER

@<TRIPOS>ATOM
      1 C           1.2607   -3.8655   -0.9101 C.3     1  UNL1       -0.0585
      2 C           1.1041   -2.4988   -1.5285 C.3     1  UNL1       -0.0183
      3 C           1.7822   -2.6230   -2.9155 C.3     1  UNL1       -0.0585
      4 C           1.7785   -1.4151   -0.8555 C.ar    1  UNL1       -0.0056
      5 C           3.1806   -1.3370   -0.8891 C.ar    1  UNL1        0.0334
      6 N           3.8547   -0.3685   -0.3099 N.ar    1  UNL1       -0.2545
      7 C           3.2450    0.6385    0.3706 C.ar    1  UNL1        0.0755
      8 C           4.0685    1.6632    0.9762 C.ar    1  UNL1        0.0369
      9 C           5.4606    1.5728    0.8323 C.ar    1  UNL1       -0.0314
     10 C           6.3268    2.4920    1.3677 C.ar    1  UNL1        0.0418
     11 CL          8.0669    2.3502    1.1691 Cl      1  UNL1       -0.0835
     12 C           5.8636    3.5698    2.0870 C.ar    1  UNL1       -0.0406
     13 C           4.5041    3.6803    2.2417 C.ar    1  UNL1       -0.0244
     14 C           3.6223    2.7375    1.6921 C.ar    1  UNL1        0.1326
     15 F           2.2918    2.9235    1.8936 F       1  UNL1       -0.2048
     16 C           1.8911    0.5848    0.4174 C.ar    1  UNL1       -0.0141
     17 C           1.1289   -0.4401   -0.1923 C.ar    1  UNL1        0.0383
     18 N          -0.2673   -0.3627   -0.1260 N.pl3   1  UNL1       -0.3135
     19 C          -1.1421   -1.2313    0.5491 C.ar    1  UNL1        0.0465
     20 C          -0.5488   -2.2272    1.3253 C.ar    1  UNL1       -0.0217
     21 C          -1.3511   -3.0994    2.0021 C.ar    1  UNL1        0.0293
     22 N          -2.6921   -3.0023    1.9236 N.ar    1  UNL1       -0.2624
     23 C          -3.2754   -2.0508    1.1816 C.ar    1  UNL1        0.0415
     24 C          -2.4883   -1.1443    0.4777 C.ar    1  UNL1        0.0758
     25 C          -3.2020   -0.1369   -0.3472 C.2     1  UNL1        0.2474
     26 O          -2.6178    0.6586   -1.0911 O.2     1  UNL1       -0.2701
     27 N          -4.6104   -0.0035   -0.3492 N.am    1  UNL1       -0.3088
     28 C          -5.3001    0.9840   -1.1582 C.3     1  UNL1        0.0377
     29 C          -4.9180    2.3993   -0.8416 C.3     1  UNL1        0.0679
     30 C          -5.3433    2.6833    0.5801 C.3     1  UNL1       -0.0375
     31 O          -5.6281    3.2778   -1.6613 O.3     1  UNL1       -0.3905
     32 H           0.2755   -4.2404   -0.5643 H       1  UNL1        0.0235
     33 H           1.5865   -4.5759   -1.6886 H       1  UNL1        0.0235
     34 H           2.0282   -3.8944   -0.1168 H       1  UNL1        0.0235
     35 H           0.0509   -2.2941   -1.8213 H       1  UNL1        0.0344
     36 H           1.1011   -3.2247   -3.5835 H       1  UNL1        0.0235
     37 H           2.7296   -3.1535   -2.8517 H       1  UNL1        0.0235
     38 H           1.8162   -1.6197   -3.3388 H       1  UNL1        0.0235
     39 H           3.7277   -2.1075   -1.4144 H       1  UNL1        0.0833
     40 H           5.8542    0.7358    0.2716 H       1  UNL1        0.0639
     41 H           6.5435    4.2795    2.4997 H       1  UNL1        0.0633
     42 H           4.1068    4.5181    2.8032 H       1  UNL1        0.0647
     43 H           1.3298    1.3448    0.9371 H       1  UNL1        0.0658
     44 H          -0.6963    0.4309   -0.6192 H       1  UNL1        0.1522
     45 H           0.5469   -2.2902    1.3835 H       1  UNL1        0.0651
     46 H          -0.8924   -3.8819    2.6117 H       1  UNL1        0.0830
     47 H          -4.3569   -2.0208    1.1525 H       1  UNL1        0.0838
     48 H          -5.1827   -0.6223    0.2446 H       1  UNL1        0.1491
     49 H          -6.3949    0.8598   -1.0780 H       1  UNL1        0.0487
     50 H          -5.0383    0.7852   -2.2180 H       1  UNL1        0.0487
     51 H          -3.8565    2.6219   -1.0206 H       1  UNL1        0.0606
     52 H          -6.0603    3.5220    0.6096 H       1  UNL1        0.0255
     53 H          -5.7187    1.7793    1.0989 H       1  UNL1        0.0255
     54 H          -4.4687    3.0268    1.2038 H       1  UNL1        0.0255
     55 H          -5.0770    3.6119   -2.4124 H       1  UNL1        0.2098
@<TRIPOS>BOND
     1     1     2    1
     2     2     3    1
     3     2     4    1
     4     4     5   ar
     5     5     6   ar
     6     6     7   ar
     7     7     8    1
     8     8     9   ar
     9     9    10   ar
    10    10    11    1
    11    10    12   ar
    12    12    13   ar
    13    13    14   ar
    14    14    15    1
    15     7    16   ar
    16    16    17   ar
    17    17    18    1
    18    18    19    1
    19    19    20   ar
    20    20    21   ar
    21    21    22   ar
    22    22    23   ar
    23    23    24   ar
    24    24    25    1
    25    25    26    2
    26    25    27   am
    27    27    28    1
    28    28    29    1
    29    29    30    1
    30    29    31    1
    31    17     4   ar
    32    24    19   ar
    33    14     8   ar
    34     1    32    1
    35     1    33    1
    36     1    34    1
    37     2    35    1
    38     3    36    1
    39     3    37    1
    40     3    38    1
    41     5    39    1
    42     9    40    1
    43    12    41    1
    44    13    42    1
    45    16    43    1
    46    18    44    1
    47    20    45    1
    48    21    46    1
    49    23    47    1
    50    27    48    1
    51    28    49    1
    52    28    50    1
    53    29    51    1
    54    30    52    1
    55    30    53    1
    56    30    54    1
    57    31    55    1
