
     RDKit          3D

 48 51  0  0  0  0  0  0  0  0999 V2000
   -6.8407    1.3514    0.7086 C   0  0  0  0  0  0  0  0  0  0  0  0
   -6.2740    0.0163    0.2612 C   0  0  0  0  0  0  0  0  0  0  0  0
   -6.6966   -1.0240    1.2785 C   0  0  0  0  0  0  0  0  0  0  0  0
   -6.8355   -0.3240   -1.1163 C   0  0  0  0  0  0  0  0  0  0  0  0
   -4.7986    0.1100    0.1358 C   0  0  0  0  0  0  0  0  0  0  0  0
   -4.1662    1.3005    0.4168 C   0  0  0  0  0  0  0  0  0  0  0  0
   -2.8000    1.3984    0.3040 C   0  0  0  0  0  0  0  0  0  0  0  0
   -2.0444    0.3218   -0.0874 C   0  0  0  0  0  0  0  0  0  0  0  0
   -0.6060    0.4734   -0.1920 C   0  0  0  0  0  0  0  0  0  0  0  0
   -0.0397    1.5864    0.0734 O   0  0  0  0  0  0  0  0  0  0  0  0
    0.2656   -0.5731   -0.5867 N   0  0  0  0  0  0  0  0  0  0  0  0
    1.6786   -0.3884   -0.6791 C   0  0  0  0  0  0  0  0  0  0  0  0
    2.5310   -0.6082    0.3597 C   0  0  0  0  0  0  0  0  0  0  0  0
    3.7791   -0.3419   -0.0631 N   0  0  0  0  0  0  0  0  0  0  0  0
    4.9783   -0.4010    0.5717 C   0  0  0  0  0  0  0  0  0  0  0  0
    6.1772   -0.0869   -0.0266 C   0  0  0  0  0  0  0  0  0  0  0  0
    7.4204   -0.1576    0.6625 N   0  0  0  0  0  0  0  0  0  0  0  0
    8.4532    0.7058    0.6221 C   0  0  0  0  0  0  0  0  0  0  0  0
    9.4762    0.2712    1.4393 C   0  0  0  0  0  0  0  0  0  0  0  0
    9.0340   -0.8840    1.9787 N   0  0  0  0  0  0  0  0  0  0  0  0
    7.7977   -1.1345    1.5066 C   0  0  0  0  0  0  0  0  0  0  0  0
    6.1062    0.3072   -1.3551 C   0  0  0  0  0  0  0  0  0  0  0  0
    4.8869    0.3659   -1.9960 C   0  0  0  0  0  0  0  0  0  0  0  0
    3.7056    0.0374   -1.3435 C   0  0  0  0  0  0  0  0  0  0  0  0
    2.4140    0.0070   -1.7164 N   0  0  0  0  0  0  0  0  0  0  0  0
   -2.6591   -0.8621   -0.3683 C   0  0  0  0  0  0  0  0  0  0  0  0
   -4.0395   -0.9696   -0.2568 C   0  0  0  0  0  0  0  0  0  0  0  0
   -6.4156    1.5877    1.7092 H   0  0  0  0  0  0  0  0  0  0  0  0
   -7.9261    1.3313    0.8209 H   0  0  0  0  0  0  0  0  0  0  0  0
   -6.6105    2.1357   -0.0500 H   0  0  0  0  0  0  0  0  0  0  0  0
   -7.7135   -0.7557    1.6066 H   0  0  0  0  0  0  0  0  0  0  0  0
   -6.0284   -0.9227    2.1569 H   0  0  0  0  0  0  0  0  0  0  0  0
   -6.6743   -2.0403    0.8331 H   0  0  0  0  0  0  0  0  0  0  0  0
   -7.1348    0.6427   -1.6015 H   0  0  0  0  0  0  0  0  0  0  0  0
   -6.0873   -0.8599   -1.7340 H   0  0  0  0  0  0  0  0  0  0  0  0
   -7.7229   -0.9512   -0.9978 H   0  0  0  0  0  0  0  0  0  0  0  0
   -4.7260    2.1714    0.7282 H   0  0  0  0  0  0  0  0  0  0  0  0
   -2.3313    2.3475    0.5317 H   0  0  0  0  0  0  0  0  0  0  0  0
   -0.1124   -1.5068   -0.8195 H   0  0  0  0  0  0  0  0  0  0  0  0
    2.2600   -0.9452    1.3739 H   0  0  0  0  0  0  0  0  0  0  0  0
    4.9965   -0.7112    1.6036 H   0  0  0  0  0  0  0  0  0  0  0  0
    8.4712    1.6030    0.0352 H   0  0  0  0  0  0  0  0  0  0  0  0
   10.4402    0.7666    1.6080 H   0  0  0  0  0  0  0  0  0  0  0  0
    7.2231   -2.0060    1.7890 H   0  0  0  0  0  0  0  0  0  0  0  0
    7.0237    0.5633   -1.8652 H   0  0  0  0  0  0  0  0  0  0  0  0
    4.7950    0.6716   -3.0398 H   0  0  0  0  0  0  0  0  0  0  0  0
   -2.0944   -1.7300   -0.6793 H   0  0  0  0  0  0  0  0  0  0  0  0
   -4.5358   -1.8893   -0.4731 H   0  0  0  0  0  0  0  0  0  0  0  0
  1  2  1  0
  2  3  1  0
  2  4  1  0
  2  5  1  0
  5  6  2  0
  6  7  1  0
  7  8  2  0
  8  9  1  0
  9 10  2  0
  9 11  1  0
 11 12  1  0
 12 13  2  0
 13 14  1  0
 14 15  1  0
 15 16  2  0
 16 17  1  0
 17 18  1  0
 18 19  2  0
 19 20  1  0
 20 21  2  0
 16 22  1  0
 22 23  2  0
 23 24  1  0
 24 25  2  0
  8 26  1  0
 26 27  2  0
 27  5  1  0
 25 12  1  0
 24 14  1  0
 21 17  1  0
  1 28  1  0
  1 29  1  0
  1 30  1  0
  3 31  1  0
  3 32  1  0
  3 33  1  0
  4 34  1  0
  4 35  1  0
  4 36  1  0
  6 37  1  0
  7 38  1  0
 11 39  1  0
 13 40  1  0
 15 41  1  0
 18 42  1  0
 19 43  1  0
 21 44  1  0
 22 45  1  0
 23 46  1  0
 26 47  1  0
 27 48  1  0
M  END
$$$$
