@<TRIPOS>MOLECULE
*****
 48 51 0 0 0
SMALL
GASTEIGER

@<TRIPOS>ATOM
      1 C          -6.8407    1.3514    0.7086 C.3     1  UNL1       -0.0560
      2 C          -6.2740    0.0163    0.2612 C.3     1  UNL1       -0.0127
      3 C          -6.6966   -1.0240    1.2785 C.3     1  UNL1       -0.0560
      4 C          -6.8355   -0.3240   -1.1163 C.3     1  UNL1       -0.0560
      5 C          -4.7986    0.1100    0.1358 C.ar    1  UNL1       -0.0419
      6 C          -4.1662    1.3005    0.4168 C.ar    1  UNL1       -0.0574
      7 C          -2.8000    1.3984    0.3040 C.ar    1  UNL1       -0.0493
      8 C          -2.0444    0.3218   -0.0874 C.ar    1  UNL1        0.0371
      9 C          -0.6060    0.4734   -0.1920 C.2     1  UNL1        0.2493
     10 O          -0.0397    1.5864    0.0734 O.2     1  UNL1       -0.2698
     11 N           0.2656   -0.5731   -0.5867 N.am    1  UNL1       -0.2651
     12 C           1.6786   -0.3884   -0.6791 C.ar    1  UNL1        0.1441
     13 C           2.5310   -0.6082    0.3597 C.ar    1  UNL1        0.0514
     14 N           3.7791   -0.3419   -0.0631 N.ar    1  UNL1       -0.3027
     15 C           4.9783   -0.4010    0.5717 C.ar    1  UNL1        0.0351
     16 C           6.1772   -0.0869   -0.0266 C.ar    1  UNL1        0.0640
     17 N           7.4204   -0.1576    0.6625 N.ar    1  UNL1       -0.3044
     18 C           8.4532    0.7058    0.6221 C.ar    1  UNL1        0.0293
     19 C           9.4762    0.2712    1.4393 C.ar    1  UNL1        0.0458
     20 N           9.0340   -0.8840    1.9787 N.ar    1  UNL1       -0.2437
     21 C           7.7977   -1.1345    1.5066 C.ar    1  UNL1        0.1004
     22 C           6.1062    0.3072   -1.3551 C.ar    1  UNL1       -0.0329
     23 C           4.8869    0.3659   -1.9960 C.ar    1  UNL1       -0.0168
     24 C           3.7056    0.0374   -1.3435 C.ar    1  UNL1        0.1398
     25 N           2.4140    0.0070   -1.7164 N.ar    1  UNL1       -0.2129
     26 C          -2.6591   -0.8621   -0.3683 C.ar    1  UNL1       -0.0493
     27 C          -4.0395   -0.9696   -0.2568 C.ar    1  UNL1       -0.0574
     28 H          -6.4156    1.5877    1.7092 H       1  UNL1        0.0238
     29 H          -7.9261    1.3313    0.8209 H       1  UNL1        0.0238
     30 H          -6.6105    2.1357   -0.0500 H       1  UNL1        0.0238
     31 H          -7.7135   -0.7557    1.6066 H       1  UNL1        0.0238
     32 H          -6.0284   -0.9227    2.1569 H       1  UNL1        0.0238
     33 H          -6.6743   -2.0403    0.8331 H       1  UNL1        0.0238
     34 H          -7.1348    0.6427   -1.6015 H       1  UNL1        0.0238
     35 H          -6.0873   -0.8599   -1.7340 H       1  UNL1        0.0238
     36 H          -7.7229   -0.9512   -0.9978 H       1  UNL1        0.0238
     37 H          -4.7260    2.1714    0.7282 H       1  UNL1        0.0621
     38 H          -2.3313    2.3475    0.5317 H       1  UNL1        0.0625
     39 H          -0.1124   -1.5068   -0.8195 H       1  UNL1        0.1566
     40 H           2.2600   -0.9452    1.3739 H       1  UNL1        0.0848
     41 H           4.9965   -0.7112    1.6036 H       1  UNL1        0.0834
     42 H           8.4712    1.6030    0.0352 H       1  UNL1        0.0829
     43 H          10.4402    0.7666    1.6080 H       1  UNL1        0.0845
     44 H           7.2231   -2.0060    1.7890 H       1  UNL1        0.1032
     45 H           7.0237    0.5633   -1.8652 H       1  UNL1        0.0640
     46 H           4.7950    0.6716   -3.0398 H       1  UNL1        0.0655
     47 H          -2.0944   -1.7300   -0.6793 H       1  UNL1        0.0625
     48 H          -4.5358   -1.8893   -0.4731 H       1  UNL1        0.0621
@<TRIPOS>BOND
     1     1     2    1
     2     2     3    1
     3     2     4    1
     4     2     5    1
     5     5     6   ar
     6     6     7   ar
     7     7     8   ar
     8     8     9    1
     9     9    10    2
    10     9    11   am
    11    11    12    1
    12    12    13   ar
    13    13    14   ar
    14    14    15   ar
    15    15    16   ar
    16    16    17    1
    17    17    18   ar
    18    18    19   ar
    19    19    20   ar
    20    20    21   ar
    21    16    22   ar
    22    22    23   ar
    23    23    24   ar
    24    24    25   ar
    25     8    26   ar
    26    26    27   ar
    27    27     5   ar
    28    25    12   ar
    29    24    14   ar
    30    21    17   ar
    31     1    28    1
    32     1    29    1
    33     1    30    1
    34     3    31    1
    35     3    32    1
    36     3    33    1
    37     4    34    1
    38     4    35    1
    39     4    36    1
    40     6    37    1
    41     7    38    1
    42    11    39    1
    43    13    40    1
    44    15    41    1
    45    18    42    1
    46    19    43    1
    47    21    44    1
    48    22    45    1
    49    23    46    1
    50    26    47    1
    51    27    48    1
