@<TRIPOS>MOLECULE
*****
 28 28 0 0 0
SMALL
GASTEIGER

@<TRIPOS>ATOM
      1 C           4.6069    0.4876   -0.6668 C.3     1  UNL1       -0.0306
      2 C           4.1256    0.2817    0.7460 C.3     1  UNL1        0.0901
      3 O           2.8432   -0.2999    0.8164 O.3     1  UNL1       -0.4583
      4 C           1.7037    0.2936    0.2605 C.2     1  UNL1        0.3948
      5 O           2.1032    1.3690   -0.2596 O.2     1  UNL1       -0.2398
      6 C           0.5230   -0.5448    0.4941 C.2     1  UNL1        0.3239
      7 O           0.3713   -1.6650    1.0881 O.2     1  UNL1       -0.2628
      8 N          -0.7842   -0.1996    0.0432 N.am    1  UNL1       -0.2922
      9 C          -1.8249   -1.1639    0.3747 C.3     1  UNL1        0.0152
     10 C          -3.0841   -0.9571   -0.4214 C.3     1  UNL1       -0.0371
     11 C          -3.6580    0.3990   -0.0614 C.3     1  UNL1       -0.0502
     12 C          -2.5237    1.4033    0.1291 C.3     1  UNL1       -0.0371
     13 C          -1.3377    0.9392   -0.7006 C.3     1  UNL1        0.0152
     14 H           5.6841    0.1817   -0.7760 H       1  UNL1        0.0262
     15 H           4.5041    1.5292   -1.0089 H       1  UNL1        0.0262
     16 H           4.0311   -0.2067   -1.3170 H       1  UNL1        0.0262
     17 H           4.8213   -0.4434    1.2210 H       1  UNL1        0.0695
     18 H           4.1920    1.2245    1.3452 H       1  UNL1        0.0695
     19 H          -1.4163   -2.1647    0.2524 H       1  UNL1        0.0465
     20 H          -2.0908   -0.9944    1.4271 H       1  UNL1        0.0465
     21 H          -2.9793   -1.0889   -1.5015 H       1  UNL1        0.0280
     22 H          -3.8047   -1.7150   -0.0479 H       1  UNL1        0.0280
     23 H          -4.2362    0.3901    0.8843 H       1  UNL1        0.0266
     24 H          -4.2869    0.7715   -0.8977 H       1  UNL1        0.0266
     25 H          -2.2635    1.4308    1.2145 H       1  UNL1        0.0280
     26 H          -2.8406    2.3982   -0.1749 H       1  UNL1        0.0280
     27 H          -0.6299    1.7596   -0.8043 H       1  UNL1        0.0465
     28 H          -1.7485    0.5620   -1.6586 H       1  UNL1        0.0465
@<TRIPOS>BOND
     1     1     2    1
     2     2     3    1
     3     3     4    1
     4     4     5    2
     5     4     6    1
     6     6     7    2
     7     6     8   am
     8     8     9    1
     9     9    10    1
    10    10    11    1
    11    11    12    1
    12    12    13    1
    13    13     8    1
    14     1    14    1
    15     1    15    1
    16     1    16    1
    17     2    17    1
    18     2    18    1
    19     9    19    1
    20     9    20    1
    21    10    21    1
    22    10    22    1
    23    11    23    1
    24    11    24    1
    25    12    25    1
    26    12    26    1
    27    13    27    1
    28    13    28    1
