
     RDKit          3D

 28 28  0  0  0  0  0  0  0  0999 V2000
    4.6069    0.4876   -0.6668 C   0  0  0  0  0  0  0  0  0  0  0  0
    4.1256    0.2817    0.7460 C   0  0  0  0  0  0  0  0  0  0  0  0
    2.8432   -0.2999    0.8164 O   0  0  0  0  0  0  0  0  0  0  0  0
    1.7037    0.2936    0.2605 C   0  0  0  0  0  0  0  0  0  0  0  0
    2.1032    1.3690   -0.2596 O   0  0  0  0  0  0  0  0  0  0  0  0
    0.5230   -0.5448    0.4941 C   0  0  0  0  0  0  0  0  0  0  0  0
    0.3713   -1.6650    1.0881 O   0  0  0  0  0  0  0  0  0  0  0  0
   -0.7842   -0.1996    0.0432 N   0  0  0  0  0  0  0  0  0  0  0  0
   -1.8249   -1.1639    0.3747 C   0  0  0  0  0  0  0  0  0  0  0  0
   -3.0841   -0.9571   -0.4214 C   0  0  0  0  0  0  0  0  0  0  0  0
   -3.6580    0.3990   -0.0614 C   0  0  0  0  0  0  0  0  0  0  0  0
   -2.5237    1.4033    0.1291 C   0  0  0  0  0  0  0  0  0  0  0  0
   -1.3377    0.9392   -0.7006 C   0  0  0  0  0  0  0  0  0  0  0  0
    5.6841    0.1817   -0.7760 H   0  0  0  0  0  0  0  0  0  0  0  0
    4.5041    1.5292   -1.0089 H   0  0  0  0  0  0  0  0  0  0  0  0
    4.0311   -0.2067   -1.3170 H   0  0  0  0  0  0  0  0  0  0  0  0
    4.8213   -0.4434    1.2210 H   0  0  0  0  0  0  0  0  0  0  0  0
    4.1920    1.2245    1.3452 H   0  0  0  0  0  0  0  0  0  0  0  0
   -1.4163   -2.1647    0.2524 H   0  0  0  0  0  0  0  0  0  0  0  0
   -2.0908   -0.9944    1.4271 H   0  0  0  0  0  0  0  0  0  0  0  0
   -2.9793   -1.0889   -1.5015 H   0  0  0  0  0  0  0  0  0  0  0  0
   -3.8047   -1.7150   -0.0479 H   0  0  0  0  0  0  0  0  0  0  0  0
   -4.2362    0.3901    0.8843 H   0  0  0  0  0  0  0  0  0  0  0  0
   -4.2869    0.7715   -0.8977 H   0  0  0  0  0  0  0  0  0  0  0  0
   -2.2635    1.4308    1.2145 H   0  0  0  0  0  0  0  0  0  0  0  0
   -2.8406    2.3982   -0.1749 H   0  0  0  0  0  0  0  0  0  0  0  0
   -0.6299    1.7596   -0.8043 H   0  0  0  0  0  0  0  0  0  0  0  0
   -1.7485    0.5620   -1.6586 H   0  0  0  0  0  0  0  0  0  0  0  0
  1  2  1  0
  2  3  1  0
  3  4  1  0
  4  5  2  0
  4  6  1  0
  6  7  2  0
  6  8  1  0
  8  9  1  0
  9 10  1  0
 10 11  1  0
 11 12  1  0
 12 13  1  0
 13  8  1  0
  1 14  1  0
  1 15  1  0
  1 16  1  0
  2 17  1  0
  2 18  1  0
  9 19  1  0
  9 20  1  0
 10 21  1  0
 10 22  1  0
 11 23  1  0
 11 24  1  0
 12 25  1  0
 12 26  1  0
 13 27  1  0
 13 28  1  0
M  END
$$$$
