@<TRIPOS>MOLECULE
*****
 52 56 0 0 0
SMALL
GASTEIGER

@<TRIPOS>ATOM
      1 C          -6.8427   -1.9682    1.8496 C.3     1  UNL1       -0.0199
      2 C          -6.3265   -1.5038    0.5324 C.ar    1  UNL1        0.0706
      3 N          -6.8542   -1.7153   -0.6956 N.ar    1  UNL1       -0.1760
      4 N          -6.1238   -1.1530   -1.6324 N.ar    1  UNL1       -0.2735
      5 C          -6.3400   -1.1437   -3.0740 C.3     1  UNL1        0.0302
      6 C          -5.0981   -0.5595   -1.0306 C.ar    1  UNL1        0.0361
      7 C          -5.1870   -0.7555    0.3302 C.ar    1  UNL1        0.0576
      8 C          -4.2591   -0.2689    1.3666 C.ar    1  UNL1        0.1443
      9 N          -4.3367   -0.4529    2.6852 N.ar    1  UNL1       -0.2081
     10 C          -3.2678    0.1693    3.2747 C.ar    1  UNL1        0.1820
     11 N          -2.8757    0.3012    4.5412 N.ar    1  UNL1       -0.2328
     12 C          -1.7840    0.9736    4.8843 C.ar    1  UNL1        0.0520
     13 C          -0.9963    1.5756    3.9051 C.ar    1  UNL1        0.1033
     14 CL          0.4165    2.4554    4.4224 Cl      1  UNL1       -0.0781
     15 C          -1.3397    1.4796    2.5786 C.ar    1  UNL1        0.1750
     16 O          -0.6321    2.0338    1.5430 O.3     1  UNL1       -0.4523
     17 C           0.4295    1.5290    0.8607 C.ar    1  UNL1        0.1286
     18 C           0.2946    0.6177   -0.1636 C.ar    1  UNL1       -0.0186
     19 C           1.3699    0.1130   -0.8498 C.ar    1  UNL1       -0.0462
     20 C           2.6574    0.5077   -0.5331 C.ar    1  UNL1        0.0373
     21 C           3.7908   -0.0402   -1.2739 C.2     1  UNL1        0.2483
     22 O           3.6197   -0.8722   -2.2006 O.2     1  UNL1       -0.2699
     23 N           5.1045    0.3439   -0.9753 N.am    1  UNL1       -0.2815
     24 C           6.2461   -0.1559   -1.6621 C.ar    1  UNL1        0.0337
     25 C           6.6991    0.4979   -2.7662 C.ar    1  UNL1       -0.0405
     26 C           7.8062    0.0130   -3.4312 C.ar    1  UNL1       -0.0600
     27 C           8.4300   -1.1233   -2.9635 C.ar    1  UNL1       -0.0616
     28 C           7.9638   -1.7746   -1.8482 C.ar    1  UNL1       -0.0600
     29 C           6.8626   -1.2753   -1.2032 C.ar    1  UNL1       -0.0405
     30 C           2.8023    1.4151    0.4854 C.ar    1  UNL1       -0.0462
     31 C           1.7054    1.9269    1.1816 C.ar    1  UNL1       -0.0186
     32 C          -2.5023    0.7589    2.2786 C.ar    1  UNL1        0.1298
     33 N          -3.1527    0.4615    1.1308 N.ar    1  UNL1       -0.3336
     34 H          -6.3101   -2.9100    2.1734 H       1  UNL1        0.0293
     35 H          -7.9085   -2.2483    1.7636 H       1  UNL1        0.0293
     36 H          -6.6760   -1.2220    2.6525 H       1  UNL1        0.0293
     37 H          -7.1132   -0.4059   -3.3711 H       1  UNL1        0.0473
     38 H          -5.3947   -0.9033   -3.6001 H       1  UNL1        0.0473
     39 H          -6.6399   -2.1768   -3.4049 H       1  UNL1        0.0473
     40 H          -4.2867    0.0074   -1.5085 H       1  UNL1        0.0833
     41 H          -1.4626    1.0808    5.9355 H       1  UNL1        0.0846
     42 H          -0.6726    0.2450   -0.4871 H       1  UNL1        0.0654
     43 H           1.2645   -0.6111   -1.6641 H       1  UNL1        0.0626
     44 H           5.3390    1.0375   -0.2126 H       1  UNL1        0.1551
     45 H           6.1966    1.3801   -3.1107 H       1  UNL1        0.0636
     46 H           8.1748    0.5257   -4.3108 H       1  UNL1        0.0618
     47 H           9.3060   -1.5297   -3.4675 H       1  UNL1        0.0618
     48 H           8.4800   -2.6838   -1.4913 H       1  UNL1        0.0618
     49 H           6.5186   -1.8076   -0.3299 H       1  UNL1        0.0636
     50 H           3.7965    1.7536    0.7685 H       1  UNL1        0.0626
     51 H           1.9531    2.6421    1.9552 H       1  UNL1        0.0654
     52 H          -2.8440    0.7679    0.1629 H       1  UNL1        0.1675
@<TRIPOS>BOND
     1     1     2    1
     2     2     3   ar
     3     3     4   ar
     4     4     5    1
     5     4     6   ar
     6     6     7   ar
     7     7     8    1
     8     8     9   ar
     9     9    10   ar
    10    10    11   ar
    11    11    12   ar
    12    12    13   ar
    13    13    14    1
    14    13    15   ar
    15    15    16    1
    16    16    17    1
    17    17    18   ar
    18    18    19   ar
    19    19    20   ar
    20    20    21    1
    21    21    22    2
    22    21    23   am
    23    23    24    1
    24    24    25   ar
    25    25    26   ar
    26    26    27   ar
    27    27    28   ar
    28    28    29   ar
    29    20    30   ar
    30    30    31   ar
    31    15    32   ar
    32    32    33   ar
    33     7     2   ar
    34    33     8   ar
    35    32    10   ar
    36    31    17   ar
    37    29    24   ar
    38     1    34    1
    39     1    35    1
    40     1    36    1
    41     5    37    1
    42     5    38    1
    43     5    39    1
    44     6    40    1
    45    12    41    1
    46    18    42    1
    47    19    43    1
    48    23    44    1
    49    25    45    1
    50    26    46    1
    51    27    47    1
    52    28    48    1
    53    29    49    1
    54    30    50    1
    55    31    51    1
    56    33    52    1
