
     RDKit          3D

 52 56  0  0  0  0  0  0  0  0999 V2000
   -6.8427   -1.9682    1.8496 C   0  0  0  0  0  0  0  0  0  0  0  0
   -6.3265   -1.5038    0.5324 C   0  0  0  0  0  0  0  0  0  0  0  0
   -6.8542   -1.7153   -0.6956 N   0  0  0  0  0  0  0  0  0  0  0  0
   -6.1238   -1.1530   -1.6324 N   0  0  0  0  0  0  0  0  0  0  0  0
   -6.3400   -1.1437   -3.0740 C   0  0  0  0  0  0  0  0  0  0  0  0
   -5.0981   -0.5595   -1.0306 C   0  0  0  0  0  0  0  0  0  0  0  0
   -5.1870   -0.7555    0.3302 C   0  0  0  0  0  0  0  0  0  0  0  0
   -4.2591   -0.2689    1.3666 C   0  0  0  0  0  0  0  0  0  0  0  0
   -4.3367   -0.4529    2.6852 N   0  0  0  0  0  0  0  0  0  0  0  0
   -3.2678    0.1693    3.2747 C   0  0  0  0  0  0  0  0  0  0  0  0
   -2.8757    0.3012    4.5412 N   0  0  0  0  0  0  0  0  0  0  0  0
   -1.7840    0.9736    4.8843 C   0  0  0  0  0  0  0  0  0  0  0  0
   -0.9963    1.5756    3.9051 C   0  0  0  0  0  0  0  0  0  0  0  0
    0.4165    2.4554    4.4224 Cl  0  0  0  0  0  0  0  0  0  0  0  0
   -1.3397    1.4796    2.5786 C   0  0  0  0  0  0  0  0  0  0  0  0
   -0.6321    2.0338    1.5430 O   0  0  0  0  0  0  0  0  0  0  0  0
    0.4295    1.5290    0.8607 C   0  0  0  0  0  0  0  0  0  0  0  0
    0.2946    0.6177   -0.1636 C   0  0  0  0  0  0  0  0  0  0  0  0
    1.3699    0.1130   -0.8498 C   0  0  0  0  0  0  0  0  0  0  0  0
    2.6574    0.5077   -0.5331 C   0  0  0  0  0  0  0  0  0  0  0  0
    3.7908   -0.0402   -1.2739 C   0  0  0  0  0  0  0  0  0  0  0  0
    3.6197   -0.8722   -2.2006 O   0  0  0  0  0  0  0  0  0  0  0  0
    5.1045    0.3439   -0.9753 N   0  0  0  0  0  0  0  0  0  0  0  0
    6.2461   -0.1559   -1.6621 C   0  0  0  0  0  0  0  0  0  0  0  0
    6.6991    0.4979   -2.7662 C   0  0  0  0  0  0  0  0  0  0  0  0
    7.8062    0.0130   -3.4312 C   0  0  0  0  0  0  0  0  0  0  0  0
    8.4300   -1.1233   -2.9635 C   0  0  0  0  0  0  0  0  0  0  0  0
    7.9638   -1.7746   -1.8482 C   0  0  0  0  0  0  0  0  0  0  0  0
    6.8626   -1.2753   -1.2032 C   0  0  0  0  0  0  0  0  0  0  0  0
    2.8023    1.4151    0.4854 C   0  0  0  0  0  0  0  0  0  0  0  0
    1.7054    1.9269    1.1816 C   0  0  0  0  0  0  0  0  0  0  0  0
   -2.5023    0.7589    2.2786 C   0  0  0  0  0  0  0  0  0  0  0  0
   -3.1527    0.4615    1.1308 N   0  0  0  0  0  0  0  0  0  0  0  0
   -6.3101   -2.9100    2.1734 H   0  0  0  0  0  0  0  0  0  0  0  0
   -7.9085   -2.2483    1.7636 H   0  0  0  0  0  0  0  0  0  0  0  0
   -6.6760   -1.2220    2.6525 H   0  0  0  0  0  0  0  0  0  0  0  0
   -7.1132   -0.4059   -3.3711 H   0  0  0  0  0  0  0  0  0  0  0  0
   -5.3947   -0.9033   -3.6001 H   0  0  0  0  0  0  0  0  0  0  0  0
   -6.6399   -2.1768   -3.4049 H   0  0  0  0  0  0  0  0  0  0  0  0
   -4.2867    0.0074   -1.5085 H   0  0  0  0  0  0  0  0  0  0  0  0
   -1.4626    1.0808    5.9355 H   0  0  0  0  0  0  0  0  0  0  0  0
   -0.6726    0.2450   -0.4871 H   0  0  0  0  0  0  0  0  0  0  0  0
    1.2645   -0.6111   -1.6641 H   0  0  0  0  0  0  0  0  0  0  0  0
    5.3390    1.0375   -0.2126 H   0  0  0  0  0  0  0  0  0  0  0  0
    6.1966    1.3801   -3.1107 H   0  0  0  0  0  0  0  0  0  0  0  0
    8.1748    0.5257   -4.3108 H   0  0  0  0  0  0  0  0  0  0  0  0
    9.3060   -1.5297   -3.4675 H   0  0  0  0  0  0  0  0  0  0  0  0
    8.4800   -2.6838   -1.4913 H   0  0  0  0  0  0  0  0  0  0  0  0
    6.5186   -1.8076   -0.3299 H   0  0  0  0  0  0  0  0  0  0  0  0
    3.7965    1.7536    0.7685 H   0  0  0  0  0  0  0  0  0  0  0  0
    1.9531    2.6421    1.9552 H   0  0  0  0  0  0  0  0  0  0  0  0
   -2.8440    0.7679    0.1629 H   0  0  0  0  0  0  0  0  0  0  0  0
  1  2  1  0
  2  3  2  0
  3  4  1  0
  4  5  1  0
  4  6  1  0
  6  7  2  0
  7  8  1  0
  8  9  2  0
  9 10  1  0
 10 11  2  0
 11 12  1  0
 12 13  2  0
 13 14  1  0
 13 15  1  0
 15 16  1  0
 16 17  1  0
 17 18  2  0
 18 19  1  0
 19 20  2  0
 20 21  1  0
 21 22  2  0
 21 23  1  0
 23 24  1  0
 24 25  2  0
 25 26  1  0
 26 27  2  0
 27 28  1  0
 28 29  2  0
 20 30  1  0
 30 31  2  0
 15 32  2  0
 32 33  1  0
  7  2  1  0
 33  8  1  0
 32 10  1  0
 31 17  1  0
 29 24  1  0
  1 34  1  0
  1 35  1  0
  1 36  1  0
  5 37  1  0
  5 38  1  0
  5 39  1  0
  6 40  1  0
 12 41  1  0
 18 42  1  0
 19 43  1  0
 23 44  1  0
 25 45  1  0
 26 46  1  0
 27 47  1  0
 28 48  1  0
 29 49  1  0
 30 50  1  0
 31 51  1  0
 33 52  1  0
M  END
$$$$
