@<TRIPOS>MOLECULE
*****
 63 69 0 0 0
SMALL
GASTEIGER

@<TRIPOS>ATOM
      1 N           0.8248   -3.4595    2.1889 N.pl3   1  UNL1       -0.3414
      2 C          -0.5194   -3.1025    1.8641 C.ar    1  UNL1        0.1424
      3 N          -1.5457   -3.5574    2.6419 N.ar    1  UNL1       -0.2371
      4 C          -2.7840   -3.1961    2.3495 C.ar    1  UNL1        0.0463
      5 C          -3.0041   -2.3732    1.2724 C.ar    1  UNL1        0.0297
      6 N          -2.0057   -1.9042    0.4804 N.ar    1  UNL1       -0.2982
      7 C          -0.7217   -2.2778    0.7794 C.ar    1  UNL1        0.1135
      8 C           0.1018   -1.6853   -0.1472 C.ar    1  UNL1        0.1002
      9 C           1.5786   -1.7860   -0.2138 C.ar    1  UNL1        0.0046
     10 C           2.2252   -3.0047   -0.2656 C.ar    1  UNL1       -0.0518
     11 C           3.6010   -3.0813   -0.2939 C.ar    1  UNL1       -0.0519
     12 C           4.3490   -1.9280   -0.2714 C.ar    1  UNL1        0.0005
     13 C           5.7408   -1.9724   -0.2980 C.ar    1  UNL1       -0.0505
     14 C           6.4179   -0.7682   -0.2719 C.ar    1  UNL1       -0.0351
     15 C           5.7933    0.4491   -0.2218 C.ar    1  UNL1        0.0717
     16 C           6.5369    1.7275   -0.1936 C.ar    1  UNL1        0.0004
     17 C           5.8110    2.9247   -0.1428 C.ar    1  UNL1       -0.0526
     18 C           6.4417    4.1488   -0.1128 C.ar    1  UNL1       -0.0611
     19 C           7.8380    4.2009   -0.1332 C.ar    1  UNL1       -0.0617
     20 C           8.5565    3.0425   -0.1825 C.ar    1  UNL1       -0.0611
     21 C           7.8959    1.8328   -0.2117 C.ar    1  UNL1       -0.0526
     22 N           4.4501    0.4526   -0.1974 N.ar    1  UNL1       -0.2467
     23 C           3.7328   -0.6979   -0.2211 C.ar    1  UNL1        0.0723
     24 C           2.3468   -0.6493   -0.1929 C.ar    1  UNL1       -0.0265
     25 N          -0.6816   -0.9728   -0.9753 N.ar    1  UNL1       -0.2309
     26 C          -1.9712   -1.1036   -0.5954 C.ar    1  UNL1        0.1181
     27 C          -3.0677   -0.4351   -1.2811 C.3     1  UNL1        0.0182
     28 C          -4.3266   -0.1266   -0.5065 C.3     1  UNL1       -0.0393
     29 C          -4.4241    1.1136   -1.3951 C.3     1  UNL1       -0.0270
     30 C          -5.0487    2.3137   -0.8282 C.3     1  UNL1        0.0018
     31 N          -6.3852    2.2842   -0.4067 N.3     1  UNL1       -0.3020
     32 C          -6.8034    1.5405    0.7347 C.3     1  UNL1        0.0001
     33 C          -7.7961    0.7592   -0.1293 C.3     1  UNL1       -0.0274
     34 C          -7.3648    1.6676   -1.2316 C.3     1  UNL1        0.0001
     35 C          -2.8884    1.1234   -1.2989 C.3     1  UNL1       -0.0393
     36 H           1.5112   -2.7716    2.5892 H       1  UNL1        0.1438
     37 H           1.1912   -4.4319    2.0412 H       1  UNL1        0.1438
     38 H          -3.6627   -3.5069    2.9082 H       1  UNL1        0.0845
     39 H          -4.0087   -2.0666    1.0022 H       1  UNL1        0.0829
     40 H           1.6513   -3.9276   -0.3085 H       1  UNL1        0.0624
     41 H           4.1138   -4.0365   -0.3337 H       1  UNL1        0.0624
     42 H           6.2129   -2.9314   -0.3365 H       1  UNL1        0.0625
     43 H           7.5049   -0.8018   -0.2927 H       1  UNL1        0.0639
     44 H           4.7308    2.8715   -0.1269 H       1  UNL1        0.0624
     45 H           5.9252    5.0915   -0.0735 H       1  UNL1        0.0618
     46 H           8.3499    5.1678   -0.1096 H       1  UNL1        0.0618
     47 H           9.6501    3.0592   -0.1986 H       1  UNL1        0.0618
     48 H           8.4806    0.9075   -0.2510 H       1  UNL1        0.0624
     49 H           1.8648    0.3198   -0.1526 H       1  UNL1        0.0645
     50 H          -3.3078   -0.7351   -2.3161 H       1  UNL1        0.0379
     51 H          -4.0363    0.2161    0.5153 H       1  UNL1        0.0275
     52 H          -5.1815   -0.7736   -0.6233 H       1  UNL1        0.0275
     53 H          -4.6541    0.8676   -2.4588 H       1  UNL1        0.0313
     54 H          -4.9712    3.1296   -1.6185 H       1  UNL1        0.0429
     55 H          -4.3433    2.7096   -0.0261 H       1  UNL1        0.0429
     56 H          -7.3874    2.2114    1.4482 H       1  UNL1        0.0427
     57 H          -6.0954    0.9090    1.2690 H       1  UNL1        0.0427
     58 H          -8.8365    0.9071    0.2041 H       1  UNL1        0.0290
     59 H          -7.5038   -0.2990   -0.3066 H       1  UNL1        0.0290
     60 H          -8.1608    2.3913   -1.5304 H       1  UNL1        0.0427
     61 H          -7.0108    1.1062   -2.1166 H       1  UNL1        0.0427
     62 H          -2.5562    1.4334   -0.3090 H       1  UNL1        0.0275
     63 H          -2.3735    1.4842   -2.1885 H       1  UNL1        0.0275
@<TRIPOS>BOND
     1     1     2    1
     2     2     3   ar
     3     3     4   ar
     4     4     5   ar
     5     5     6   ar
     6     6     7   ar
     7     7     8   ar
     8     8     9    1
     9     9    10   ar
    10    10    11   ar
    11    11    12   ar
    12    12    13   ar
    13    13    14   ar
    14    14    15   ar
    15    15    16    1
    16    16    17   ar
    17    17    18   ar
    18    18    19   ar
    19    19    20   ar
    20    20    21   ar
    21    15    22   ar
    22    22    23   ar
    23    23    24   ar
    24     8    25   ar
    25    25    26   ar
    26    26    27    1
    27    27    28    1
    28    28    29    1
    29    29    30    1
    30    30    31    1
    31    31    32    1
    32    32    33    1
    33    33    34    1
    34    29    35    1
    35     7     2   ar
    36    24     9   ar
    37    35    27    1
    38    26     6   ar
    39    34    31    1
    40    23    12   ar
    41    21    16   ar
    42     1    36    1
    43     1    37    1
    44     4    38    1
    45     5    39    1
    46    10    40    1
    47    11    41    1
    48    13    42    1
    49    14    43    1
    50    17    44    1
    51    18    45    1
    52    19    46    1
    53    20    47    1
    54    21    48    1
    55    24    49    1
    56    27    50    1
    57    28    51    1
    58    28    52    1
    59    29    53    1
    60    30    54    1
    61    30    55    1
    62    32    56    1
    63    32    57    1
    64    33    58    1
    65    33    59    1
    66    34    60    1
    67    34    61    1
    68    35    62    1
    69    35    63    1
