
     RDKit          3D

 63 69  0  0  0  0  0  0  0  0999 V2000
    0.8248   -3.4595    2.1889 N   0  0  0  0  0  0  0  0  0  0  0  0
   -0.5194   -3.1025    1.8641 C   0  0  0  0  0  0  0  0  0  0  0  0
   -1.5457   -3.5574    2.6419 N   0  0  0  0  0  0  0  0  0  0  0  0
   -2.7840   -3.1961    2.3495 C   0  0  0  0  0  0  0  0  0  0  0  0
   -3.0041   -2.3732    1.2724 C   0  0  0  0  0  0  0  0  0  0  0  0
   -2.0057   -1.9042    0.4804 N   0  0  0  0  0  0  0  0  0  0  0  0
   -0.7217   -2.2778    0.7794 C   0  0  0  0  0  0  0  0  0  0  0  0
    0.1018   -1.6853   -0.1472 C   0  0  0  0  0  0  0  0  0  0  0  0
    1.5786   -1.7860   -0.2138 C   0  0  0  0  0  0  0  0  0  0  0  0
    2.2252   -3.0047   -0.2656 C   0  0  0  0  0  0  0  0  0  0  0  0
    3.6010   -3.0813   -0.2939 C   0  0  0  0  0  0  0  0  0  0  0  0
    4.3490   -1.9280   -0.2714 C   0  0  0  0  0  0  0  0  0  0  0  0
    5.7408   -1.9724   -0.2980 C   0  0  0  0  0  0  0  0  0  0  0  0
    6.4179   -0.7682   -0.2719 C   0  0  0  0  0  0  0  0  0  0  0  0
    5.7933    0.4491   -0.2218 C   0  0  0  0  0  0  0  0  0  0  0  0
    6.5369    1.7275   -0.1936 C   0  0  0  0  0  0  0  0  0  0  0  0
    5.8110    2.9247   -0.1428 C   0  0  0  0  0  0  0  0  0  0  0  0
    6.4417    4.1488   -0.1128 C   0  0  0  0  0  0  0  0  0  0  0  0
    7.8380    4.2009   -0.1332 C   0  0  0  0  0  0  0  0  0  0  0  0
    8.5565    3.0425   -0.1825 C   0  0  0  0  0  0  0  0  0  0  0  0
    7.8959    1.8328   -0.2117 C   0  0  0  0  0  0  0  0  0  0  0  0
    4.4501    0.4526   -0.1974 N   0  0  0  0  0  0  0  0  0  0  0  0
    3.7328   -0.6979   -0.2211 C   0  0  0  0  0  0  0  0  0  0  0  0
    2.3468   -0.6493   -0.1929 C   0  0  0  0  0  0  0  0  0  0  0  0
   -0.6816   -0.9728   -0.9753 N   0  0  0  0  0  0  0  0  0  0  0  0
   -1.9712   -1.1036   -0.5954 C   0  0  0  0  0  0  0  0  0  0  0  0
   -3.0677   -0.4351   -1.2811 C   0  0  1  0  0  0  0  0  0  0  0  0
   -4.3266   -0.1266   -0.5065 C   0  0  0  0  0  0  0  0  0  0  0  0
   -4.4241    1.1136   -1.3951 C   0  0  1  0  0  0  0  0  0  0  0  0
   -5.0487    2.3137   -0.8282 C   0  0  0  0  0  0  0  0  0  0  0  0
   -6.3852    2.2842   -0.4067 N   0  0  0  0  0  0  0  0  0  0  0  0
   -6.8034    1.5405    0.7347 C   0  0  0  0  0  0  0  0  0  0  0  0
   -7.7961    0.7592   -0.1293 C   0  0  0  0  0  0  0  0  0  0  0  0
   -7.3648    1.6676   -1.2316 C   0  0  0  0  0  0  0  0  0  0  0  0
   -2.8884    1.1234   -1.2989 C   0  0  0  0  0  0  0  0  0  0  0  0
    1.5112   -2.7716    2.5892 H   0  0  0  0  0  0  0  0  0  0  0  0
    1.1912   -4.4319    2.0412 H   0  0  0  0  0  0  0  0  0  0  0  0
   -3.6627   -3.5069    2.9082 H   0  0  0  0  0  0  0  0  0  0  0  0
   -4.0087   -2.0666    1.0022 H   0  0  0  0  0  0  0  0  0  0  0  0
    1.6513   -3.9276   -0.3085 H   0  0  0  0  0  0  0  0  0  0  0  0
    4.1138   -4.0365   -0.3337 H   0  0  0  0  0  0  0  0  0  0  0  0
    6.2129   -2.9314   -0.3365 H   0  0  0  0  0  0  0  0  0  0  0  0
    7.5049   -0.8018   -0.2927 H   0  0  0  0  0  0  0  0  0  0  0  0
    4.7308    2.8715   -0.1269 H   0  0  0  0  0  0  0  0  0  0  0  0
    5.9252    5.0915   -0.0735 H   0  0  0  0  0  0  0  0  0  0  0  0
    8.3499    5.1678   -0.1096 H   0  0  0  0  0  0  0  0  0  0  0  0
    9.6501    3.0592   -0.1986 H   0  0  0  0  0  0  0  0  0  0  0  0
    8.4806    0.9075   -0.2510 H   0  0  0  0  0  0  0  0  0  0  0  0
    1.8648    0.3198   -0.1526 H   0  0  0  0  0  0  0  0  0  0  0  0
   -3.3078   -0.7351   -2.3161 H   0  0  0  0  0  0  0  0  0  0  0  0
   -4.0363    0.2161    0.5153 H   0  0  0  0  0  0  0  0  0  0  0  0
   -5.1815   -0.7736   -0.6233 H   0  0  0  0  0  0  0  0  0  0  0  0
   -4.6541    0.8676   -2.4588 H   0  0  0  0  0  0  0  0  0  0  0  0
   -4.9712    3.1296   -1.6185 H   0  0  0  0  0  0  0  0  0  0  0  0
   -4.3433    2.7096   -0.0261 H   0  0  0  0  0  0  0  0  0  0  0  0
   -7.3874    2.2114    1.4482 H   0  0  0  0  0  0  0  0  0  0  0  0
   -6.0954    0.9090    1.2690 H   0  0  0  0  0  0  0  0  0  0  0  0
   -8.8365    0.9071    0.2041 H   0  0  0  0  0  0  0  0  0  0  0  0
   -7.5038   -0.2990   -0.3066 H   0  0  0  0  0  0  0  0  0  0  0  0
   -8.1608    2.3913   -1.5304 H   0  0  0  0  0  0  0  0  0  0  0  0
   -7.0108    1.1062   -2.1166 H   0  0  0  0  0  0  0  0  0  0  0  0
   -2.5562    1.4334   -0.3090 H   0  0  0  0  0  0  0  0  0  0  0  0
   -2.3735    1.4842   -2.1885 H   0  0  0  0  0  0  0  0  0  0  0  0
  1  2  1  0
  2  3  2  0
  3  4  1  0
  4  5  2  0
  5  6  1  0
  6  7  1  0
  7  8  2  0
  8  9  1  0
  9 10  2  0
 10 11  1  0
 11 12  2  0
 12 13  1  0
 13 14  2  0
 14 15  1  0
 15 16  1  0
 16 17  2  0
 17 18  1  0
 18 19  2  0
 19 20  1  0
 20 21  2  0
 15 22  2  0
 22 23  1  0
 23 24  2  0
  8 25  1  0
 25 26  2  0
 26 27  1  0
 27 28  1  0
 28 29  1  0
 29 30  1  0
 30 31  1  0
 31 32  1  0
 32 33  1  0
 33 34  1  0
 29 35  1  0
  7  2  1  0
 24  9  1  0
 35 27  1  0
 26  6  1  0
 34 31  1  0
 23 12  1  0
 21 16  1  0
  1 36  1  0
  1 37  1  0
  4 38  1  0
  5 39  1  0
 10 40  1  0
 11 41  1  0
 13 42  1  0
 14 43  1  0
 17 44  1  0
 18 45  1  0
 19 46  1  0
 20 47  1  0
 21 48  1  0
 24 49  1  0
 27 50  1  6
 28 51  1  0
 28 52  1  0
 29 53  1  6
 30 54  1  0
 30 55  1  0
 32 56  1  0
 32 57  1  0
 33 58  1  0
 33 59  1  0
 34 60  1  0
 34 61  1  0
 35 62  1  0
 35 63  1  0
M  END
$$$$
