@<TRIPOS>MOLECULE
*****
 19 19 0 0 0
SMALL
GASTEIGER

@<TRIPOS>ATOM
      1 C          -4.4315    0.1972    0.2862 C.3     1  UNL1        0.0125
      2 C          -2.9844   -0.0403    0.5297 C.2     1  UNL1        0.2156
      3 O          -2.6331   -0.8246    1.4465 O.2     1  UNL1       -0.2757
      4 N          -1.9483    0.5761   -0.2240 N.am    1  UNL1       -0.2635
      5 C          -0.5899    0.3475    0.0113 C.ar    1  UNL1        0.1893
      6 N           0.1773    1.1786    0.9508 N.ar    1  UNL1       -0.1239
      7 N           1.3580    0.8722    1.0649 N.ar    1  UNL1       -0.1190
      8 C           2.0100   -0.0664    0.4815 C.ar    1  UNL1        0.2556
      9 S           3.5827   -0.6936    0.4544 S.O2    1  UNL1        0.0815
     10 N           4.5556    0.0833   -0.7362 N.3     1  UNL1       -0.2015
     11 O           4.2573   -0.4972    1.7790 O.2     1  UNL1       -0.1512
     12 O           3.5570   -2.1821    0.1915 O.2     1  UNL1       -0.1512
     13 S           0.5885   -0.7169   -0.5122 S.2     1  UNL1       -0.0105
     14 H          -4.6199    0.8463   -0.5646 H       1  UNL1        0.0323
     15 H          -4.8874   -0.8253    0.1646 H       1  UNL1        0.0323
     16 H          -4.8931    0.5968    1.2218 H       1  UNL1        0.0323
     17 H          -2.2776    1.2333   -0.9914 H       1  UNL1        0.1568
     18 H           5.2454   -0.5868   -1.1697 H       1  UNL1        0.1443
     19 H           3.9334    0.5021   -1.4820 H       1  UNL1        0.1443
@<TRIPOS>BOND
     1     1     2    1
     2     2     3    2
     3     2     4   am
     4     4     5    1
     5     5     6   ar
     6     6     7   ar
     7     7     8   ar
     8     8     9    1
     9     9    10    1
    10     9    11    2
    11     9    12    2
    12     8    13   ar
    13    13     5   ar
    14     1    14    1
    15     1    15    1
    16     1    16    1
    17     4    17    1
    18    10    18    1
    19    10    19    1
