
     RDKit          3D

 19 19  0  0  0  0  0  0  0  0999 V2000
   -4.4315    0.1972    0.2862 C   0  0  0  0  0  0  0  0  0  0  0  0
   -2.9844   -0.0403    0.5297 C   0  0  0  0  0  0  0  0  0  0  0  0
   -2.6331   -0.8246    1.4465 O   0  0  0  0  0  0  0  0  0  0  0  0
   -1.9483    0.5761   -0.2240 N   0  0  0  0  0  0  0  0  0  0  0  0
   -0.5899    0.3475    0.0113 C   0  0  0  0  0  0  0  0  0  0  0  0
    0.1773    1.1786    0.9508 N   0  0  0  0  0  0  0  0  0  0  0  0
    1.3580    0.8722    1.0649 N   0  0  0  0  0  0  0  0  0  0  0  0
    2.0100   -0.0664    0.4815 C   0  0  0  0  0  0  0  0  0  0  0  0
    3.5827   -0.6936    0.4544 S   0  0  0  0  0  6  0  0  0  0  0  0
    4.5556    0.0833   -0.7362 N   0  0  0  0  0  0  0  0  0  0  0  0
    4.2573   -0.4972    1.7790 O   0  0  0  0  0  0  0  0  0  0  0  0
    3.5570   -2.1821    0.1915 O   0  0  0  0  0  0  0  0  0  0  0  0
    0.5885   -0.7169   -0.5122 S   0  0  0  0  0  0  0  0  0  0  0  0
   -4.6199    0.8463   -0.5646 H   0  0  0  0  0  0  0  0  0  0  0  0
   -4.8874   -0.8253    0.1646 H   0  0  0  0  0  0  0  0  0  0  0  0
   -4.8931    0.5968    1.2218 H   0  0  0  0  0  0  0  0  0  0  0  0
   -2.2776    1.2333   -0.9914 H   0  0  0  0  0  0  0  0  0  0  0  0
    5.2454   -0.5868   -1.1697 H   0  0  0  0  0  0  0  0  0  0  0  0
    3.9334    0.5021   -1.4820 H   0  0  0  0  0  0  0  0  0  0  0  0
  1  2  1  0
  2  3  2  0
  2  4  1  0
  4  5  1  0
  5  6  2  0
  6  7  1  0
  7  8  2  0
  8  9  1  0
  9 10  1  0
  9 11  2  0
  9 12  2  0
  8 13  1  0
 13  5  1  0
  1 14  1  0
  1 15  1  0
  1 16  1  0
  4 17  1  0
 10 18  1  0
 10 19  1  0
M  END
$$$$
