@<TRIPOS>MOLECULE
*****
 71 75 0 0 0
SMALL
GASTEIGER

@<TRIPOS>ATOM
      1 C           1.3139    3.4761   -5.7531 C.3     1  UNL1       -0.0455
      2 C           0.7325    3.6943   -4.3624 C.3     1  UNL1        0.0387
      3 N           1.0213    2.5183   -3.5202 N.ar    1  UNL1       -0.2705
      4 C           0.2542    1.4266   -3.3768 C.ar    1  UNL1        0.0338
      5 C           0.8546    0.5423   -2.5082 C.ar    1  UNL1        0.0282
      6 C           0.3340   -0.7569   -2.0855 C.ar    1  UNL1       -0.0022
      7 C           0.9422   -1.9547   -2.3829 C.ar    1  UNL1       -0.0351
      8 C           0.3899   -3.1366   -1.9430 C.ar    1  UNL1        0.0305
      9 N          -0.7429   -3.0882   -1.2265 N.ar    1  UNL1       -0.2374
     10 C          -1.3718   -1.9415   -0.9125 C.ar    1  UNL1        0.1391
     11 N          -2.4999   -1.6697   -0.2172 N.ar    1  UNL1       -0.3391
     12 C          -2.7259   -0.3484   -0.1736 C.ar    1  UNL1        0.0486
     13 C          -3.8508    0.3004    0.4864 C.ar    1  UNL1       -0.0013
     14 C          -4.0278    1.6634    0.4989 C.ar    1  UNL1       -0.0526
     15 C          -5.1171    2.2520    1.1352 C.ar    1  UNL1       -0.0608
     16 C          -6.0515    1.4971    1.7710 C.ar    1  UNL1       -0.0573
     17 C          -5.9032    0.1198    1.7771 C.ar    1  UNL1       -0.0328
     18 C          -6.8522   -0.8154    2.4211 C.3     1  UNL1        0.0235
     19 N          -7.8285   -1.2595    1.4785 N.3     1  UNL1       -0.3042
     20 C          -8.8003   -2.1793    2.0309 C.3     1  UNL1       -0.0127
     21 C          -8.4416   -0.1952    0.7378 C.3     1  UNL1       -0.0127
     22 C          -4.8016   -0.4554    1.1326 C.ar    1  UNL1       -0.0482
     23 C          -1.6912    0.2330   -0.8738 C.ar    1  UNL1       -0.0265
     24 C          -0.8315   -0.7521   -1.3448 C.ar    1  UNL1        0.0271
     25 C           2.0366    1.1330   -2.1140 C.ar    1  UNL1        0.1004
     26 C           3.0463    0.5981   -1.2015 C.ar    1  UNL1        0.0028
     27 C           3.9104   -0.3798   -1.6324 C.ar    1  UNL1       -0.0507
     28 C           4.8603   -0.8685   -0.7289 C.ar    1  UNL1       -0.0398
     29 C           4.9703   -0.4167    0.5692 C.ar    1  UNL1        0.0348
     30 N           5.9550   -0.9337    1.4606 N.am    1  UNL1       -0.2693
     31 C           7.2531   -0.3887    1.6081 C.2     1  UNL1        0.3060
     32 O           7.5316    0.6132    0.9002 O.2     1  UNL1       -0.2523
     33 N           8.2300   -0.9214    2.5073 N.am    1  UNL1       -0.2915
     34 C           7.9658   -2.0625    3.3335 C.3     1  UNL1        0.0043
     35 C           9.5309   -0.2848    2.5876 C.3     1  UNL1        0.0043
     36 C           4.0912    0.5656    0.9780 C.ar    1  UNL1       -0.0398
     37 C           3.1319    1.0695    0.0901 C.ar    1  UNL1       -0.0507
     38 N           2.0796    2.3283   -2.7615 N.ar    1  UNL1       -0.1706
     39 H           0.7074    2.7598   -6.3501 H       1  UNL1        0.0247
     40 H           1.3098    4.4531   -6.2762 H       1  UNL1        0.0247
     41 H           2.3264    3.0422   -5.6977 H       1  UNL1        0.0247
     42 H          -0.3574    3.7587   -4.4740 H       1  UNL1        0.0506
     43 H           1.2025    4.6016   -3.9311 H       1  UNL1        0.0506
     44 H          -0.6834    1.2727   -3.8678 H       1  UNL1        0.0832
     45 H           1.8477   -1.9702   -2.9620 H       1  UNL1        0.0639
     46 H           0.8647   -4.1071   -2.1725 H       1  UNL1        0.0830
     47 H          -3.0822   -2.4169    0.2090 H       1  UNL1        0.1673
     48 H          -3.2961    2.2794   -0.0010 H       1  UNL1        0.0624
     49 H          -5.2367    3.3321    1.1326 H       1  UNL1        0.0618
     50 H          -6.9195    1.8997    2.2831 H       1  UNL1        0.0621
     51 H          -6.3340   -1.6658    2.9133 H       1  UNL1        0.0475
     52 H          -7.3128   -0.2413    3.2769 H       1  UNL1        0.0475
     53 H          -9.5002   -1.6579    2.7283 H       1  UNL1        0.0391
     54 H          -9.3466   -2.6557    1.1915 H       1  UNL1        0.0391
     55 H          -8.2278   -2.9967    2.5597 H       1  UNL1        0.0391
     56 H          -9.0856   -0.6336   -0.0819 H       1  UNL1        0.0391
     57 H          -7.6433    0.4196    0.2783 H       1  UNL1        0.0391
     58 H          -9.0647    0.4014    1.4273 H       1  UNL1        0.0391
     59 H          -4.6684   -1.5312    1.1265 H       1  UNL1        0.0627
     60 H          -1.5539    1.2911   -1.0400 H       1  UNL1        0.0645
     61 H           3.8592   -0.7576   -2.6450 H       1  UNL1        0.0625
     62 H           5.5398   -1.6418   -1.0778 H       1  UNL1        0.0636
     63 H           5.6964   -1.7593    2.0315 H       1  UNL1        0.1564
     64 H           8.3241   -2.9834    2.8369 H       1  UNL1        0.0429
     65 H           6.9035   -2.1821    3.6170 H       1  UNL1        0.0429
     66 H           8.5776   -1.9639    4.2593 H       1  UNL1        0.0429
     67 H          10.1739   -0.6833    1.7775 H       1  UNL1        0.0429
     68 H           9.4346    0.8179    2.4504 H       1  UNL1        0.0429
     69 H           9.9968   -0.4423    3.5883 H       1  UNL1        0.0429
     70 H           4.1866    0.9087    1.9889 H       1  UNL1        0.0636
     71 H           2.4633    1.8300    0.4316 H       1  UNL1        0.0625
@<TRIPOS>BOND
     1     1     2    1
     2     2     3    1
     3     3     4   ar
     4     4     5   ar
     5     5     6    1
     6     6     7   ar
     7     7     8   ar
     8     8     9   ar
     9     9    10   ar
    10    10    11   ar
    11    11    12   ar
    12    12    13    1
    13    13    14   ar
    14    14    15   ar
    15    15    16   ar
    16    16    17   ar
    17    17    18    1
    18    18    19    1
    19    19    20    1
    20    19    21    1
    21    17    22   ar
    22    12    23   ar
    23    23    24   ar
    24     5    25   ar
    25    25    26    1
    26    26    27   ar
    27    27    28   ar
    28    28    29   ar
    29    29    30    1
    30    30    31   am
    31    31    32    2
    32    31    33   am
    33    33    34    1
    34    33    35    1
    35    29    36   ar
    36    36    37   ar
    37    25    38   ar
    38    38     3   ar
    39    24     6   ar
    40    37    26   ar
    41    24    10   ar
    42    22    13   ar
    43     1    39    1
    44     1    40    1
    45     1    41    1
    46     2    42    1
    47     2    43    1
    48     4    44    1
    49     7    45    1
    50     8    46    1
    51    11    47    1
    52    14    48    1
    53    15    49    1
    54    16    50    1
    55    18    51    1
    56    18    52    1
    57    20    53    1
    58    20    54    1
    59    20    55    1
    60    21    56    1
    61    21    57    1
    62    21    58    1
    63    22    59    1
    64    23    60    1
    65    27    61    1
    66    28    62    1
    67    30    63    1
    68    34    64    1
    69    34    65    1
    70    34    66    1
    71    35    67    1
    72    35    68    1
    73    35    69    1
    74    36    70    1
    75    37    71    1
