
     RDKit          3D

 71 75  0  0  0  0  0  0  0  0999 V2000
    1.3139    3.4761   -5.7531 C   0  0  0  0  0  0  0  0  0  0  0  0
    0.7325    3.6943   -4.3624 C   0  0  0  0  0  0  0  0  0  0  0  0
    1.0213    2.5183   -3.5202 N   0  0  0  0  0  0  0  0  0  0  0  0
    0.2542    1.4266   -3.3768 C   0  0  0  0  0  0  0  0  0  0  0  0
    0.8546    0.5423   -2.5082 C   0  0  0  0  0  0  0  0  0  0  0  0
    0.3340   -0.7569   -2.0855 C   0  0  0  0  0  0  0  0  0  0  0  0
    0.9422   -1.9547   -2.3829 C   0  0  0  0  0  0  0  0  0  0  0  0
    0.3899   -3.1366   -1.9430 C   0  0  0  0  0  0  0  0  0  0  0  0
   -0.7429   -3.0882   -1.2265 N   0  0  0  0  0  0  0  0  0  0  0  0
   -1.3718   -1.9415   -0.9125 C   0  0  0  0  0  0  0  0  0  0  0  0
   -2.4999   -1.6697   -0.2172 N   0  0  0  0  0  0  0  0  0  0  0  0
   -2.7259   -0.3484   -0.1736 C   0  0  0  0  0  0  0  0  0  0  0  0
   -3.8508    0.3004    0.4864 C   0  0  0  0  0  0  0  0  0  0  0  0
   -4.0278    1.6634    0.4989 C   0  0  0  0  0  0  0  0  0  0  0  0
   -5.1171    2.2520    1.1352 C   0  0  0  0  0  0  0  0  0  0  0  0
   -6.0515    1.4971    1.7710 C   0  0  0  0  0  0  0  0  0  0  0  0
   -5.9032    0.1198    1.7771 C   0  0  0  0  0  0  0  0  0  0  0  0
   -6.8522   -0.8154    2.4211 C   0  0  0  0  0  0  0  0  0  0  0  0
   -7.8285   -1.2595    1.4785 N   0  0  0  0  0  0  0  0  0  0  0  0
   -8.8003   -2.1793    2.0309 C   0  0  0  0  0  0  0  0  0  0  0  0
   -8.4416   -0.1952    0.7378 C   0  0  0  0  0  0  0  0  0  0  0  0
   -4.8016   -0.4554    1.1326 C   0  0  0  0  0  0  0  0  0  0  0  0
   -1.6912    0.2330   -0.8738 C   0  0  0  0  0  0  0  0  0  0  0  0
   -0.8315   -0.7521   -1.3448 C   0  0  0  0  0  0  0  0  0  0  0  0
    2.0366    1.1330   -2.1140 C   0  0  0  0  0  0  0  0  0  0  0  0
    3.0463    0.5981   -1.2015 C   0  0  0  0  0  0  0  0  0  0  0  0
    3.9104   -0.3798   -1.6324 C   0  0  0  0  0  0  0  0  0  0  0  0
    4.8603   -0.8685   -0.7289 C   0  0  0  0  0  0  0  0  0  0  0  0
    4.9703   -0.4167    0.5692 C   0  0  0  0  0  0  0  0  0  0  0  0
    5.9550   -0.9337    1.4606 N   0  0  0  0  0  0  0  0  0  0  0  0
    7.2531   -0.3887    1.6081 C   0  0  0  0  0  0  0  0  0  0  0  0
    7.5316    0.6132    0.9002 O   0  0  0  0  0  0  0  0  0  0  0  0
    8.2300   -0.9214    2.5073 N   0  0  0  0  0  0  0  0  0  0  0  0
    7.9658   -2.0625    3.3335 C   0  0  0  0  0  0  0  0  0  0  0  0
    9.5309   -0.2848    2.5876 C   0  0  0  0  0  0  0  0  0  0  0  0
    4.0912    0.5656    0.9780 C   0  0  0  0  0  0  0  0  0  0  0  0
    3.1319    1.0695    0.0901 C   0  0  0  0  0  0  0  0  0  0  0  0
    2.0796    2.3283   -2.7615 N   0  0  0  0  0  0  0  0  0  0  0  0
    0.7074    2.7598   -6.3501 H   0  0  0  0  0  0  0  0  0  0  0  0
    1.3098    4.4531   -6.2762 H   0  0  0  0  0  0  0  0  0  0  0  0
    2.3264    3.0422   -5.6977 H   0  0  0  0  0  0  0  0  0  0  0  0
   -0.3574    3.7587   -4.4740 H   0  0  0  0  0  0  0  0  0  0  0  0
    1.2025    4.6016   -3.9311 H   0  0  0  0  0  0  0  0  0  0  0  0
   -0.6834    1.2727   -3.8678 H   0  0  0  0  0  0  0  0  0  0  0  0
    1.8477   -1.9702   -2.9620 H   0  0  0  0  0  0  0  0  0  0  0  0
    0.8647   -4.1071   -2.1725 H   0  0  0  0  0  0  0  0  0  0  0  0
   -3.0822   -2.4169    0.2090 H   0  0  0  0  0  0  0  0  0  0  0  0
   -3.2961    2.2794   -0.0010 H   0  0  0  0  0  0  0  0  0  0  0  0
   -5.2367    3.3321    1.1326 H   0  0  0  0  0  0  0  0  0  0  0  0
   -6.9195    1.8997    2.2831 H   0  0  0  0  0  0  0  0  0  0  0  0
   -6.3340   -1.6658    2.9133 H   0  0  0  0  0  0  0  0  0  0  0  0
   -7.3128   -0.2413    3.2769 H   0  0  0  0  0  0  0  0  0  0  0  0
   -9.5002   -1.6579    2.7283 H   0  0  0  0  0  0  0  0  0  0  0  0
   -9.3466   -2.6557    1.1915 H   0  0  0  0  0  0  0  0  0  0  0  0
   -8.2278   -2.9967    2.5597 H   0  0  0  0  0  0  0  0  0  0  0  0
   -9.0856   -0.6336   -0.0819 H   0  0  0  0  0  0  0  0  0  0  0  0
   -7.6433    0.4196    0.2783 H   0  0  0  0  0  0  0  0  0  0  0  0
   -9.0647    0.4014    1.4273 H   0  0  0  0  0  0  0  0  0  0  0  0
   -4.6684   -1.5312    1.1265 H   0  0  0  0  0  0  0  0  0  0  0  0
   -1.5539    1.2911   -1.0400 H   0  0  0  0  0  0  0  0  0  0  0  0
    3.8592   -0.7576   -2.6450 H   0  0  0  0  0  0  0  0  0  0  0  0
    5.5398   -1.6418   -1.0778 H   0  0  0  0  0  0  0  0  0  0  0  0
    5.6964   -1.7593    2.0315 H   0  0  0  0  0  0  0  0  0  0  0  0
    8.3241   -2.9834    2.8369 H   0  0  0  0  0  0  0  0  0  0  0  0
    6.9035   -2.1821    3.6170 H   0  0  0  0  0  0  0  0  0  0  0  0
    8.5776   -1.9639    4.2593 H   0  0  0  0  0  0  0  0  0  0  0  0
   10.1739   -0.6833    1.7775 H   0  0  0  0  0  0  0  0  0  0  0  0
    9.4346    0.8179    2.4504 H   0  0  0  0  0  0  0  0  0  0  0  0
    9.9968   -0.4423    3.5883 H   0  0  0  0  0  0  0  0  0  0  0  0
    4.1866    0.9087    1.9889 H   0  0  0  0  0  0  0  0  0  0  0  0
    2.4633    1.8300    0.4316 H   0  0  0  0  0  0  0  0  0  0  0  0
  1  2  1  0
  2  3  1  0
  3  4  1  0
  4  5  2  0
  5  6  1  0
  6  7  2  0
  7  8  1  0
  8  9  2  0
  9 10  1  0
 10 11  1  0
 11 12  1  0
 12 13  1  0
 13 14  2  0
 14 15  1  0
 15 16  2  0
 16 17  1  0
 17 18  1  0
 18 19  1  0
 19 20  1  0
 19 21  1  0
 17 22  2  0
 12 23  2  0
 23 24  1  0
  5 25  1  0
 25 26  1  0
 26 27  2  0
 27 28  1  0
 28 29  2  0
 29 30  1  0
 30 31  1  0
 31 32  2  0
 31 33  1  0
 33 34  1  0
 33 35  1  0
 29 36  1  0
 36 37  2  0
 25 38  2  0
 38  3  1  0
 24  6  1  0
 37 26  1  0
 24 10  2  0
 22 13  1  0
  1 39  1  0
  1 40  1  0
  1 41  1  0
  2 42  1  0
  2 43  1  0
  4 44  1  0
  7 45  1  0
  8 46  1  0
 11 47  1  0
 14 48  1  0
 15 49  1  0
 16 50  1  0
 18 51  1  0
 18 52  1  0
 20 53  1  0
 20 54  1  0
 20 55  1  0
 21 56  1  0
 21 57  1  0
 21 58  1  0
 22 59  1  0
 23 60  1  0
 27 61  1  0
 28 62  1  0
 30 63  1  0
 34 64  1  0
 34 65  1  0
 34 66  1  0
 35 67  1  0
 35 68  1  0
 35 69  1  0
 36 70  1  0
 37 71  1  0
M  END
$$$$
