@<TRIPOS>MOLECULE
*****
 51 53 0 0 0
SMALL
GASTEIGER

@<TRIPOS>ATOM
      1 O           6.8217    1.3281    0.7286 O.2     1  UNL1       -0.2737
      2 C           7.4425    0.2698    0.5459 C.2     1  UNL1        0.2354
      3 C           6.8942   -1.0320    0.9232 C.3     1  UNL1        0.0259
      4 C           5.5090   -0.9838    1.5047 C.3     1  UNL1       -0.0444
      5 C           4.4751   -0.4234    0.5712 C.3     1  UNL1       -0.0471
      6 C           3.1008   -0.4058    1.2188 C.3     1  UNL1       -0.0087
      7 C           2.1165    0.1560    0.2573 C.ar    1  UNL1        0.0630
      8 C           1.7559    1.4930    0.1040 C.ar    1  UNL1       -0.0210
      9 C           0.8154    1.5275   -0.9029 C.ar    1  UNL1        0.0261
     10 N           0.6124    0.2847   -1.3404 N.ar    1  UNL1       -0.2668
     11 C          -0.2966   -0.1728   -2.4001 C.3     1  UNL1        0.0665
     12 C          -1.6324   -0.5018   -1.8426 C.ar    1  UNL1       -0.0260
     13 C          -1.9738   -1.7424   -1.3851 C.ar    1  UNL1       -0.0551
     14 C          -3.2322   -1.9817   -0.8788 C.ar    1  UNL1       -0.0402
     15 C          -4.2205   -0.9895   -0.8024 C.ar    1  UNL1        0.0313
     16 N          -5.5055   -1.2929   -0.2936 N.pl3   1  UNL1       -0.3145
     17 C          -6.3135   -0.3119    0.3238 C.ar    1  UNL1        0.0313
     18 C          -5.7709    0.7752    0.9692 C.ar    1  UNL1       -0.0405
     19 C          -6.5867    1.7401    1.5567 C.ar    1  UNL1       -0.0600
     20 C          -7.9619    1.6437    1.5153 C.ar    1  UNL1       -0.0616
     21 C          -8.5177    0.5663    0.8768 C.ar    1  UNL1       -0.0600
     22 C          -7.6955   -0.3750    0.3029 C.ar    1  UNL1       -0.0405
     23 C          -3.8474    0.2535   -1.2723 C.ar    1  UNL1       -0.0402
     24 C          -2.5729    0.4981   -1.7854 C.ar    1  UNL1       -0.0551
     25 N           1.3904   -0.5066   -0.6415 N.ar    1  UNL1       -0.1759
     26 N           8.7342    0.3524   -0.0549 N.am    1  UNL1       -0.1975
     27 O           9.2240    1.5581   -0.3962 O.3     1  UNL1       -0.2952
     28 H           7.5543   -1.4573    1.7190 H       1  UNL1        0.0359
     29 H           6.9288   -1.7811    0.0991 H       1  UNL1        0.0359
     30 H           5.1603   -1.9970    1.8297 H       1  UNL1        0.0270
     31 H           5.5168   -0.3204    2.4079 H       1  UNL1        0.0270
     32 H           4.7046    0.5855    0.2367 H       1  UNL1        0.0269
     33 H           4.4597   -1.0790   -0.3287 H       1  UNL1        0.0269
     34 H           2.8479   -1.4733    1.4437 H       1  UNL1        0.0329
     35 H           3.0874    0.1930    2.1418 H       1  UNL1        0.0329
     36 H           2.1647    2.3033    0.6870 H       1  UNL1        0.0651
     37 H           0.3378    2.4265   -1.2593 H       1  UNL1        0.0826
     38 H          -0.4190    0.6315   -3.1529 H       1  UNL1        0.0558
     39 H           0.1268   -1.0420   -2.9455 H       1  UNL1        0.0558
     40 H          -1.2202   -2.5241   -1.4365 H       1  UNL1        0.0621
     41 H          -3.4970   -2.9724   -0.5162 H       1  UNL1        0.0636
     42 H          -5.8831   -2.2612   -0.3672 H       1  UNL1        0.1522
     43 H          -4.7107    0.9005    1.0482 H       1  UNL1        0.0636
     44 H          -6.1119    2.5753    2.0513 H       1  UNL1        0.0618
     45 H          -8.5428    2.4308    1.9936 H       1  UNL1        0.0618
     46 H          -9.5906    0.4762    0.8358 H       1  UNL1        0.0618
     47 H          -8.1321   -1.2365   -0.2078 H       1  UNL1        0.0636
     48 H          -4.5578    1.0682   -1.2613 H       1  UNL1        0.0636
     49 H          -2.3271    1.5006   -2.1445 H       1  UNL1        0.0621
     50 H           9.3252   -0.4836   -0.2455 H       1  UNL1        0.1822
     51 H          10.0135    1.8095    0.1524 H       1  UNL1        0.2414
@<TRIPOS>BOND
     1     1     2    2
     2     2     3    1
     3     3     4    1
     4     4     5    1
     5     5     6    1
     6     6     7    1
     7     7     8   ar
     8     8     9   ar
     9     9    10   ar
    10    10    11    1
    11    11    12    1
    12    12    13   ar
    13    13    14   ar
    14    14    15   ar
    15    15    16    1
    16    16    17    1
    17    17    18   ar
    18    18    19   ar
    19    19    20   ar
    20    20    21   ar
    21    21    22   ar
    22    15    23   ar
    23    23    24   ar
    24    10    25   ar
    25     2    26   am
    26    26    27    1
    27    25     7   ar
    28    24    12   ar
    29    22    17   ar
    30     3    28    1
    31     3    29    1
    32     4    30    1
    33     4    31    1
    34     5    32    1
    35     5    33    1
    36     6    34    1
    37     6    35    1
    38     8    36    1
    39     9    37    1
    40    11    38    1
    41    11    39    1
    42    13    40    1
    43    14    41    1
    44    16    42    1
    45    18    43    1
    46    19    44    1
    47    20    45    1
    48    21    46    1
    49    22    47    1
    50    23    48    1
    51    24    49    1
    52    26    50    1
    53    27    51    1
