
     RDKit          3D

 60 64  0  0  0  0  0  0  0  0999 V2000
   -4.2808   -3.6068   -1.0394 C   0  0  0  0  0  0  0  0  0  0  0  0
   -2.9767   -3.5295   -0.3463 C   0  0  0  0  0  0  0  0  0  0  0  0
   -2.4669   -2.4066    0.1013 C   0  0  0  0  0  0  0  0  0  0  0  0
   -3.2223   -1.1634   -0.0817 C   0  0  0  0  0  0  0  0  0  0  0  0
   -4.3191   -1.1535   -0.6517 O   0  0  0  0  0  0  0  0  0  0  0  0
   -2.7223    0.1054    0.3958 N   0  0  0  0  0  0  0  0  0  0  0  0
   -3.4650    1.3020    0.2089 C   0  0  0  0  0  0  0  0  0  0  0  0
   -3.3292    2.1128   -0.8967 C   0  0  0  0  0  0  0  0  0  0  0  0
   -4.0673    3.2702   -1.0499 C   0  0  0  0  0  0  0  0  0  0  0  0
   -4.9745    3.6371   -0.0691 C   0  0  0  0  0  0  0  0  0  0  0  0
   -5.8254    4.6549    0.1047 N   0  0  0  0  0  0  0  0  0  0  0  0
   -6.4835    4.5258    1.2537 N   0  0  0  0  0  0  0  0  0  0  0  0
   -6.0695    3.4005    1.8670 C   0  0  0  0  0  0  0  0  0  0  0  0
   -5.1191    2.8307    1.0452 C   0  0  0  0  0  0  0  0  0  0  0  0
   -4.3708    1.6751    1.1809 C   0  0  0  0  0  0  0  0  0  0  0  0
   -1.1443   -2.2968    0.7334 C   0  0  0  0  0  0  0  0  0  0  0  0
   -0.1389   -1.6204   -0.1420 C   0  0  0  0  0  0  0  0  0  0  0  0
   -0.4557   -1.0881   -1.3703 C   0  0  0  0  0  0  0  0  0  0  0  0
    0.4562   -0.4658   -2.1681 C   0  0  0  0  0  0  0  0  0  0  0  0
    1.7753   -0.3432   -1.7594 C   0  0  0  0  0  0  0  0  0  0  0  0
    2.6653    0.3043   -2.5866 F   0  0  0  0  0  0  0  0  0  0  0  0
    2.1448   -0.8538   -0.5506 C   0  0  0  0  0  0  0  0  0  0  0  0
    3.5117   -0.7802   -0.0679 C   0  0  0  0  0  0  0  0  0  0  0  0
    3.6806   -1.0782    1.1696 O   0  0  0  0  0  0  0  0  0  0  0  0
    4.6470   -0.4306   -0.7802 N   0  0  0  0  0  0  0  0  0  0  0  0
    6.0079   -0.3573   -0.2661 C   0  0  0  0  0  0  0  0  0  0  0  0
    6.1444    0.9075    0.4919 C   0  0  0  0  0  0  0  0  0  0  0  0
    5.9652    0.9642    1.8546 C   0  0  0  0  0  0  0  0  0  0  0  0
    6.0785    2.1504    2.5846 C   0  0  0  0  0  0  0  0  0  0  0  0
    6.3822    3.3003    1.9021 C   0  0  0  0  0  0  0  0  0  0  0  0
    6.5700    3.2823    0.5316 C   0  0  0  0  0  0  0  0  0  0  0  0
    6.4505    2.0982   -0.1539 C   0  0  0  0  0  0  0  0  0  0  0  0
    1.1692   -1.4915    0.2478 C   0  0  0  0  0  0  0  0  0  0  0  0
   -0.5872   -3.5888    1.0941 N   0  0  0  0  0  0  0  0  0  0  0  0
   -1.1103   -4.7965    0.6131 C   0  0  0  0  0  0  0  0  0  0  0  0
   -0.5024   -5.8940    0.8302 O   0  0  0  0  0  0  0  0  0  0  0  0
   -2.3077   -4.7807   -0.1081 N   0  0  0  0  0  0  0  0  0  0  0  0
   -4.5207   -4.6530   -1.3353 H   0  0  0  0  0  0  0  0  0  0  0  0
   -5.1173   -3.2948   -0.3722 H   0  0  0  0  0  0  0  0  0  0  0  0
   -4.2546   -3.0331   -1.9817 H   0  0  0  0  0  0  0  0  0  0  0  0
   -1.8011    0.0659    0.8788 H   0  0  0  0  0  0  0  0  0  0  0  0
   -2.6357    1.8347   -1.6488 H   0  0  0  0  0  0  0  0  0  0  0  0
   -3.9476    3.8944   -1.9244 H   0  0  0  0  0  0  0  0  0  0  0  0
   -5.9626    5.4435   -0.5589 H   0  0  0  0  0  0  0  0  0  0  0  0
   -6.4222    3.0164    2.8314 H   0  0  0  0  0  0  0  0  0  0  0  0
   -4.5349    1.0903    2.0794 H   0  0  0  0  0  0  0  0  0  0  0  0
   -1.2740   -1.7420    1.7006 H   0  0  0  0  0  0  0  0  0  0  0  0
   -1.4683   -1.1525   -1.7563 H   0  0  0  0  0  0  0  0  0  0  0  0
    0.2037   -0.0396   -3.1502 H   0  0  0  0  0  0  0  0  0  0  0  0
    4.5557   -0.1983   -1.7928 H   0  0  0  0  0  0  0  0  0  0  0  0
    6.2042   -1.1841    0.4495 H   0  0  0  0  0  0  0  0  0  0  0  0
    6.7453   -0.4388   -1.0605 H   0  0  0  0  0  0  0  0  0  0  0  0
    5.7334    0.0862    2.4499 H   0  0  0  0  0  0  0  0  0  0  0  0
    5.9286    2.1595    3.6710 H   0  0  0  0  0  0  0  0  0  0  0  0
    6.4795    4.2453    2.4330 H   0  0  0  0  0  0  0  0  0  0  0  0
    6.8086    4.2124    0.0299 H   0  0  0  0  0  0  0  0  0  0  0  0
    6.5934    2.0514   -1.2396 H   0  0  0  0  0  0  0  0  0  0  0  0
    1.4573   -1.8960    1.2027 H   0  0  0  0  0  0  0  0  0  0  0  0
    0.2355   -3.5822    1.7395 H   0  0  0  0  0  0  0  0  0  0  0  0
   -2.7164   -5.6816   -0.4745 H   0  0  0  0  0  0  0  0  0  0  0  0
  1  2  1  0
  2  3  2  0
  3  4  1  0
  4  5  2  0
  4  6  1  0
  6  7  1  0
  7  8  2  0
  8  9  1  0
  9 10  2  0
 10 11  1  0
 11 12  1  0
 12 13  2  0
 13 14  1  0
 14 15  2  0
  3 16  1  0
 16 17  1  0
 17 18  2  0
 18 19  1  0
 19 20  2  0
 20 21  1  0
 20 22  1  0
 22 23  1  0
 23 24  2  0
 23 25  1  0
 25 26  1  0
 26 27  1  0
 27 28  2  0
 28 29  1  0
 29 30  2  0
 30 31  1  0
 31 32  2  0
 22 33  2  0
 16 34  1  0
 34 35  1  0
 35 36  2  0
 35 37  1  0
 37  2  1  0
 15  7  1  0
 33 17  1  0
 14 10  1  0
 32 27  1  0
  1 38  1  0
  1 39  1  0
  1 40  1  0
  6 41  1  0
  8 42  1  0
  9 43  1  0
 11 44  1  0
 13 45  1  0
 15 46  1  0
 16 47  1  0
 18 48  1  0
 19 49  1  0
 25 50  1  0
 26 51  1  0
 26 52  1  0
 28 53  1  0
 29 54  1  0
 30 55  1  0
 31 56  1  0
 32 57  1  0
 33 58  1  0
 34 59  1  0
 37 60  1  0
M  END
$$$$
