@<TRIPOS>MOLECULE
*****
 60 64 0 0 0
SMALL
GASTEIGER

@<TRIPOS>ATOM
      1 C          -4.2808   -3.6068   -1.0394 C.3     1  UNL1       -0.0259
      2 C          -2.9767   -3.5295   -0.3463 C.2     1  UNL1        0.0191
      3 C          -2.4669   -2.4066    0.1013 C.2     1  UNL1        0.0559
      4 C          -3.2223   -1.1634   -0.0817 C.2     1  UNL1        0.2478
      5 O          -4.3191   -1.1535   -0.6517 O.2     1  UNL1       -0.2701
      6 N          -2.7223    0.1054    0.3958 N.am    1  UNL1       -0.2816
      7 C          -3.4650    1.3020    0.2089 C.ar    1  UNL1        0.0344
      8 C          -3.3292    2.1128   -0.8967 C.ar    1  UNL1       -0.0384
      9 C          -4.0673    3.2702   -1.0499 C.ar    1  UNL1       -0.0345
     10 C          -4.9745    3.6371   -0.0691 C.ar    1  UNL1        0.0658
     11 N          -5.8254    4.6549    0.1047 N.ar    1  UNL1       -0.2770
     12 N          -6.4835    4.5258    1.2537 N.ar    1  UNL1       -0.1812
     13 C          -6.0695    3.4005    1.8670 C.ar    1  UNL1        0.0569
     14 C          -5.1191    2.8307    1.0452 C.ar    1  UNL1        0.0212
     15 C          -4.3708    1.6751    1.1809 C.ar    1  UNL1       -0.0298
     16 C          -1.1443   -2.2968    0.7334 C.3     1  UNL1        0.0815
     17 C          -0.1389   -1.6204   -0.1420 C.ar    1  UNL1       -0.0217
     18 C          -0.4557   -1.0881   -1.3703 C.ar    1  UNL1       -0.0537
     19 C           0.4562   -0.4658   -2.1681 C.ar    1  UNL1       -0.0254
     20 C           1.7753   -0.3432   -1.7594 C.ar    1  UNL1        0.1355
     21 F           2.6653    0.3043   -2.5866 F       1  UNL1       -0.2047
     22 C           2.1448   -0.8538   -0.5506 C.ar    1  UNL1        0.0721
     23 C           3.5117   -0.7802   -0.0679 C.2     1  UNL1        0.2471
     24 O           3.6806   -1.0782    1.1696 O.2     1  UNL1       -0.2701
     25 N           4.6470   -0.4306   -0.7802 N.am    1  UNL1       -0.3072
     26 C           6.0079   -0.3573   -0.2661 C.3     1  UNL1        0.0371
     27 C           6.1444    0.9075    0.4919 C.ar    1  UNL1       -0.0303
     28 C           5.9652    0.9642    1.8546 C.ar    1  UNL1       -0.0571
     29 C           6.0785    2.1504    2.5846 C.ar    1  UNL1       -0.0615
     30 C           6.3822    3.3003    1.9021 C.ar    1  UNL1       -0.0617
     31 C           6.5700    3.2823    0.5316 C.ar    1  UNL1       -0.0615
     32 C           6.4505    2.0982   -0.1539 C.ar    1  UNL1       -0.0571
     33 C           1.1692   -1.4915    0.2478 C.ar    1  UNL1       -0.0416
     34 N          -0.5872   -3.5888    1.0941 N.am    1  UNL1       -0.2881
     35 C          -1.1103   -4.7965    0.6131 C.2     1  UNL1        0.3043
     36 O          -0.5024   -5.8940    0.8302 O.2     1  UNL1       -0.2525
     37 N          -2.3077   -4.7807   -0.1081 N.am    1  UNL1       -0.2729
     38 H          -4.5207   -4.6530   -1.3353 H       1  UNL1        0.0290
     39 H          -5.1173   -3.2948   -0.3722 H       1  UNL1        0.0290
     40 H          -4.2546   -3.0331   -1.9817 H       1  UNL1        0.0290
     41 H          -1.8011    0.0659    0.8788 H       1  UNL1        0.1551
     42 H          -2.6357    1.8347   -1.6488 H       1  UNL1        0.0637
     43 H          -3.9476    3.8944   -1.9244 H       1  UNL1        0.0639
     44 H          -5.9626    5.4435   -0.5589 H       1  UNL1        0.1889
     45 H          -6.4222    3.0164    2.8314 H       1  UNL1        0.0854
     46 H          -4.5349    1.0903    2.0794 H       1  UNL1        0.0643
     47 H          -1.2740   -1.7420    1.7006 H       1  UNL1        0.0601
     48 H          -1.4683   -1.1525   -1.7563 H       1  UNL1        0.0622
     49 H           0.2037   -0.0396   -3.1502 H       1  UNL1        0.0646
     50 H           4.5557   -0.1983   -1.7928 H       1  UNL1        0.1493
     51 H           6.2042   -1.1841    0.4495 H       1  UNL1        0.0512
     52 H           6.7453   -0.4388   -1.0605 H       1  UNL1        0.0512
     53 H           5.7334    0.0862    2.4499 H       1  UNL1        0.0621
     54 H           5.9286    2.1595    3.6710 H       1  UNL1        0.0618
     55 H           6.4795    4.2453    2.4330 H       1  UNL1        0.0618
     56 H           6.8086    4.2124    0.0299 H       1  UNL1        0.0618
     57 H           6.5934    2.0514   -1.2396 H       1  UNL1        0.0621
     58 H           1.4573   -1.8960    1.2027 H       1  UNL1        0.0629
     59 H           0.2355   -3.5822    1.7395 H       1  UNL1        0.1512
     60 H          -2.7164   -5.6816   -0.4745 H       1  UNL1        0.1561
@<TRIPOS>BOND
     1     1     2    1
     2     2     3    2
     3     3     4    1
     4     4     5    2
     5     4     6   am
     6     6     7    1
     7     7     8   ar
     8     8     9   ar
     9     9    10   ar
    10    10    11   ar
    11    11    12   ar
    12    12    13   ar
    13    13    14   ar
    14    14    15   ar
    15     3    16    1
    16    16    17    1
    17    17    18   ar
    18    18    19   ar
    19    19    20   ar
    20    20    21    1
    21    20    22   ar
    22    22    23    1
    23    23    24    2
    24    23    25   am
    25    25    26    1
    26    26    27    1
    27    27    28   ar
    28    28    29   ar
    29    29    30   ar
    30    30    31   ar
    31    31    32   ar
    32    22    33   ar
    33    16    34    1
    34    34    35   am
    35    35    36    2
    36    35    37   am
    37    37     2    1
    38    15     7   ar
    39    33    17   ar
    40    14    10   ar
    41    32    27   ar
    42     1    38    1
    43     1    39    1
    44     1    40    1
    45     6    41    1
    46     8    42    1
    47     9    43    1
    48    11    44    1
    49    13    45    1
    50    15    46    1
    51    16    47    1
    52    18    48    1
    53    19    49    1
    54    25    50    1
    55    26    51    1
    56    26    52    1
    57    28    53    1
    58    29    54    1
    59    30    55    1
    60    31    56    1
    61    32    57    1
    62    33    58    1
    63    34    59    1
    64    37    60    1
