
     RDKit          3D

 50 52  0  0  0  0  0  0  0  0999 V2000
    0.9411    1.9341   -0.5603 C   0  0  0  0  0  0  0  0  0  0  0  0
    1.5130    1.5378    0.7475 C   0  0  0  0  0  0  0  0  0  0  0  0
    1.1546    0.2013    1.2787 C   0  0  2  0  0  0  0  0  0  0  0  0
    1.5430   -0.9689    0.4159 C   0  0  0  0  0  0  0  0  0  0  0  0
    3.0099   -1.0401    0.1971 C   0  0  0  0  0  0  0  0  0  0  0  0
    3.5825   -0.4066   -0.8809 C   0  0  0  0  0  0  0  0  0  0  0  0
    4.9636   -0.5106   -1.0282 C   0  0  0  0  0  0  0  0  0  0  0  0
    5.7639   -1.2104   -0.1521 C   0  0  0  0  0  0  0  0  0  0  0  0
    7.2478   -1.3026   -0.3399 C   0  0  0  0  0  0  0  0  0  0  0  0
    7.6809   -2.5960   -0.0197 F   0  0  0  0  0  0  0  0  0  0  0  0
    7.6235   -0.9677   -1.6045 F   0  0  0  0  0  0  0  0  0  0  0  0
    7.8681   -0.4357    0.5456 F   0  0  0  0  0  0  0  0  0  0  0  0
    5.1464   -1.8284    0.9124 C   0  0  0  0  0  0  0  0  0  0  0  0
    3.7898   -1.7606    1.1087 C   0  0  0  0  0  0  0  0  0  0  0  0
   -0.2701    0.1619    1.6652 C   0  0  0  0  0  0  0  0  0  0  0  0
   -0.6411   -0.0009    2.8663 O   0  0  0  0  0  0  0  0  0  0  0  0
   -1.3110    0.3028    0.7125 N   0  0  0  0  0  0  0  0  0  0  0  0
   -2.7126    0.2567    1.1632 C   0  0  0  0  0  0  0  0  0  0  0  0
   -3.6508    0.4256   -0.0016 C   0  0  1  0  0  0  0  0  0  0  0  0
   -5.0589    0.3693    0.5248 C   0  0  0  0  0  0  0  0  0  0  0  0
   -6.2188    0.5076   -0.3983 C   0  0  0  0  0  0  0  0  0  0  0  0
   -5.9136   -0.8375    0.2764 C   0  0  0  0  0  0  0  0  0  0  0  0
   -3.3879    1.6385   -0.7433 N   0  0  0  0  0  0  0  0  0  0  0  0
   -3.3157    1.3323   -2.1282 C   0  0  0  0  0  0  0  0  0  0  0  0
   -3.2670    2.1416   -3.1066 O   0  0  0  0  0  0  0  0  0  0  0  0
   -3.3052   -0.0616   -2.2700 N   0  0  0  0  0  0  0  0  0  0  0  0
   -3.3705   -0.6482   -0.9800 C   0  0  0  0  0  0  0  0  0  0  0  0
   -3.2262   -1.8575   -0.6501 O   0  0  0  0  0  0  0  0  0  0  0  0
    0.8651    1.1569   -1.3295 H   0  0  0  0  0  0  0  0  0  0  0  0
    0.0042    2.5135   -0.3982 H   0  0  0  0  0  0  0  0  0  0  0  0
    1.6365    2.7061   -1.0197 H   0  0  0  0  0  0  0  0  0  0  0  0
    1.1382    2.2821    1.5162 H   0  0  0  0  0  0  0  0  0  0  0  0
    2.6104    1.7304    0.7286 H   0  0  0  0  0  0  0  0  0  0  0  0
    1.7317    0.0943    2.2477 H   0  0  0  0  0  0  0  0  0  0  0  0
    1.2424   -1.8867    0.9616 H   0  0  0  0  0  0  0  0  0  0  0  0
    1.0576   -0.9815   -0.5574 H   0  0  0  0  0  0  0  0  0  0  0  0
    3.0034    0.1609   -1.6096 H   0  0  0  0  0  0  0  0  0  0  0  0
    5.4106   -0.0005   -1.8931 H   0  0  0  0  0  0  0  0  0  0  0  0
    5.7576   -2.3930    1.6268 H   0  0  0  0  0  0  0  0  0  0  0  0
    3.3001   -2.2542    1.9582 H   0  0  0  0  0  0  0  0  0  0  0  0
   -1.1261    0.4311   -0.2902 H   0  0  0  0  0  0  0  0  0  0  0  0
   -2.9188   -0.6931    1.6596 H   0  0  0  0  0  0  0  0  0  0  0  0
   -2.8382    1.0910    1.8871 H   0  0  0  0  0  0  0  0  0  0  0  0
   -5.2113    0.8476    1.5228 H   0  0  0  0  0  0  0  0  0  0  0  0
   -5.9643    0.6029   -1.4640 H   0  0  0  0  0  0  0  0  0  0  0  0
   -7.1220    1.0498   -0.0737 H   0  0  0  0  0  0  0  0  0  0  0  0
   -5.5840   -1.6401   -0.4015 H   0  0  0  0  0  0  0  0  0  0  0  0
   -6.6476   -1.1620    1.0566 H   0  0  0  0  0  0  0  0  0  0  0  0
   -3.2662    2.6032   -0.3411 H   0  0  0  0  0  0  0  0  0  0  0  0
   -3.2581   -0.6349   -3.1575 H   0  0  0  0  0  0  0  0  0  0  0  0
  1  2  1  0
  2  3  1  0
  3  4  1  0
  4  5  1  0
  5  6  2  0
  6  7  1  0
  7  8  2  0
  8  9  1  0
  9 10  1  0
  9 11  1  0
  9 12  1  0
  8 13  1  0
 13 14  2  0
  3 15  1  0
 15 16  2  0
 15 17  1  0
 17 18  1  0
 19 18  1  1
 19 20  1  0
 20 21  1  0
 21 22  1  0
 19 23  1  0
 23 24  1  0
 24 25  2  0
 24 26  1  0
 26 27  1  0
 27 28  2  0
 14  5  1  0
 27 19  1  0
 22 20  1  0
  1 29  1  0
  1 30  1  0
  1 31  1  0
  2 32  1  0
  2 33  1  0
  3 34  1  1
  4 35  1  0
  4 36  1  0
  6 37  1  0
  7 38  1  0
 13 39  1  0
 14 40  1  0
 17 41  1  0
 18 42  1  0
 18 43  1  0
 20 44  1  0
 21 45  1  0
 21 46  1  0
 22 47  1  0
 22 48  1  0
 23 49  1  0
 26 50  1  0
M  END
$$$$
