@<TRIPOS>MOLECULE
*****
 50 52 0 0 0
SMALL
GASTEIGER

@<TRIPOS>ATOM
      1 C           0.9411    1.9341   -0.5603 C.3     1  UNL1       -0.0646
      2 C           1.5130    1.5378    0.7475 C.3     1  UNL1       -0.0445
      3 C           1.1546    0.2013    1.2787 C.3     1  UNL1        0.0393
      4 C           1.5430   -0.9689    0.4159 C.3     1  UNL1       -0.0166
      5 C           3.0099   -1.0401    0.1971 C.ar    1  UNL1       -0.0466
      6 C           3.5825   -0.4066   -0.8809 C.ar    1  UNL1       -0.0580
      7 C           4.9636   -0.5106   -1.0282 C.ar    1  UNL1       -0.0499
      8 C           5.7639   -1.2104   -0.1521 C.ar    1  UNL1        0.0548
      9 C           7.2478   -1.3026   -0.3399 C.3     1  UNL1        0.4174
     10 F           7.6809   -2.5960   -0.0197 F       1  UNL1       -0.1659
     11 F           7.6235   -0.9677   -1.6045 F       1  UNL1       -0.1659
     12 F           7.8681   -0.4357    0.5456 F       1  UNL1       -0.1659
     13 C           5.1464   -1.8284    0.9124 C.ar    1  UNL1       -0.0499
     14 C           3.7898   -1.7606    1.1087 C.ar    1  UNL1       -0.0580
     15 C          -0.2701    0.1619    1.6652 C.2     1  UNL1        0.2165
     16 O          -0.6411   -0.0009    2.8663 O.2     1  UNL1       -0.2755
     17 N          -1.3110    0.3028    0.7125 N.am    1  UNL1       -0.3125
     18 C          -2.7126    0.2567    1.1632 C.3     1  UNL1        0.0418
     19 C          -3.6508    0.4256   -0.0016 C.3     1  UNL1        0.1305
     20 C          -5.0589    0.3693    0.5248 C.3     1  UNL1       -0.0096
     21 C          -6.2188    0.5076   -0.3983 C.3     1  UNL1       -0.0474
     22 C          -5.9136   -0.8375    0.2764 C.3     1  UNL1       -0.0474
     23 N          -3.3879    1.6385   -0.7433 N.am    1  UNL1       -0.2834
     24 C          -3.3157    1.3323   -2.1282 C.2     1  UNL1        0.3068
     25 O          -3.2670    2.1416   -3.1066 O.2     1  UNL1       -0.2524
     26 N          -3.3052   -0.0616   -2.2700 N.am    1  UNL1       -0.2383
     27 C          -3.3705   -0.6482   -0.9800 C.2     1  UNL1        0.2457
     28 O          -3.2262   -1.8575   -0.6501 O.2     1  UNL1       -0.2729
     29 H           0.8651    1.1569   -1.3295 H       1  UNL1        0.0230
     30 H           0.0042    2.5135   -0.3982 H       1  UNL1        0.0230
     31 H           1.6365    2.7061   -1.0197 H       1  UNL1        0.0230
     32 H           1.1382    2.2821    1.5162 H       1  UNL1        0.0270
     33 H           2.6104    1.7304    0.7286 H       1  UNL1        0.0270
     34 H           1.7317    0.0943    2.2477 H       1  UNL1        0.0397
     35 H           1.2424   -1.8867    0.9616 H       1  UNL1        0.0320
     36 H           1.0576   -0.9815   -0.5574 H       1  UNL1        0.0320
     37 H           3.0034    0.1609   -1.6096 H       1  UNL1        0.0620
     38 H           5.4106   -0.0005   -1.8931 H       1  UNL1        0.0623
     39 H           5.7576   -2.3930    1.6268 H       1  UNL1        0.0623
     40 H           3.3001   -2.2542    1.9582 H       1  UNL1        0.0620
     41 H          -1.1261    0.4311   -0.2902 H       1  UNL1        0.1488
     42 H          -2.9188   -0.6931    1.6596 H       1  UNL1        0.0488
     43 H          -2.8382    1.0910    1.8871 H       1  UNL1        0.0488
     44 H          -5.2113    0.8476    1.5228 H       1  UNL1        0.0327
     45 H          -5.9643    0.6029   -1.4640 H       1  UNL1        0.0269
     46 H          -7.1220    1.0498   -0.0737 H       1  UNL1        0.0269
     47 H          -5.5840   -1.6401   -0.4015 H       1  UNL1        0.0269
     48 H          -6.6476   -1.1620    1.0566 H       1  UNL1        0.0269
     49 H          -3.2662    2.6032   -0.3411 H       1  UNL1        0.1513
     50 H          -3.2581   -0.6349   -3.1575 H       1  UNL1        0.1591
@<TRIPOS>BOND
     1     1     2    1
     2     2     3    1
     3     3     4    1
     4     4     5    1
     5     5     6   ar
     6     6     7   ar
     7     7     8   ar
     8     8     9    1
     9     9    10    1
    10     9    11    1
    11     9    12    1
    12     8    13   ar
    13    13    14   ar
    14     3    15    1
    15    15    16    2
    16    15    17   am
    17    17    18    1
    18    19    18    1
    19    19    20    1
    20    20    21    1
    21    21    22    1
    22    19    23    1
    23    23    24   am
    24    24    25    2
    25    24    26   am
    26    26    27   am
    27    27    28    2
    28    14     5   ar
    29    27    19    1
    30    22    20    1
    31     1    29    1
    32     1    30    1
    33     1    31    1
    34     2    32    1
    35     2    33    1
    36     3    34    1
    37     4    35    1
    38     4    36    1
    39     6    37    1
    40     7    38    1
    41    13    39    1
    42    14    40    1
    43    17    41    1
    44    18    42    1
    45    18    43    1
    46    20    44    1
    47    21    45    1
    48    21    46    1
    49    22    47    1
    50    22    48    1
    51    23    49    1
    52    26    50    1
