@<TRIPOS>MOLECULE
*****
 52 57 0 0 0
SMALL
GASTEIGER

@<TRIPOS>ATOM
      1 C           3.2964    3.2255   -1.1820 C.3     1  UNL1       -0.0361
      2 C           3.1487    1.8286   -0.6383 C.ar    1  UNL1       -0.0041
      3 C           1.9237    1.3736   -0.1982 C.ar    1  UNL1       -0.0324
      4 C           1.7359    0.1020    0.3083 C.ar    1  UNL1        0.0545
      5 N           0.4530   -0.3663    0.7514 N.am    1  UNL1       -0.2531
      6 C           0.2432   -1.6208    1.3533 C.2     1  UNL1        0.2700
      7 O           1.0731   -2.5586    1.6411 O.2     1  UNL1       -0.2679
      8 C          -1.1868   -1.7435    1.6444 C.ar    1  UNL1        0.1291
      9 C          -1.8098   -0.6014    1.2292 C.ar    1  UNL1        0.0310
     10 C          -3.1751   -0.7391    1.5216 C.ar    1  UNL1        0.0721
     11 C          -4.2797    0.1892    1.2517 C.3     1  UNL1        0.0035
     12 C          -5.4290   -0.4509    0.4576 C.3     1  UNL1       -0.0441
     13 C          -4.6191    0.5785   -0.1916 C.3     1  UNL1       -0.0441
     14 N          -3.2957   -1.9662    2.1020 N.ar    1  UNL1       -0.1751
     15 N          -2.1312   -2.5614    2.1766 N.ar    1  UNL1       -0.2617
     16 C          -1.8536   -3.8838    2.7326 C.3     1  UNL1        0.0310
     17 C          -0.8009    0.2910    0.6754 C.3     1  UNL1        0.0854
     18 C          -1.1149    0.8924   -0.6284 C.ar    1  UNL1       -0.0221
     19 C          -0.8699    0.2321   -1.8174 C.ar    1  UNL1       -0.0551
     20 C          -1.1902    0.8403   -3.0266 C.ar    1  UNL1       -0.0431
     21 C          -1.7511    2.0954   -3.0835 C.ar    1  UNL1        0.0410
     22 CL         -2.1497    2.8499   -4.6121 Cl      1  UNL1       -0.0835
     23 C          -2.0022    2.7678   -1.9097 C.ar    1  UNL1       -0.0431
     24 C          -1.6777    2.1481   -0.7251 C.ar    1  UNL1       -0.0551
     25 C           2.8522   -0.6928    0.3494 C.ar    1  UNL1        0.0344
     26 N           4.0823   -0.2663   -0.0813 N.ar    1  UNL1       -0.2846
     27 C           5.2997   -0.8629   -0.1352 C.ar    1  UNL1        0.1347
     28 C           5.5758   -2.2448    0.3082 C.3     1  UNL1       -0.0041
     29 N           6.1523    0.0437   -0.6570 N.ar    1  UNL1       -0.1340
     30 N           5.5052    1.1638   -0.9219 N.ar    1  UNL1       -0.1292
     31 C           4.2215    0.9730   -0.5653 C.ar    1  UNL1        0.1641
     32 H           2.3379    3.5374   -1.6881 H       1  UNL1        0.0279
     33 H           3.5965    3.9366   -0.4062 H       1  UNL1        0.0279
     34 H           4.0604    3.2337   -1.9873 H       1  UNL1        0.0279
     35 H           1.0937    2.0377   -0.2487 H       1  UNL1        0.0640
     36 H          -4.6139    0.8895    2.0447 H       1  UNL1        0.0365
     37 H          -5.3173   -1.4824    0.1069 H       1  UNL1        0.0272
     38 H          -6.4585   -0.1881    0.7721 H       1  UNL1        0.0272
     39 H          -3.8697    0.3186   -0.9403 H       1  UNL1        0.0272
     40 H          -4.9933    1.6372   -0.3035 H       1  UNL1        0.0272
     41 H          -1.8421   -4.6633    1.9450 H       1  UNL1        0.0473
     42 H          -0.9051   -3.8581    3.3102 H       1  UNL1        0.0473
     43 H          -2.6649   -4.1106    3.4692 H       1  UNL1        0.0473
     44 H          -0.7103    1.1707    1.4002 H       1  UNL1        0.0606
     45 H          -0.4351   -0.7431   -1.8004 H       1  UNL1        0.0621
     46 H          -1.0046    0.3354   -3.9775 H       1  UNL1        0.0632
     47 H          -2.4522    3.7780   -1.9208 H       1  UNL1        0.0632
     48 H          -1.8680    2.6630    0.2216 H       1  UNL1        0.0621
     49 H           2.8529   -1.7022    0.7150 H       1  UNL1        0.0833
     50 H           5.5654   -2.3275    1.4105 H       1  UNL1        0.0308
     51 H           4.8385   -2.9569   -0.1199 H       1  UNL1        0.0308
     52 H           6.5635   -2.5418   -0.1317 H       1  UNL1        0.0308
@<TRIPOS>BOND
     1     1     2    1
     2     2     3   ar
     3     3     4   ar
     4     4     5    1
     5     5     6   am
     6     6     7    2
     7     6     8    1
     8     8     9   ar
     9     9    10   ar
    10    10    11    1
    11    11    12    1
    12    12    13    1
    13    10    14   ar
    14    14    15   ar
    15    15    16    1
    16     9    17    1
    17    17    18    1
    18    18    19   ar
    19    19    20   ar
    20    20    21   ar
    21    21    22    1
    22    21    23   ar
    23    23    24   ar
    24     4    25   ar
    25    25    26   ar
    26    26    27   ar
    27    27    28    1
    28    27    29   ar
    29    29    30   ar
    30    30    31   ar
    31    31     2   ar
    32    17     5    1
    33    24    18   ar
    34    31    26   ar
    35    15     8   ar
    36    13    11    1
    37     1    32    1
    38     1    33    1
    39     1    34    1
    40     3    35    1
    41    11    36    1
    42    12    37    1
    43    12    38    1
    44    13    39    1
    45    13    40    1
    46    16    41    1
    47    16    42    1
    48    16    43    1
    49    17    44    1
    50    19    45    1
    51    20    46    1
    52    23    47    1
    53    24    48    1
    54    25    49    1
    55    28    50    1
    56    28    51    1
    57    28    52    1
