@<TRIPOS>MOLECULE
*****
 48 51 0 0 0
SMALL
GASTEIGER

@<TRIPOS>ATOM
      1 C           8.1965    0.2042    1.4757 C.3     1  UNL1        0.0788
      2 O           7.0953   -0.4763    0.9526 O.3     1  UNL1       -0.4951
      3 C           5.8434    0.1072    0.9140 C.ar    1  UNL1        0.1209
      4 C           5.6959    1.3828    1.4040 C.ar    1  UNL1       -0.0172
      5 C           4.4455    1.9676    1.3663 C.ar    1  UNL1       -0.0223
      6 C           3.3878    1.2611    0.8423 C.ar    1  UNL1        0.1342
      7 F           2.1745    1.8611    0.8191 F       1  UNL1       -0.2047
      8 C           3.4983   -0.0218    0.3411 C.ar    1  UNL1        0.0559
      9 C           2.3638   -0.7467   -0.2076 C.ar    1  UNL1        0.1434
     10 N           1.0930   -0.3243   -0.3164 N.ar    1  UNL1       -0.2241
     11 C           0.3359   -1.2947   -0.8819 C.ar    1  UNL1        0.1305
     12 C          -1.0293   -1.3189   -1.1947 C.ar    1  UNL1        0.0766
     13 N          -1.8559   -0.2043   -0.9225 N.pl3   1  UNL1       -0.3407
     14 C          -3.2520   -0.0830   -1.1796 C.3     1  UNL1        0.0121
     15 C          -3.7966    1.2708   -0.7603 C.3     1  UNL1       -0.0232
     16 C          -3.5810    1.4792    0.7158 C.3     1  UNL1       -0.0361
     17 C          -4.3085    0.4321    1.5317 C.3     1  UNL1       -0.0038
     18 N          -5.7064    0.5037    1.2339 N.3     1  UNL1       -0.3160
     19 C          -6.0356    0.3580   -0.1479 C.3     1  UNL1       -0.0038
     20 C          -5.2790    1.2668   -1.0681 C.3     1  UNL1       -0.0361
     21 C          -1.4839   -2.4840   -1.7729 C.ar    1  UNL1        0.0820
     22 CL         -3.1728   -2.6606   -2.2216 Cl      1  UNL1       -0.0800
     23 C          -0.5873   -3.5206   -1.9988 C.ar    1  UNL1        0.0501
     24 N           0.7095   -3.4631   -1.6875 N.ar    1  UNL1       -0.2343
     25 C           1.1753   -2.3549   -1.1301 C.ar    1  UNL1        0.1600
     26 N           2.4206   -1.9906   -0.7046 N.ar    1  UNL1       -0.3227
     27 C           4.7570   -0.5822    0.3906 C.ar    1  UNL1       -0.0066
     28 H           9.1082   -0.4351    1.3345 H       1  UNL1        0.0660
     29 H           8.3951    1.1730    0.9950 H       1  UNL1        0.0660
     30 H           8.1122    0.4084    2.5703 H       1  UNL1        0.0660
     31 H           6.5291    1.9448    1.8191 H       1  UNL1        0.0655
     32 H           4.3523    2.9737    1.7580 H       1  UNL1        0.0647
     33 H          -1.3607    0.6282   -0.4753 H       1  UNL1        0.1462
     34 H          -3.8905   -0.8264   -0.6737 H       1  UNL1        0.0464
     35 H          -3.4404   -0.1604   -2.2661 H       1  UNL1        0.0464
     36 H          -3.3182    2.0998   -1.3055 H       1  UNL1        0.0317
     37 H          -2.5148    1.5158    0.9516 H       1  UNL1        0.0281
     38 H          -4.0155    2.4603    1.0111 H       1  UNL1        0.0281
     39 H          -4.1718    0.7042    2.5945 H       1  UNL1        0.0424
     40 H          -3.9072   -0.5762    1.3869 H       1  UNL1        0.0424
     41 H          -6.1329    1.3370    1.6526 H       1  UNL1        0.1219
     42 H          -5.9165   -0.6933   -0.4802 H       1  UNL1        0.0424
     43 H          -7.1205    0.5874   -0.2607 H       1  UNL1        0.0424
     44 H          -5.6971    2.2954   -1.1003 H       1  UNL1        0.0281
     45 H          -5.3725    0.8369   -2.1075 H       1  UNL1        0.0281
     46 H          -0.9427   -4.4503   -2.4585 H       1  UNL1        0.0846
     47 H           3.2916   -2.5631   -0.7460 H       1  UNL1        0.1688
     48 H           4.9090   -1.5988    0.0077 H       1  UNL1        0.0662
@<TRIPOS>BOND
     1     1     2    1
     2     2     3    1
     3     3     4   ar
     4     4     5   ar
     5     5     6   ar
     6     6     7    1
     7     6     8   ar
     8     8     9    1
     9     9    10   ar
    10    10    11   ar
    11    11    12   ar
    12    12    13    1
    13    13    14    1
    14    14    15    1
    15    15    16    1
    16    16    17    1
    17    17    18    1
    18    18    19    1
    19    19    20    1
    20    12    21   ar
    21    21    22    1
    22    21    23   ar
    23    23    24   ar
    24    24    25   ar
    25    25    26   ar
    26     8    27   ar
    27    27     3   ar
    28    26     9   ar
    29    25    11   ar
    30    20    15    1
    31     1    28    1
    32     1    29    1
    33     1    30    1
    34     4    31    1
    35     5    32    1
    36    13    33    1
    37    14    34    1
    38    14    35    1
    39    15    36    1
    40    16    37    1
    41    16    38    1
    42    17    39    1
    43    17    40    1
    44    18    41    1
    45    19    42    1
    46    19    43    1
    47    20    44    1
    48    20    45    1
    49    23    46    1
    50    26    47    1
    51    27    48    1
