
     RDKit          3D

 48 51  0  0  0  0  0  0  0  0999 V2000
    8.1965    0.2042    1.4757 C   0  0  0  0  0  0  0  0  0  0  0  0
    7.0953   -0.4763    0.9526 O   0  0  0  0  0  0  0  0  0  0  0  0
    5.8434    0.1072    0.9140 C   0  0  0  0  0  0  0  0  0  0  0  0
    5.6959    1.3828    1.4040 C   0  0  0  0  0  0  0  0  0  0  0  0
    4.4455    1.9676    1.3663 C   0  0  0  0  0  0  0  0  0  0  0  0
    3.3878    1.2611    0.8423 C   0  0  0  0  0  0  0  0  0  0  0  0
    2.1745    1.8611    0.8191 F   0  0  0  0  0  0  0  0  0  0  0  0
    3.4983   -0.0218    0.3411 C   0  0  0  0  0  0  0  0  0  0  0  0
    2.3638   -0.7467   -0.2076 C   0  0  0  0  0  0  0  0  0  0  0  0
    1.0930   -0.3243   -0.3164 N   0  0  0  0  0  0  0  0  0  0  0  0
    0.3359   -1.2947   -0.8819 C   0  0  0  0  0  0  0  0  0  0  0  0
   -1.0293   -1.3189   -1.1947 C   0  0  0  0  0  0  0  0  0  0  0  0
   -1.8559   -0.2043   -0.9225 N   0  0  0  0  0  0  0  0  0  0  0  0
   -3.2520   -0.0830   -1.1796 C   0  0  0  0  0  0  0  0  0  0  0  0
   -3.7966    1.2708   -0.7603 C   0  0  0  0  0  0  0  0  0  0  0  0
   -3.5810    1.4792    0.7158 C   0  0  0  0  0  0  0  0  0  0  0  0
   -4.3085    0.4321    1.5317 C   0  0  0  0  0  0  0  0  0  0  0  0
   -5.7064    0.5037    1.2339 N   0  0  0  0  0  0  0  0  0  0  0  0
   -6.0356    0.3580   -0.1479 C   0  0  0  0  0  0  0  0  0  0  0  0
   -5.2790    1.2668   -1.0681 C   0  0  0  0  0  0  0  0  0  0  0  0
   -1.4839   -2.4840   -1.7729 C   0  0  0  0  0  0  0  0  0  0  0  0
   -3.1728   -2.6606   -2.2216 Cl  0  0  0  0  0  0  0  0  0  0  0  0
   -0.5873   -3.5206   -1.9988 C   0  0  0  0  0  0  0  0  0  0  0  0
    0.7095   -3.4631   -1.6875 N   0  0  0  0  0  0  0  0  0  0  0  0
    1.1753   -2.3549   -1.1301 C   0  0  0  0  0  0  0  0  0  0  0  0
    2.4206   -1.9906   -0.7046 N   0  0  0  0  0  0  0  0  0  0  0  0
    4.7570   -0.5822    0.3906 C   0  0  0  0  0  0  0  0  0  0  0  0
    9.1082   -0.4351    1.3345 H   0  0  0  0  0  0  0  0  0  0  0  0
    8.3951    1.1730    0.9950 H   0  0  0  0  0  0  0  0  0  0  0  0
    8.1122    0.4084    2.5703 H   0  0  0  0  0  0  0  0  0  0  0  0
    6.5291    1.9448    1.8191 H   0  0  0  0  0  0  0  0  0  0  0  0
    4.3523    2.9737    1.7580 H   0  0  0  0  0  0  0  0  0  0  0  0
   -1.3607    0.6282   -0.4753 H   0  0  0  0  0  0  0  0  0  0  0  0
   -3.8905   -0.8264   -0.6737 H   0  0  0  0  0  0  0  0  0  0  0  0
   -3.4404   -0.1604   -2.2661 H   0  0  0  0  0  0  0  0  0  0  0  0
   -3.3182    2.0998   -1.3055 H   0  0  0  0  0  0  0  0  0  0  0  0
   -2.5148    1.5158    0.9516 H   0  0  0  0  0  0  0  0  0  0  0  0
   -4.0155    2.4603    1.0111 H   0  0  0  0  0  0  0  0  0  0  0  0
   -4.1718    0.7042    2.5945 H   0  0  0  0  0  0  0  0  0  0  0  0
   -3.9072   -0.5762    1.3869 H   0  0  0  0  0  0  0  0  0  0  0  0
   -6.1329    1.3370    1.6526 H   0  0  0  0  0  0  0  0  0  0  0  0
   -5.9165   -0.6933   -0.4802 H   0  0  0  0  0  0  0  0  0  0  0  0
   -7.1205    0.5874   -0.2607 H   0  0  0  0  0  0  0  0  0  0  0  0
   -5.6971    2.2954   -1.1003 H   0  0  0  0  0  0  0  0  0  0  0  0
   -5.3725    0.8369   -2.1075 H   0  0  0  0  0  0  0  0  0  0  0  0
   -0.9427   -4.4503   -2.4585 H   0  0  0  0  0  0  0  0  0  0  0  0
    3.2916   -2.5631   -0.7460 H   0  0  0  0  0  0  0  0  0  0  0  0
    4.9090   -1.5988    0.0077 H   0  0  0  0  0  0  0  0  0  0  0  0
  1  2  1  0
  2  3  1  0
  3  4  2  0
  4  5  1  0
  5  6  2  0
  6  7  1  0
  6  8  1  0
  8  9  1  0
  9 10  2  0
 10 11  1  0
 11 12  2  0
 12 13  1  0
 13 14  1  0
 14 15  1  0
 15 16  1  0
 16 17  1  0
 17 18  1  0
 18 19  1  0
 19 20  1  0
 12 21  1  0
 21 22  1  0
 21 23  2  0
 23 24  1  0
 24 25  2  0
 25 26  1  0
  8 27  2  0
 27  3  1  0
 26  9  1  0
 25 11  1  0
 20 15  1  0
  1 28  1  0
  1 29  1  0
  1 30  1  0
  4 31  1  0
  5 32  1  0
 13 33  1  0
 14 34  1  0
 14 35  1  0
 15 36  1  0
 16 37  1  0
 16 38  1  0
 17 39  1  0
 17 40  1  0
 18 41  1  0
 19 42  1  0
 19 43  1  0
 20 44  1  0
 20 45  1  0
 23 46  1  0
 26 47  1  0
 27 48  1  0
M  END
$$$$
