@<TRIPOS>MOLECULE
*****
 51 53 0 0 0
SMALL
GASTEIGER

@<TRIPOS>ATOM
      1 C           2.2340   -0.3182    0.6770 C.3     1  UNL1        0.0865
      2 N           2.3216   -0.0067    2.1049 N.3     1  UNL1       -0.3197
      3 C           3.4914    0.3178    0.0773 C.3     1  UNL1       -0.0039
      4 C           4.7324   -0.2142    0.6433 C.ar    1  UNL1       -0.0454
      5 C           5.3905    0.2939    1.7429 C.ar    1  UNL1       -0.0585
      6 C           6.5575   -0.1939    2.2878 C.ar    1  UNL1       -0.0615
      7 C           7.1073   -1.2991    1.6590 C.ar    1  UNL1       -0.0617
      8 C           6.5340   -1.8885    0.5526 C.ar    1  UNL1       -0.0615
      9 C           5.3589   -1.3159    0.0865 C.ar    1  UNL1       -0.0585
     10 C           1.0320    0.2398    0.0725 C.2     1  UNL1        0.2333
     11 O           0.7962    0.7452    1.1925 O.2     1  UNL1       -0.2739
     12 N           0.3694    0.2579   -1.1638 N.am    1  UNL1       -0.2886
     13 C           0.8620   -0.4203   -2.3554 C.3     1  UNL1        0.0156
     14 C          -0.1727   -0.1218   -3.4294 C.3     1  UNL1       -0.0350
     15 C          -1.4113    0.0697   -2.5834 C.3     1  UNL1       -0.0243
     16 C          -0.8697    0.9285   -1.4524 C.3     1  UNL1        0.1022
     17 C          -1.8033    0.9393   -0.2992 C.2     1  UNL1        0.2338
     18 O          -1.7570    0.4554    0.8690 O.2     1  UNL1       -0.2738
     19 N          -3.0381    1.6293   -0.4876 N.am    1  UNL1       -0.3097
     20 C          -4.0840    1.7570    0.5036 C.3     1  UNL1        0.0370
     21 C          -4.9107    0.5491    0.6720 C.ar    1  UNL1       -0.0276
     22 C          -4.7600   -0.4839    1.5401 C.ar    1  UNL1       -0.0569
     23 C          -5.6168   -1.5636    1.5805 C.ar    1  UNL1       -0.0587
     24 C          -6.6932   -1.6552    0.7263 C.ar    1  UNL1       -0.0264
     25 C          -6.9063   -0.6417   -0.1809 C.ar    1  UNL1        0.1237
     26 F          -7.9408   -0.6662   -1.0467 F       1  UNL1       -0.2055
     27 C          -6.0153    0.4237   -0.1819 C.ar    1  UNL1       -0.0218
     28 H           2.3671   -1.4006    0.5897 H       1  UNL1        0.0558
     29 H           1.4765   -0.3231    2.6340 H       1  UNL1        0.1189
     30 H           3.1750   -0.4966    2.4544 H       1  UNL1        0.1189
     31 H           3.4755    1.4155    0.3310 H       1  UNL1        0.0333
     32 H           3.4127    0.2351   -1.0055 H       1  UNL1        0.0333
     33 H           4.9482    1.1668    2.2326 H       1  UNL1        0.0620
     34 H           7.0157    0.2630    3.1577 H       1  UNL1        0.0618
     35 H           8.0283   -1.6707    2.1020 H       1  UNL1        0.0618
     36 H           6.9845   -2.7429    0.0894 H       1  UNL1        0.0618
     37 H           4.9135   -1.7864   -0.7858 H       1  UNL1        0.0620
     38 H           0.9368   -1.5050   -2.2547 H       1  UNL1        0.0465
     39 H           1.8088    0.0500   -2.7476 H       1  UNL1        0.0465
     40 H          -0.2742   -0.9693   -4.1328 H       1  UNL1        0.0281
     41 H           0.0378    0.8449   -3.9311 H       1  UNL1        0.0281
     42 H          -2.2258    0.5569   -3.1130 H       1  UNL1        0.0288
     43 H          -1.6885   -0.9294   -2.1820 H       1  UNL1        0.0288
     44 H          -0.6373    1.9193   -1.8409 H       1  UNL1        0.0597
     45 H          -3.2089    2.0828   -1.4218 H       1  UNL1        0.1491
     46 H          -3.6534    2.0895    1.4783 H       1  UNL1        0.0512
     47 H          -4.7470    2.5884    0.1935 H       1  UNL1        0.0512
     48 H          -3.9400   -0.4349    2.2128 H       1  UNL1        0.0621
     49 H          -5.4180   -2.3464    2.3102 H       1  UNL1        0.0619
     50 H          -7.3750   -2.4873    0.7392 H       1  UNL1        0.0646
     51 H          -6.2204    1.2049   -0.9164 H       1  UNL1        0.0649
@<TRIPOS>BOND
     1     1     2    1
     2     1     3    1
     3     3     4    1
     4     4     5   ar
     5     5     6   ar
     6     6     7   ar
     7     7     8   ar
     8     8     9   ar
     9     1    10    1
    10    10    11    2
    11    10    12   am
    12    12    13    1
    13    13    14    1
    14    14    15    1
    15    15    16    1
    16    16    17    1
    17    17    18    2
    18    17    19   am
    19    19    20    1
    20    20    21    1
    21    21    22   ar
    22    22    23   ar
    23    23    24   ar
    24    24    25   ar
    25    25    26    1
    26    25    27   ar
    27     9     4   ar
    28    16    12    1
    29    27    21   ar
    30     1    28    1
    31     2    29    1
    32     2    30    1
    33     3    31    1
    34     3    32    1
    35     5    33    1
    36     6    34    1
    37     7    35    1
    38     8    36    1
    39     9    37    1
    40    13    38    1
    41    13    39    1
    42    14    40    1
    43    14    41    1
    44    15    42    1
    45    15    43    1
    46    16    44    1
    47    19    45    1
    48    20    46    1
    49    20    47    1
    50    22    48    1
    51    23    49    1
    52    24    50    1
    53    27    51    1
