
     RDKit          3D

 51 53  0  0  0  0  0  0  0  0999 V2000
    2.2340   -0.3182    0.6770 C   0  0  2  0  0  0  0  0  0  0  0  0
    2.3216   -0.0067    2.1049 N   0  0  0  0  0  0  0  0  0  0  0  0
    3.4914    0.3178    0.0773 C   0  0  0  0  0  0  0  0  0  0  0  0
    4.7324   -0.2142    0.6433 C   0  0  0  0  0  0  0  0  0  0  0  0
    5.3905    0.2939    1.7429 C   0  0  0  0  0  0  0  0  0  0  0  0
    6.5575   -0.1939    2.2878 C   0  0  0  0  0  0  0  0  0  0  0  0
    7.1073   -1.2991    1.6590 C   0  0  0  0  0  0  0  0  0  0  0  0
    6.5340   -1.8885    0.5526 C   0  0  0  0  0  0  0  0  0  0  0  0
    5.3589   -1.3159    0.0865 C   0  0  0  0  0  0  0  0  0  0  0  0
    1.0320    0.2398    0.0725 C   0  0  0  0  0  0  0  0  0  0  0  0
    0.7962    0.7452    1.1925 O   0  0  0  0  0  0  0  0  0  0  0  0
    0.3694    0.2579   -1.1638 N   0  0  0  0  0  0  0  0  0  0  0  0
    0.8620   -0.4203   -2.3554 C   0  0  0  0  0  0  0  0  0  0  0  0
   -0.1727   -0.1218   -3.4294 C   0  0  0  0  0  0  0  0  0  0  0  0
   -1.4113    0.0697   -2.5834 C   0  0  0  0  0  0  0  0  0  0  0  0
   -0.8697    0.9285   -1.4524 C   0  0  1  0  0  0  0  0  0  0  0  0
   -1.8033    0.9393   -0.2992 C   0  0  0  0  0  0  0  0  0  0  0  0
   -1.7570    0.4554    0.8690 O   0  0  0  0  0  0  0  0  0  0  0  0
   -3.0381    1.6293   -0.4876 N   0  0  0  0  0  0  0  0  0  0  0  0
   -4.0840    1.7570    0.5036 C   0  0  0  0  0  0  0  0  0  0  0  0
   -4.9107    0.5491    0.6720 C   0  0  0  0  0  0  0  0  0  0  0  0
   -4.7600   -0.4839    1.5401 C   0  0  0  0  0  0  0  0  0  0  0  0
   -5.6168   -1.5636    1.5805 C   0  0  0  0  0  0  0  0  0  0  0  0
   -6.6932   -1.6552    0.7263 C   0  0  0  0  0  0  0  0  0  0  0  0
   -6.9063   -0.6417   -0.1809 C   0  0  0  0  0  0  0  0  0  0  0  0
   -7.9408   -0.6662   -1.0467 F   0  0  0  0  0  0  0  0  0  0  0  0
   -6.0153    0.4237   -0.1819 C   0  0  0  0  0  0  0  0  0  0  0  0
    2.3671   -1.4006    0.5897 H   0  0  0  0  0  0  0  0  0  0  0  0
    1.4765   -0.3231    2.6340 H   0  0  0  0  0  0  0  0  0  0  0  0
    3.1750   -0.4966    2.4544 H   0  0  0  0  0  0  0  0  0  0  0  0
    3.4755    1.4155    0.3310 H   0  0  0  0  0  0  0  0  0  0  0  0
    3.4127    0.2351   -1.0055 H   0  0  0  0  0  0  0  0  0  0  0  0
    4.9482    1.1668    2.2326 H   0  0  0  0  0  0  0  0  0  0  0  0
    7.0157    0.2630    3.1577 H   0  0  0  0  0  0  0  0  0  0  0  0
    8.0283   -1.6707    2.1020 H   0  0  0  0  0  0  0  0  0  0  0  0
    6.9845   -2.7429    0.0894 H   0  0  0  0  0  0  0  0  0  0  0  0
    4.9135   -1.7864   -0.7858 H   0  0  0  0  0  0  0  0  0  0  0  0
    0.9368   -1.5050   -2.2547 H   0  0  0  0  0  0  0  0  0  0  0  0
    1.8088    0.0500   -2.7476 H   0  0  0  0  0  0  0  0  0  0  0  0
   -0.2742   -0.9693   -4.1328 H   0  0  0  0  0  0  0  0  0  0  0  0
    0.0378    0.8449   -3.9311 H   0  0  0  0  0  0  0  0  0  0  0  0
   -2.2258    0.5569   -3.1130 H   0  0  0  0  0  0  0  0  0  0  0  0
   -1.6885   -0.9294   -2.1820 H   0  0  0  0  0  0  0  0  0  0  0  0
   -0.6373    1.9193   -1.8409 H   0  0  0  0  0  0  0  0  0  0  0  0
   -3.2089    2.0828   -1.4218 H   0  0  0  0  0  0  0  0  0  0  0  0
   -3.6534    2.0895    1.4783 H   0  0  0  0  0  0  0  0  0  0  0  0
   -4.7470    2.5884    0.1935 H   0  0  0  0  0  0  0  0  0  0  0  0
   -3.9400   -0.4349    2.2128 H   0  0  0  0  0  0  0  0  0  0  0  0
   -5.4180   -2.3464    2.3102 H   0  0  0  0  0  0  0  0  0  0  0  0
   -7.3750   -2.4873    0.7392 H   0  0  0  0  0  0  0  0  0  0  0  0
   -6.2204    1.2049   -0.9164 H   0  0  0  0  0  0  0  0  0  0  0  0
  1  2  1  0
  1  3  1  0
  3  4  1  0
  4  5  2  0
  5  6  1  0
  6  7  2  0
  7  8  1  0
  8  9  2  0
  1 10  1  0
 10 11  2  0
 10 12  1  0
 12 13  1  0
 13 14  1  0
 14 15  1  0
 15 16  1  0
 16 17  1  0
 17 18  2  0
 17 19  1  0
 19 20  1  0
 20 21  1  0
 21 22  2  0
 22 23  1  0
 23 24  2  0
 24 25  1  0
 25 26  1  0
 25 27  2  0
  9  4  1  0
 16 12  1  0
 27 21  1  0
  1 28  1  1
  2 29  1  0
  2 30  1  0
  3 31  1  0
  3 32  1  0
  5 33  1  0
  6 34  1  0
  7 35  1  0
  8 36  1  0
  9 37  1  0
 13 38  1  0
 13 39  1  0
 14 40  1  0
 14 41  1  0
 15 42  1  0
 15 43  1  0
 16 44  1  6
 19 45  1  0
 20 46  1  0
 20 47  1  0
 22 48  1  0
 23 49  1  0
 24 50  1  0
 27 51  1  0
M  END
$$$$
