@<TRIPOS>MOLECULE
*****
 44 47 0 0 0
SMALL
GASTEIGER

@<TRIPOS>ATOM
      1 BR          6.6618   -0.6666   -2.5537 Br      1  UNL1       -0.0503
      2 C           5.5267    0.3719   -1.4053 C.ar    1  UNL1        0.0182
      3 C           5.4389    1.7324   -1.6504 C.ar    1  UNL1       -0.0477
      4 C           4.6105    2.4724   -0.8112 C.ar    1  UNL1       -0.0604
      5 C           3.9224    1.8909    0.1979 C.ar    1  UNL1       -0.0567
      6 C           4.0153    0.5217    0.4393 C.ar    1  UNL1       -0.0234
      7 C           3.2612   -0.0999    1.5425 C.3     1  UNL1        0.0858
      8 N           1.9848   -0.5878    1.1277 N.2     1  UNL1       -0.1808
      9 N           1.4738   -0.4895   -0.0443 N.2     1  UNL1       -0.1323
     10 C           0.1636   -1.1000   -0.1149 C.ar    1  UNL1        0.1966
     11 N           0.1057   -2.4602   -0.1184 N.ar    1  UNL1       -0.2233
     12 C          -1.1421   -3.0294   -0.1667 C.ar    1  UNL1        0.0916
     13 C          -1.2504   -4.4104   -0.1657 C.ar    1  UNL1       -0.0342
     14 C          -2.4965   -4.9910   -0.2093 C.ar    1  UNL1       -0.0596
     15 C          -3.6353   -4.2161   -0.2534 C.ar    1  UNL1       -0.0596
     16 C          -3.4997   -2.8510   -0.2524 C.ar    1  UNL1       -0.0342
     17 C          -2.2583   -2.2416   -0.2088 C.ar    1  UNL1        0.0896
     18 N          -2.1724   -0.8729   -0.2044 N.ar    1  UNL1       -0.2460
     19 C          -0.9398   -0.3068   -0.1565 C.ar    1  UNL1        0.0920
     20 C          -0.7775    1.1804   -0.1580 C.3     1  UNL1        0.0185
     21 C          -2.0260    1.8654    0.2211 C.ar    1  UNL1       -0.0415
     22 C          -3.0092    2.2280   -0.6890 C.ar    1  UNL1       -0.0582
     23 C          -4.1706    2.8805   -0.2510 C.ar    1  UNL1       -0.0615
     24 C          -4.3416    3.1630    1.0739 C.ar    1  UNL1       -0.0617
     25 C          -3.3914    2.8170    1.9821 C.ar    1  UNL1       -0.0615
     26 C          -2.2490    2.1739    1.5407 C.ar    1  UNL1       -0.0582
     27 C           4.8386   -0.2380   -0.3888 C.ar    1  UNL1       -0.0428
     28 H           5.9770    2.2280   -2.4489 H       1  UNL1        0.0629
     29 H           4.5050    3.5409   -0.9563 H       1  UNL1        0.0618
     30 H           3.2634    2.4569    0.8711 H       1  UNL1        0.0621
     31 H           3.1815    0.6098    2.4142 H       1  UNL1        0.0576
     32 H           3.8846   -0.9520    1.9444 H       1  UNL1        0.0576
     33 H          -0.3275   -5.0139   -0.1309 H       1  UNL1        0.0639
     34 H          -2.5705   -6.0900   -0.2064 H       1  UNL1        0.0618
     35 H          -4.6110   -4.6722   -0.2878 H       1  UNL1        0.0618
     36 H          -4.3802   -2.1897   -0.2885 H       1  UNL1        0.0639
     37 H          -0.5043    1.4495   -1.2263 H       1  UNL1        0.0378
     38 H           0.0913    1.4150    0.4578 H       1  UNL1        0.0378
     39 H          -2.8542    1.9916   -1.7261 H       1  UNL1        0.0620
     40 H          -4.9492    3.1708   -0.9646 H       1  UNL1        0.0618
     41 H          -5.2512    3.6728    1.4057 H       1  UNL1        0.0618
     42 H          -3.5134    3.0368    3.0364 H       1  UNL1        0.0618
     43 H          -1.5166    1.9138    2.2935 H       1  UNL1        0.0620
     44 H           4.9319   -1.3045   -0.2272 H       1  UNL1        0.0632
@<TRIPOS>BOND
     1     1     2    1
     2     2     3   ar
     3     3     4   ar
     4     4     5   ar
     5     5     6   ar
     6     6     7    1
     7     7     8    1
     8     8     9    2
     9     9    10    1
    10    10    11   ar
    11    11    12   ar
    12    12    13   ar
    13    13    14   ar
    14    14    15   ar
    15    15    16   ar
    16    16    17   ar
    17    17    18   ar
    18    18    19   ar
    19    19    20    1
    20    20    21    1
    21    21    22   ar
    22    22    23   ar
    23    23    24   ar
    24    24    25   ar
    25    25    26   ar
    26     6    27   ar
    27    27     2   ar
    28    19    10   ar
    29    26    21   ar
    30    17    12   ar
    31     3    28    1
    32     4    29    1
    33     5    30    1
    34     7    31    1
    35     7    32    1
    36    13    33    1
    37    14    34    1
    38    15    35    1
    39    16    36    1
    40    20    37    1
    41    20    38    1
    42    22    39    1
    43    23    40    1
    44    24    41    1
    45    25    42    1
    46    26    43    1
    47    27    44    1
