
     RDKit          3D

 44 47  0  0  0  0  0  0  0  0999 V2000
    6.6618   -0.6666   -2.5537 Br  0  0  0  0  0  0  0  0  0  0  0  0
    5.5267    0.3719   -1.4053 C   0  0  0  0  0  0  0  0  0  0  0  0
    5.4389    1.7324   -1.6504 C   0  0  0  0  0  0  0  0  0  0  0  0
    4.6105    2.4724   -0.8112 C   0  0  0  0  0  0  0  0  0  0  0  0
    3.9224    1.8909    0.1979 C   0  0  0  0  0  0  0  0  0  0  0  0
    4.0153    0.5217    0.4393 C   0  0  0  0  0  0  0  0  0  0  0  0
    3.2612   -0.0999    1.5425 C   0  0  0  0  0  0  0  0  0  0  0  0
    1.9848   -0.5878    1.1277 N   0  0  0  0  0  0  0  0  0  0  0  0
    1.4738   -0.4895   -0.0443 N   0  0  0  0  0  0  0  0  0  0  0  0
    0.1636   -1.1000   -0.1149 C   0  0  0  0  0  0  0  0  0  0  0  0
    0.1057   -2.4602   -0.1184 N   0  0  0  0  0  0  0  0  0  0  0  0
   -1.1421   -3.0294   -0.1667 C   0  0  0  0  0  0  0  0  0  0  0  0
   -1.2504   -4.4104   -0.1657 C   0  0  0  0  0  0  0  0  0  0  0  0
   -2.4965   -4.9910   -0.2093 C   0  0  0  0  0  0  0  0  0  0  0  0
   -3.6353   -4.2161   -0.2534 C   0  0  0  0  0  0  0  0  0  0  0  0
   -3.4997   -2.8510   -0.2524 C   0  0  0  0  0  0  0  0  0  0  0  0
   -2.2583   -2.2416   -0.2088 C   0  0  0  0  0  0  0  0  0  0  0  0
   -2.1724   -0.8729   -0.2044 N   0  0  0  0  0  0  0  0  0  0  0  0
   -0.9398   -0.3068   -0.1565 C   0  0  0  0  0  0  0  0  0  0  0  0
   -0.7775    1.1804   -0.1580 C   0  0  0  0  0  0  0  0  0  0  0  0
   -2.0260    1.8654    0.2211 C   0  0  0  0  0  0  0  0  0  0  0  0
   -3.0092    2.2280   -0.6890 C   0  0  0  0  0  0  0  0  0  0  0  0
   -4.1706    2.8805   -0.2510 C   0  0  0  0  0  0  0  0  0  0  0  0
   -4.3416    3.1630    1.0739 C   0  0  0  0  0  0  0  0  0  0  0  0
   -3.3914    2.8170    1.9821 C   0  0  0  0  0  0  0  0  0  0  0  0
   -2.2490    2.1739    1.5407 C   0  0  0  0  0  0  0  0  0  0  0  0
    4.8386   -0.2380   -0.3888 C   0  0  0  0  0  0  0  0  0  0  0  0
    5.9770    2.2280   -2.4489 H   0  0  0  0  0  0  0  0  0  0  0  0
    4.5050    3.5409   -0.9563 H   0  0  0  0  0  0  0  0  0  0  0  0
    3.2634    2.4569    0.8711 H   0  0  0  0  0  0  0  0  0  0  0  0
    3.1815    0.6098    2.4142 H   0  0  0  0  0  0  0  0  0  0  0  0
    3.8846   -0.9520    1.9444 H   0  0  0  0  0  0  0  0  0  0  0  0
   -0.3275   -5.0139   -0.1309 H   0  0  0  0  0  0  0  0  0  0  0  0
   -2.5705   -6.0900   -0.2064 H   0  0  0  0  0  0  0  0  0  0  0  0
   -4.6110   -4.6722   -0.2878 H   0  0  0  0  0  0  0  0  0  0  0  0
   -4.3802   -2.1897   -0.2885 H   0  0  0  0  0  0  0  0  0  0  0  0
   -0.5043    1.4495   -1.2263 H   0  0  0  0  0  0  0  0  0  0  0  0
    0.0913    1.4150    0.4578 H   0  0  0  0  0  0  0  0  0  0  0  0
   -2.8542    1.9916   -1.7261 H   0  0  0  0  0  0  0  0  0  0  0  0
   -4.9492    3.1708   -0.9646 H   0  0  0  0  0  0  0  0  0  0  0  0
   -5.2512    3.6728    1.4057 H   0  0  0  0  0  0  0  0  0  0  0  0
   -3.5134    3.0368    3.0364 H   0  0  0  0  0  0  0  0  0  0  0  0
   -1.5166    1.9138    2.2935 H   0  0  0  0  0  0  0  0  0  0  0  0
    4.9319   -1.3045   -0.2272 H   0  0  0  0  0  0  0  0  0  0  0  0
  1  2  1  0
  2  3  2  0
  3  4  1  0
  4  5  2  0
  5  6  1  0
  6  7  1  0
  7  8  1  0
  8  9  2  3
  9 10  1  0
 10 11  2  0
 11 12  1  0
 12 13  2  0
 13 14  1  0
 14 15  2  0
 15 16  1  0
 16 17  2  0
 17 18  1  0
 18 19  2  0
 19 20  1  0
 20 21  1  0
 21 22  2  0
 22 23  1  0
 23 24  2  0
 24 25  1  0
 25 26  2  0
  6 27  2  0
 27  2  1  0
 19 10  1  0
 26 21  1  0
 17 12  1  0
  3 28  1  0
  4 29  1  0
  5 30  1  0
  7 31  1  0
  7 32  1  0
 13 33  1  0
 14 34  1  0
 15 35  1  0
 16 36  1  0
 20 37  1  0
 20 38  1  0
 22 39  1  0
 23 40  1  0
 24 41  1  0
 25 42  1  0
 26 43  1  0
 27 44  1  0
M  END
$$$$
