@<TRIPOS>MOLECULE
*****
 61 65 0 0 0
SMALL
GASTEIGER

@<TRIPOS>ATOM
      1 O           7.5618    2.5514    1.0400 O.2     1  UNL1       -0.2451
      2 C           7.1281    1.3833    1.2313 C.2     1  UNL1        0.3369
      3 O           7.9569    0.4795    1.8355 O.3     1  UNL1       -0.4771
      4 C           5.7717    1.0760    0.7950 C.ar    1  UNL1        0.0617
      5 C           4.9726    2.0148    0.1916 C.ar    1  UNL1       -0.0458
      6 C           3.6876    1.6865   -0.2103 C.ar    1  UNL1       -0.0369
      7 C           3.1724    0.4207   -0.0206 C.ar    1  UNL1        0.0691
      8 N           1.8442    0.0626   -0.4302 N.am    1  UNL1       -0.2815
      9 C           0.7247    0.2032    0.4195 C.2     1  UNL1        0.2405
     10 O           1.0301    0.6839    1.5962 O.2     1  UNL1       -0.2732
     11 C          -0.6736   -0.1158    0.1471 C.3     1  UNL1        0.1154
     12 C          -0.9887   -1.4661   -0.3934 C.3     1  UNL1       -0.0116
     13 C          -0.3889   -1.8440   -1.6885 C.3     1  UNL1       -0.0479
     14 C          -1.2756   -2.9142   -2.3357 C.3     1  UNL1       -0.0527
     15 C          -1.5327   -3.9533   -1.2737 C.3     1  UNL1       -0.0530
     16 C          -0.5214   -3.9102   -0.1448 C.3     1  UNL1       -0.0527
     17 C          -0.5999   -2.5877    0.5943 C.3     1  UNL1       -0.0479
     18 N          -1.5147    0.9585   -0.3276 N.ar    1  UNL1       -0.3112
     19 C          -2.6807    1.3773    0.2742 C.ar    1  UNL1        0.1425
     20 C          -3.2934    0.8414    1.4832 C.ar    1  UNL1        0.0176
     21 C          -4.3609   -0.0256    1.4626 C.ar    1  UNL1       -0.0497
     22 C          -4.9115   -0.5101    2.6435 C.ar    1  UNL1       -0.0427
     23 C          -4.3720   -0.1096    3.8543 C.ar    1  UNL1        0.0410
     24 CL         -5.0091   -0.6756    5.3929 Cl      1  UNL1       -0.0835
     25 C          -3.3087    0.7535    3.8903 C.ar    1  UNL1       -0.0427
     26 C          -2.7726    1.2267    2.6968 C.ar    1  UNL1       -0.0497
     27 N          -3.2361    2.3892   -0.4017 N.ar    1  UNL1       -0.2274
     28 C          -2.4756    2.6675   -1.4479 C.ar    1  UNL1        0.0926
     29 C          -2.6041    3.6122   -2.4490 C.ar    1  UNL1        0.0039
     30 C          -1.6597    3.7009   -3.4471 C.ar    1  UNL1        0.1605
     31 F          -1.7779    4.6234   -4.4314 F       1  UNL1       -0.2024
     32 C          -0.5976    2.8065   -3.3883 C.ar    1  UNL1        0.1605
     33 F           0.3266    2.9070   -4.3815 F       1  UNL1       -0.2024
     34 C          -0.4879    1.8745   -2.3844 C.ar    1  UNL1        0.0021
     35 C          -1.4097    1.7740   -1.3931 C.ar    1  UNL1        0.0727
     36 C           3.9973   -0.5007    0.5875 C.ar    1  UNL1        0.1453
     37 F           3.5711   -1.7494    0.8067 F       1  UNL1       -0.2035
     38 C           5.2843   -0.1817    0.9930 C.ar    1  UNL1       -0.0106
     39 H           8.7768    0.7879    2.3272 H       1  UNL1        0.2954
     40 H           5.3978    3.0031    0.0525 H       1  UNL1        0.0626
     41 H           3.0857    2.4422   -0.6798 H       1  UNL1        0.0637
     42 H           1.7273   -0.3104   -1.3768 H       1  UNL1        0.1549
     43 H          -1.0861   -0.2391    1.2602 H       1  UNL1        0.0627
     44 H          -2.1194   -1.5275   -0.4114 H       1  UNL1        0.0325
     45 H          -0.2338   -1.0797   -2.4353 H       1  UNL1        0.0269
     46 H           0.6108   -2.3286   -1.4831 H       1  UNL1        0.0269
     47 H          -2.2245   -2.4381   -2.6018 H       1  UNL1        0.0265
     48 H          -0.7129   -3.3093   -3.2054 H       1  UNL1        0.0265
     49 H          -1.5210   -4.9401   -1.7380 H       1  UNL1        0.0265
     50 H          -2.5333   -3.7675   -0.7862 H       1  UNL1        0.0265
     51 H           0.5017   -4.1357   -0.4884 H       1  UNL1        0.0265
     52 H          -0.8082   -4.7067    0.5704 H       1  UNL1        0.0265
     53 H          -1.3416   -2.6891    1.3855 H       1  UNL1        0.0269
     54 H           0.4272   -2.3433    0.9313 H       1  UNL1        0.0269
     55 H          -4.7784   -0.3352    0.5127 H       1  UNL1        0.0625
     56 H          -5.7480   -1.1903    2.6511 H       1  UNL1        0.0632
     57 H          -2.8542    1.0940    4.8136 H       1  UNL1        0.0632
     58 H          -1.9363    1.9060    2.7124 H       1  UNL1        0.0625
     59 H          -3.4529    4.3075   -2.4729 H       1  UNL1        0.0669
     60 H           0.3460    1.2156   -2.3946 H       1  UNL1        0.0668
     61 H           5.9003   -0.9462    1.4708 H       1  UNL1        0.0655
@<TRIPOS>BOND
     1     1     2    2
     2     2     3    1
     3     2     4    1
     4     4     5   ar
     5     5     6   ar
     6     6     7   ar
     7     7     8    1
     8     8     9   am
     9     9    10    2
    10     9    11    1
    11    11    12    1
    12    12    13    1
    13    13    14    1
    14    14    15    1
    15    15    16    1
    16    16    17    1
    17    11    18    1
    18    18    19   ar
    19    19    20    1
    20    20    21   ar
    21    21    22   ar
    22    22    23   ar
    23    23    24    1
    24    23    25   ar
    25    25    26   ar
    26    19    27   ar
    27    27    28   ar
    28    28    29   ar
    29    29    30   ar
    30    30    31    1
    31    30    32   ar
    32    32    33    1
    33    32    34   ar
    34    34    35   ar
    35     7    36   ar
    36    36    37    1
    37    36    38   ar
    38    38     4   ar
    39    17    12    1
    40    35    18   ar
    41    26    20   ar
    42    35    28   ar
    43     3    39    1
    44     5    40    1
    45     6    41    1
    46     8    42    1
    47    11    43    1
    48    12    44    1
    49    13    45    1
    50    13    46    1
    51    14    47    1
    52    14    48    1
    53    15    49    1
    54    15    50    1
    55    16    51    1
    56    16    52    1
    57    17    53    1
    58    17    54    1
    59    21    55    1
    60    22    56    1
    61    25    57    1
    62    26    58    1
    63    29    59    1
    64    34    60    1
    65    38    61    1
