
     RDKit          3D

 61 65  0  0  0  0  0  0  0  0999 V2000
    7.5618    2.5514    1.0400 O   0  0  0  0  0  0  0  0  0  0  0  0
    7.1281    1.3833    1.2313 C   0  0  0  0  0  0  0  0  0  0  0  0
    7.9569    0.4795    1.8355 O   0  0  0  0  0  0  0  0  0  0  0  0
    5.7717    1.0760    0.7950 C   0  0  0  0  0  0  0  0  0  0  0  0
    4.9726    2.0148    0.1916 C   0  0  0  0  0  0  0  0  0  0  0  0
    3.6876    1.6865   -0.2103 C   0  0  0  0  0  0  0  0  0  0  0  0
    3.1724    0.4207   -0.0206 C   0  0  0  0  0  0  0  0  0  0  0  0
    1.8442    0.0626   -0.4302 N   0  0  0  0  0  0  0  0  0  0  0  0
    0.7247    0.2032    0.4195 C   0  0  0  0  0  0  0  0  0  0  0  0
    1.0301    0.6839    1.5962 O   0  0  0  0  0  0  0  0  0  0  0  0
   -0.6736   -0.1158    0.1471 C   0  0  2  0  0  0  0  0  0  0  0  0
   -0.9887   -1.4661   -0.3934 C   0  0  0  0  0  0  0  0  0  0  0  0
   -0.3889   -1.8440   -1.6885 C   0  0  0  0  0  0  0  0  0  0  0  0
   -1.2756   -2.9142   -2.3357 C   0  0  0  0  0  0  0  0  0  0  0  0
   -1.5327   -3.9533   -1.2737 C   0  0  0  0  0  0  0  0  0  0  0  0
   -0.5214   -3.9102   -0.1448 C   0  0  0  0  0  0  0  0  0  0  0  0
   -0.5999   -2.5877    0.5943 C   0  0  0  0  0  0  0  0  0  0  0  0
   -1.5147    0.9585   -0.3276 N   0  0  0  0  0  0  0  0  0  0  0  0
   -2.6807    1.3773    0.2742 C   0  0  0  0  0  0  0  0  0  0  0  0
   -3.2934    0.8414    1.4832 C   0  0  0  0  0  0  0  0  0  0  0  0
   -4.3609   -0.0256    1.4626 C   0  0  0  0  0  0  0  0  0  0  0  0
   -4.9115   -0.5101    2.6435 C   0  0  0  0  0  0  0  0  0  0  0  0
   -4.3720   -0.1096    3.8543 C   0  0  0  0  0  0  0  0  0  0  0  0
   -5.0091   -0.6756    5.3929 Cl  0  0  0  0  0  0  0  0  0  0  0  0
   -3.3087    0.7535    3.8903 C   0  0  0  0  0  0  0  0  0  0  0  0
   -2.7726    1.2267    2.6968 C   0  0  0  0  0  0  0  0  0  0  0  0
   -3.2361    2.3892   -0.4017 N   0  0  0  0  0  0  0  0  0  0  0  0
   -2.4756    2.6675   -1.4479 C   0  0  0  0  0  0  0  0  0  0  0  0
   -2.6041    3.6122   -2.4490 C   0  0  0  0  0  0  0  0  0  0  0  0
   -1.6597    3.7009   -3.4471 C   0  0  0  0  0  0  0  0  0  0  0  0
   -1.7779    4.6234   -4.4314 F   0  0  0  0  0  0  0  0  0  0  0  0
   -0.5976    2.8065   -3.3883 C   0  0  0  0  0  0  0  0  0  0  0  0
    0.3266    2.9070   -4.3815 F   0  0  0  0  0  0  0  0  0  0  0  0
   -0.4879    1.8745   -2.3844 C   0  0  0  0  0  0  0  0  0  0  0  0
   -1.4097    1.7740   -1.3931 C   0  0  0  0  0  0  0  0  0  0  0  0
    3.9973   -0.5007    0.5875 C   0  0  0  0  0  0  0  0  0  0  0  0
    3.5711   -1.7494    0.8067 F   0  0  0  0  0  0  0  0  0  0  0  0
    5.2843   -0.1817    0.9930 C   0  0  0  0  0  0  0  0  0  0  0  0
    8.7768    0.7879    2.3272 H   0  0  0  0  0  0  0  0  0  0  0  0
    5.3978    3.0031    0.0525 H   0  0  0  0  0  0  0  0  0  0  0  0
    3.0857    2.4422   -0.6798 H   0  0  0  0  0  0  0  0  0  0  0  0
    1.7273   -0.3104   -1.3768 H   0  0  0  0  0  0  0  0  0  0  0  0
   -1.0861   -0.2391    1.2602 H   0  0  0  0  0  0  0  0  0  0  0  0
   -2.1194   -1.5275   -0.4114 H   0  0  0  0  0  0  0  0  0  0  0  0
   -0.2338   -1.0797   -2.4353 H   0  0  0  0  0  0  0  0  0  0  0  0
    0.6108   -2.3286   -1.4831 H   0  0  0  0  0  0  0  0  0  0  0  0
   -2.2245   -2.4381   -2.6018 H   0  0  0  0  0  0  0  0  0  0  0  0
   -0.7129   -3.3093   -3.2054 H   0  0  0  0  0  0  0  0  0  0  0  0
   -1.5210   -4.9401   -1.7380 H   0  0  0  0  0  0  0  0  0  0  0  0
   -2.5333   -3.7675   -0.7862 H   0  0  0  0  0  0  0  0  0  0  0  0
    0.5017   -4.1357   -0.4884 H   0  0  0  0  0  0  0  0  0  0  0  0
   -0.8082   -4.7067    0.5704 H   0  0  0  0  0  0  0  0  0  0  0  0
   -1.3416   -2.6891    1.3855 H   0  0  0  0  0  0  0  0  0  0  0  0
    0.4272   -2.3433    0.9313 H   0  0  0  0  0  0  0  0  0  0  0  0
   -4.7784   -0.3352    0.5127 H   0  0  0  0  0  0  0  0  0  0  0  0
   -5.7480   -1.1903    2.6511 H   0  0  0  0  0  0  0  0  0  0  0  0
   -2.8542    1.0940    4.8136 H   0  0  0  0  0  0  0  0  0  0  0  0
   -1.9363    1.9060    2.7124 H   0  0  0  0  0  0  0  0  0  0  0  0
   -3.4529    4.3075   -2.4729 H   0  0  0  0  0  0  0  0  0  0  0  0
    0.3460    1.2156   -2.3946 H   0  0  0  0  0  0  0  0  0  0  0  0
    5.9003   -0.9462    1.4708 H   0  0  0  0  0  0  0  0  0  0  0  0
  1  2  2  0
  2  3  1  0
  2  4  1  0
  4  5  2  0
  5  6  1  0
  6  7  2  0
  7  8  1  0
  8  9  1  0
  9 10  2  0
  9 11  1  0
 11 12  1  0
 12 13  1  0
 13 14  1  0
 14 15  1  0
 15 16  1  0
 16 17  1  0
 11 18  1  0
 18 19  1  0
 19 20  1  0
 20 21  2  0
 21 22  1  0
 22 23  2  0
 23 24  1  0
 23 25  1  0
 25 26  2  0
 19 27  2  0
 27 28  1  0
 28 29  2  0
 29 30  1  0
 30 31  1  0
 30 32  2  0
 32 33  1  0
 32 34  1  0
 34 35  2  0
  7 36  1  0
 36 37  1  0
 36 38  2  0
 38  4  1  0
 17 12  1  0
 35 18  1  0
 26 20  1  0
 35 28  1  0
  3 39  1  0
  5 40  1  0
  6 41  1  0
  8 42  1  0
 11 43  1  1
 12 44  1  0
 13 45  1  0
 13 46  1  0
 14 47  1  0
 14 48  1  0
 15 49  1  0
 15 50  1  0
 16 51  1  0
 16 52  1  0
 17 53  1  0
 17 54  1  0
 21 55  1  0
 22 56  1  0
 25 57  1  0
 26 58  1  0
 29 59  1  0
 34 60  1  0
 38 61  1  0
M  END
$$$$
