@<TRIPOS>MOLECULE
*****
 44 45 0 0 0
SMALL
GASTEIGER

@<TRIPOS>ATOM
      1 C          -5.0918    1.8862   -0.1738 C.3     1  UNL1       -0.0653
      2 C          -4.8463    1.4250    1.2492 C.3     1  UNL1       -0.0559
      3 C          -3.3497    1.1127    1.4349 C.3     1  UNL1       -0.0515
      4 C          -3.0301    0.0438    0.4653 C.3     1  UNL1       -0.0299
      5 C          -1.5951   -0.4664    0.4848 C.3     1  UNL1        0.0902
      6 C          -1.5845   -1.5416   -0.5987 C.3     1  UNL1        0.0485
      7 C          -0.3168   -2.2561   -0.7373 C.2     1  UNL1        0.2373
      8 O           0.5776   -2.1554    0.1338 O.2     1  UNL1       -0.2737
      9 N          -0.0733   -3.0790   -1.8626 N.am    1  UNL1       -0.1974
     10 O           1.1088   -3.7184   -1.9489 O.3     1  UNL1       -0.2952
     11 S          -0.5860    0.9036    0.0551 S.O2    1  UNL1        0.0002
     12 O          -0.6566    1.9052    1.2119 O.2     1  UNL1       -0.1691
     13 O          -1.1213    1.6310   -1.1451 O.2     1  UNL1       -0.1691
     14 C           1.0884    0.5994   -0.1831 C.ar    1  UNL1        0.0891
     15 C           1.5325    0.3663   -1.4739 C.ar    1  UNL1       -0.0363
     16 C           2.8348    0.1349   -1.7617 C.ar    1  UNL1       -0.0522
     17 C           3.7752    0.1252   -0.7526 C.ar    1  UNL1       -0.0178
     18 C           5.1121   -0.1058   -0.9979 C.ar    1  UNL1       -0.0540
     19 C           6.0450   -0.1140    0.0144 C.ar    1  UNL1       -0.0612
     20 C           5.6009    0.1188    1.3025 C.ar    1  UNL1       -0.0612
     21 C           4.2727    0.3487    1.5497 C.ar    1  UNL1       -0.0540
     22 C           3.3359    0.3573    0.5362 C.ar    1  UNL1       -0.0161
     23 C           2.0147    0.5931    0.8367 C.ar    1  UNL1       -0.0292
     24 H          -4.1257    2.3476   -0.5150 H       1  UNL1        0.0230
     25 H          -5.8583    2.6968   -0.1944 H       1  UNL1        0.0230
     26 H          -5.3291    1.0440   -0.8378 H       1  UNL1        0.0230
     27 H          -5.1678    2.2320    1.9404 H       1  UNL1        0.0263
     28 H          -5.4523    0.5168    1.4509 H       1  UNL1        0.0263
     29 H          -2.8703    2.1077    1.2153 H       1  UNL1        0.0266
     30 H          -3.2273    0.7945    2.4695 H       1  UNL1        0.0266
     31 H          -3.7216   -0.8184    0.6887 H       1  UNL1        0.0284
     32 H          -3.2766    0.3832   -0.5763 H       1  UNL1        0.0284
     33 H          -1.3222   -0.8625    1.4514 H       1  UNL1        0.0545
     34 H          -1.8794   -1.0413   -1.5675 H       1  UNL1        0.0378
     35 H          -2.3829   -2.2912   -0.4217 H       1  UNL1        0.0378
     36 H          -0.7660   -3.2193   -2.6370 H       1  UNL1        0.1822
     37 H           1.8171   -3.1558   -1.5281 H       1  UNL1        0.2414
     38 H           0.8327    0.3609   -2.3218 H       1  UNL1        0.0637
     39 H           3.1877   -0.0497   -2.7821 H       1  UNL1        0.0624
     40 H           5.4590   -0.2877   -2.0045 H       1  UNL1        0.0624
     41 H           7.1004   -0.2912   -0.1393 H       1  UNL1        0.0618
     42 H           6.3391    0.1115    2.0971 H       1  UNL1        0.0618
     43 H           3.9204    0.5315    2.5571 H       1  UNL1        0.0624
     44 H           1.6758    0.7760    1.8598 H       1  UNL1        0.0643
@<TRIPOS>BOND
     1     1     2    1
     2     2     3    1
     3     3     4    1
     4     4     5    1
     5     5     6    1
     6     6     7    1
     7     7     8    2
     8     7     9   am
     9     9    10    1
    10     5    11    1
    11    11    12    2
    12    11    13    2
    13    11    14    1
    14    14    15   ar
    15    15    16   ar
    16    16    17   ar
    17    17    18   ar
    18    18    19   ar
    19    19    20   ar
    20    20    21   ar
    21    21    22   ar
    22    22    23   ar
    23    23    14   ar
    24    22    17   ar
    25     1    24    1
    26     1    25    1
    27     1    26    1
    28     2    27    1
    29     2    28    1
    30     3    29    1
    31     3    30    1
    32     4    31    1
    33     4    32    1
    34     5    33    1
    35     6    34    1
    36     6    35    1
    37     9    36    1
    38    10    37    1
    39    15    38    1
    40    16    39    1
    41    18    40    1
    42    19    41    1
    43    20    42    1
    44    21    43    1
    45    23    44    1
