
     RDKit          3D

 44 45  0  0  0  0  0  0  0  0999 V2000
   -5.0918    1.8862   -0.1738 C   0  0  0  0  0  0  0  0  0  0  0  0
   -4.8463    1.4250    1.2492 C   0  0  0  0  0  0  0  0  0  0  0  0
   -3.3497    1.1127    1.4349 C   0  0  0  0  0  0  0  0  0  0  0  0
   -3.0301    0.0438    0.4653 C   0  0  0  0  0  0  0  0  0  0  0  0
   -1.5951   -0.4664    0.4848 C   0  0  0  0  0  0  0  0  0  0  0  0
   -1.5845   -1.5416   -0.5987 C   0  0  0  0  0  0  0  0  0  0  0  0
   -0.3168   -2.2561   -0.7373 C   0  0  0  0  0  0  0  0  0  0  0  0
    0.5776   -2.1554    0.1338 O   0  0  0  0  0  0  0  0  0  0  0  0
   -0.0733   -3.0790   -1.8626 N   0  0  0  0  0  0  0  0  0  0  0  0
    1.1088   -3.7184   -1.9489 O   0  0  0  0  0  0  0  0  0  0  0  0
   -0.5860    0.9036    0.0551 S   0  0  0  0  0  6  0  0  0  0  0  0
   -0.6566    1.9052    1.2119 O   0  0  0  0  0  0  0  0  0  0  0  0
   -1.1213    1.6310   -1.1451 O   0  0  0  0  0  0  0  0  0  0  0  0
    1.0884    0.5994   -0.1831 C   0  0  0  0  0  0  0  0  0  0  0  0
    1.5325    0.3663   -1.4739 C   0  0  0  0  0  0  0  0  0  0  0  0
    2.8348    0.1349   -1.7617 C   0  0  0  0  0  0  0  0  0  0  0  0
    3.7752    0.1252   -0.7526 C   0  0  0  0  0  0  0  0  0  0  0  0
    5.1121   -0.1058   -0.9979 C   0  0  0  0  0  0  0  0  0  0  0  0
    6.0450   -0.1140    0.0144 C   0  0  0  0  0  0  0  0  0  0  0  0
    5.6009    0.1188    1.3025 C   0  0  0  0  0  0  0  0  0  0  0  0
    4.2727    0.3487    1.5497 C   0  0  0  0  0  0  0  0  0  0  0  0
    3.3359    0.3573    0.5362 C   0  0  0  0  0  0  0  0  0  0  0  0
    2.0147    0.5931    0.8367 C   0  0  0  0  0  0  0  0  0  0  0  0
   -4.1257    2.3476   -0.5150 H   0  0  0  0  0  0  0  0  0  0  0  0
   -5.8583    2.6968   -0.1944 H   0  0  0  0  0  0  0  0  0  0  0  0
   -5.3291    1.0440   -0.8378 H   0  0  0  0  0  0  0  0  0  0  0  0
   -5.1678    2.2320    1.9404 H   0  0  0  0  0  0  0  0  0  0  0  0
   -5.4523    0.5168    1.4509 H   0  0  0  0  0  0  0  0  0  0  0  0
   -2.8703    2.1077    1.2153 H   0  0  0  0  0  0  0  0  0  0  0  0
   -3.2273    0.7945    2.4695 H   0  0  0  0  0  0  0  0  0  0  0  0
   -3.7216   -0.8184    0.6887 H   0  0  0  0  0  0  0  0  0  0  0  0
   -3.2766    0.3832   -0.5763 H   0  0  0  0  0  0  0  0  0  0  0  0
   -1.3222   -0.8625    1.4514 H   0  0  0  0  0  0  0  0  0  0  0  0
   -1.8794   -1.0413   -1.5675 H   0  0  0  0  0  0  0  0  0  0  0  0
   -2.3829   -2.2912   -0.4217 H   0  0  0  0  0  0  0  0  0  0  0  0
   -0.7660   -3.2193   -2.6370 H   0  0  0  0  0  0  0  0  0  0  0  0
    1.8171   -3.1558   -1.5281 H   0  0  0  0  0  0  0  0  0  0  0  0
    0.8327    0.3609   -2.3218 H   0  0  0  0  0  0  0  0  0  0  0  0
    3.1877   -0.0497   -2.7821 H   0  0  0  0  0  0  0  0  0  0  0  0
    5.4590   -0.2877   -2.0045 H   0  0  0  0  0  0  0  0  0  0  0  0
    7.1004   -0.2912   -0.1393 H   0  0  0  0  0  0  0  0  0  0  0  0
    6.3391    0.1115    2.0971 H   0  0  0  0  0  0  0  0  0  0  0  0
    3.9204    0.5315    2.5571 H   0  0  0  0  0  0  0  0  0  0  0  0
    1.6758    0.7760    1.8598 H   0  0  0  0  0  0  0  0  0  0  0  0
  1  2  1  0
  2  3  1  0
  3  4  1  0
  4  5  1  0
  5  6  1  0
  6  7  1  0
  7  8  2  0
  7  9  1  0
  9 10  1  0
  5 11  1  0
 11 12  2  0
 11 13  2  0
 11 14  1  0
 14 15  2  0
 15 16  1  0
 16 17  2  0
 17 18  1  0
 18 19  2  0
 19 20  1  0
 20 21  2  0
 21 22  1  0
 22 23  2  0
 23 14  1  0
 22 17  1  0
  1 24  1  0
  1 25  1  0
  1 26  1  0
  2 27  1  0
  2 28  1  0
  3 29  1  0
  3 30  1  0
  4 31  1  0
  4 32  1  0
  5 33  1  0
  6 34  1  0
  6 35  1  0
  9 36  1  0
 10 37  1  0
 15 38  1  0
 16 39  1  0
 18 40  1  0
 19 41  1  0
 20 42  1  0
 21 43  1  0
 23 44  1  0
M  END
$$$$
