@<TRIPOS>MOLECULE
*****
 40 44 0 0 0
SMALL
GASTEIGER

@<TRIPOS>ATOM
      1 N           5.7738    3.1542   -0.5394 N.pl3   1  UNL1       -0.3431
      2 C           4.8785    2.0728   -0.4648 C.ar    1  UNL1        0.1161
      3 C           5.2269    0.8388    0.0517 C.ar    1  UNL1       -0.0215
      4 C           4.3215   -0.2026    0.1101 C.ar    1  UNL1       -0.0493
      5 C           3.0213   -0.0395   -0.3529 C.ar    1  UNL1        0.0018
      6 C           2.0264   -1.1037   -0.3141 C.ar    1  UNL1        0.0024
      7 C           2.4361   -2.4105   -0.4506 C.ar    1  UNL1        0.0377
      8 N           1.5834   -3.4493   -0.4254 N.ar    1  UNL1       -0.2369
      9 C           0.2699   -3.2325   -0.2615 C.ar    1  UNL1        0.1387
     10 N          -0.8174   -4.0436   -0.1925 N.ar    1  UNL1       -0.3452
     11 C          -1.9255   -3.3307   -0.0169 C.ar    1  UNL1        0.0118
     12 C          -1.5276   -2.0096    0.0278 C.ar    1  UNL1        0.0087
     13 C          -2.4510   -0.9013    0.2040 C.ar    1  UNL1       -0.0151
     14 C          -3.4081   -1.0119    1.2104 C.ar    1  UNL1       -0.0520
     15 C          -4.2938    0.0101    1.4010 C.ar    1  UNL1       -0.0372
     16 C          -4.2404    1.1494    0.5985 C.ar    1  UNL1        0.0465
     17 N          -4.9761    2.2639    0.5816 N.ar    1  UNL1       -0.3606
     18 C          -4.5633    3.1125   -0.3801 C.ar    1  UNL1        0.0027
     19 C          -3.4998    2.4987   -1.0130 C.ar    1  UNL1       -0.0366
     20 C          -3.3051    1.2750   -0.3966 C.ar    1  UNL1        0.0002
     21 C          -2.4193    0.2334   -0.5744 C.ar    1  UNL1       -0.0448
     22 C          -0.1721   -1.9386   -0.1224 C.ar    1  UNL1        0.0269
     23 C           0.6852   -0.8424   -0.1440 C.ar    1  UNL1       -0.0413
     24 C           2.7102    1.2061   -0.8615 C.ar    1  UNL1        0.0374
     25 N           3.6175    2.2123   -0.9077 N.ar    1  UNL1       -0.2401
     26 H           6.1385    3.6223    0.3299 H       1  UNL1        0.1437
     27 H           6.0855    3.5036   -1.4518 H       1  UNL1        0.1437
     28 H           6.2460    0.7083    0.4155 H       1  UNL1        0.0652
     29 H           4.5697   -1.1655    0.5057 H       1  UNL1        0.0625
     30 H           3.4858   -2.6437   -0.5856 H       1  UNL1        0.0836
     31 H          -0.7862   -5.0755   -0.2666 H       1  UNL1        0.1668
     32 H          -2.9271   -3.7445    0.0695 H       1  UNL1        0.0814
     33 H          -3.4282   -1.9196    1.8282 H       1  UNL1        0.0624
     34 H          -5.0305   -0.0971    2.1898 H       1  UNL1        0.0638
     35 H          -5.7728    2.4140    1.2601 H       1  UNL1        0.1653
     36 H          -4.9884    4.0912   -0.6106 H       1  UNL1        0.0807
     37 H          -2.9026    2.8825   -1.8484 H       1  UNL1        0.0638
     38 H          -1.6711    0.2970   -1.3499 H       1  UNL1        0.0630
     39 H           0.3136    0.1834   -0.0296 H       1  UNL1        0.0631
     40 H           1.7166    1.4323   -1.2491 H       1  UNL1        0.0836
@<TRIPOS>BOND
     1     1     2    1
     2     2     3   ar
     3     3     4   ar
     4     4     5   ar
     5     5     6    1
     6     6     7   ar
     7     7     8   ar
     8     8     9   ar
     9     9    10   ar
    10    10    11   ar
    11    11    12   ar
    12    12    13    1
    13    13    14   ar
    14    14    15   ar
    15    15    16   ar
    16    16    17   ar
    17    17    18   ar
    18    18    19   ar
    19    19    20   ar
    20    20    21   ar
    21    12    22   ar
    22    22    23   ar
    23     5    24   ar
    24    24    25   ar
    25    25     2   ar
    26    23     6   ar
    27    22     9   ar
    28    21    13   ar
    29    20    16   ar
    30     1    26    1
    31     1    27    1
    32     3    28    1
    33     4    29    1
    34     7    30    1
    35    10    31    1
    36    11    32    1
    37    14    33    1
    38    15    34    1
    39    17    35    1
    40    18    36    1
    41    19    37    1
    42    21    38    1
    43    23    39    1
    44    24    40    1
