
     RDKit          3D

 50 54  0  0  0  0  0  0  0  0999 V2000
    3.5130   -0.1625    1.5506 O   0  0  0  0  0  0  0  0  0  0  0  0
    3.6679   -0.3461    0.3177 C   0  0  0  0  0  0  0  0  0  0  0  0
    2.5140   -0.6565   -0.4485 N   0  0  0  0  0  0  0  0  0  0  0  0
    1.2299   -0.7553    0.1616 C   0  0  0  0  0  0  0  0  0  0  0  0
    0.8284   -1.9770    0.6385 C   0  0  0  0  0  0  0  0  0  0  0  0
   -0.4126   -2.1202    1.2395 C   0  0  0  0  0  0  0  0  0  0  0  0
   -1.2494   -1.0045    1.3535 C   0  0  0  0  0  0  0  0  0  0  0  0
   -0.8597    0.2292    0.8792 C   0  0  0  0  0  0  0  0  0  0  0  0
   -1.7820    1.3463    1.0317 C   0  0  0  0  0  0  0  0  0  0  0  0
   -1.3906    2.5965    1.4729 C   0  0  0  0  0  0  0  0  0  0  0  0
   -2.3005    3.6310    1.6035 C   0  0  0  0  0  0  0  0  0  0  0  0
   -3.5924    3.3537    1.2767 N   0  0  0  0  0  0  0  0  0  0  0  0
   -3.9572    2.1447    0.8527 C   0  0  0  0  0  0  0  0  0  0  0  0
   -5.2041    1.6674    0.4757 C   0  0  0  0  0  0  0  0  0  0  0  0
   -5.0198    0.3489    0.1239 C   0  0  0  0  0  0  0  0  0  0  0  0
   -6.0846   -0.5454   -0.3408 C   0  0  0  0  0  0  0  0  0  0  0  0
   -5.8464   -1.8555   -0.6800 C   0  0  0  0  0  0  0  0  0  0  0  0
   -6.9040   -2.6321   -1.1088 C   0  0  0  0  0  0  0  0  0  0  0  0
   -8.1580   -2.1704   -1.2116 N   0  0  0  0  0  0  0  0  0  0  0  0
   -8.4197   -0.8978   -0.8879 C   0  0  0  0  0  0  0  0  0  0  0  0
   -7.3811   -0.0940   -0.4547 C   0  0  0  0  0  0  0  0  0  0  0  0
   -3.7282    0.0813    0.2908 N   0  0  0  0  0  0  0  0  0  0  0  0
   -3.0704    1.1377    0.7257 N   0  0  0  0  0  0  0  0  0  0  0  0
    0.3825    0.3244    0.2891 C   0  0  0  0  0  0  0  0  0  0  0  0
    5.0039   -0.2306   -0.2414 C   0  0  0  0  0  0  0  0  0  0  0  0
    5.2567   -0.4172   -1.5821 C   0  0  0  0  0  0  0  0  0  0  0  0
    6.5501   -0.3025   -2.1059 C   0  0  0  0  0  0  0  0  0  0  0  0
    7.5813    0.0048   -1.2451 C   0  0  0  0  0  0  0  0  0  0  0  0
    7.3711    0.1994    0.1038 C   0  0  0  0  0  0  0  0  0  0  0  0
    8.4952    0.5305    1.0195 C   0  0  0  0  0  0  0  0  0  0  0  0
    8.2013    0.2516    2.3248 F   0  0  0  0  0  0  0  0  0  0  0  0
    9.5617   -0.2719    0.6484 F   0  0  0  0  0  0  0  0  0  0  0  0
    8.8477    1.8643    0.8830 F   0  0  0  0  0  0  0  0  0  0  0  0
    6.0782    0.0739    0.5633 C   0  0  0  0  0  0  0  0  0  0  0  0
    2.5889   -0.8168   -1.4686 H   0  0  0  0  0  0  0  0  0  0  0  0
    1.4415   -2.8651    0.5719 H   0  0  0  0  0  0  0  0  0  0  0  0
   -0.7340   -3.0756    1.6159 H   0  0  0  0  0  0  0  0  0  0  0  0
   -2.2151   -1.1218    1.8226 H   0  0  0  0  0  0  0  0  0  0  0  0
   -0.3734    2.7721    1.7177 H   0  0  0  0  0  0  0  0  0  0  0  0
   -2.0047    4.6213    1.9503 H   0  0  0  0  0  0  0  0  0  0  0  0
   -6.1471    2.2063    0.4547 H   0  0  0  0  0  0  0  0  0  0  0  0
   -4.8618   -2.2579   -0.6109 H   0  0  0  0  0  0  0  0  0  0  0  0
   -6.7077   -3.6706   -1.3762 H   0  0  0  0  0  0  0  0  0  0  0  0
   -9.4359   -0.5432   -0.9769 H   0  0  0  0  0  0  0  0  0  0  0  0
   -7.6304    0.9291   -0.2019 H   0  0  0  0  0  0  0  0  0  0  0  0
    0.7018    1.2681   -0.0834 H   0  0  0  0  0  0  0  0  0  0  0  0
    4.4535   -0.6554   -2.2460 H   0  0  0  0  0  0  0  0  0  0  0  0
    6.7407   -0.4513   -3.1654 H   0  0  0  0  0  0  0  0  0  0  0  0
    8.5646    0.0890   -1.6610 H   0  0  0  0  0  0  0  0  0  0  0  0
    5.8972    0.2260    1.6330 H   0  0  0  0  0  0  0  0  0  0  0  0
  1  2  2  0
  2  3  1  0
  3  4  1  0
  4  5  2  0
  5  6  1  0
  6  7  2  0
  7  8  1  0
  8  9  1  0
  9 10  2  0
 10 11  1  0
 11 12  2  0
 12 13  1  0
 13 14  2  0
 14 15  1  0
 15 16  1  0
 16 17  2  0
 17 18  1  0
 18 19  2  0
 19 20  1  0
 20 21  2  0
 15 22  2  0
 22 23  1  0
  8 24  2  0
  2 25  1  0
 25 26  2  0
 26 27  1  0
 27 28  2  0
 28 29  1  0
 29 30  1  0
 30 31  1  0
 30 32  1  0
 30 33  1  0
 29 34  2  0
 24  4  1  0
 34 25  1  0
 23  9  1  0
 23 13  1  0
 21 16  1  0
  3 35  1  0
  5 36  1  0
  6 37  1  0
  7 38  1  0
 10 39  1  0
 11 40  1  0
 14 41  1  0
 17 42  1  0
 18 43  1  0
 20 44  1  0
 21 45  1  0
 24 46  1  0
 26 47  1  0
 27 48  1  0
 28 49  1  0
 34 50  1  0
M  END
$$$$
