@<TRIPOS>MOLECULE
*****
 50 54 0 0 0
SMALL
GASTEIGER

@<TRIPOS>ATOM
      1 O           3.5130   -0.1625    1.5506 O.2     1  UNL1       -0.2699
      2 C           3.6679   -0.3461    0.3177 C.2     1  UNL1        0.2483
      3 N           2.5140   -0.6565   -0.4485 N.am    1  UNL1       -0.2815
      4 C           1.2299   -0.7553    0.1616 C.ar    1  UNL1        0.0343
      5 C           0.8284   -1.9770    0.6385 C.ar    1  UNL1       -0.0404
      6 C          -0.4126   -2.1202    1.2395 C.ar    1  UNL1       -0.0594
      7 C          -1.2494   -1.0045    1.3535 C.ar    1  UNL1       -0.0524
      8 C          -0.8597    0.2292    0.8792 C.ar    1  UNL1        0.0023
      9 C          -1.7820    1.3463    1.0317 C.ar    1  UNL1        0.0763
     10 C          -1.3906    2.5965    1.4729 C.ar    1  UNL1       -0.0174
     11 C          -2.3005    3.6310    1.6035 C.ar    1  UNL1        0.0320
     12 N          -3.5924    3.3537    1.2767 N.ar    1  UNL1       -0.2360
     13 C          -3.9572    2.1447    0.8527 C.ar    1  UNL1        0.1566
     14 C          -5.2041    1.6674    0.4757 C.ar    1  UNL1        0.0102
     15 C          -5.0198    0.3489    0.1239 C.ar    1  UNL1        0.0954
     16 C          -6.0846   -0.5454   -0.3408 C.ar    1  UNL1        0.0050
     17 C          -5.8464   -1.8555   -0.6800 C.ar    1  UNL1       -0.0344
     18 C          -6.9040   -2.6321   -1.1088 C.ar    1  UNL1        0.0282
     19 N          -8.1580   -2.1704   -1.2116 N.ar    1  UNL1       -0.2632
     20 C          -8.4197   -0.8978   -0.8879 C.ar    1  UNL1        0.0282
     21 C          -7.3811   -0.0940   -0.4547 C.ar    1  UNL1       -0.0344
     22 N          -3.7282    0.0813    0.2908 N.ar    1  UNL1       -0.1644
     23 N          -3.0704    1.1377    0.7257 N.ar    1  UNL1       -0.2135
     24 C           0.3825    0.3244    0.2891 C.ar    1  UNL1       -0.0313
     25 C           5.0039   -0.2306   -0.2414 C.ar    1  UNL1        0.0376
     26 C           5.2567   -0.4172   -1.5821 C.ar    1  UNL1       -0.0496
     27 C           6.5501   -0.3025   -2.1059 C.ar    1  UNL1       -0.0605
     28 C           7.5813    0.0048   -1.2451 C.ar    1  UNL1       -0.0501
     29 C           7.3711    0.1994    0.1038 C.ar    1  UNL1        0.0555
     30 C           8.4952    0.5305    1.0195 C.3     1  UNL1        0.4174
     31 F           8.2013    0.2516    2.3248 F       1  UNL1       -0.1659
     32 F           9.5617   -0.2719    0.6484 F       1  UNL1       -0.1659
     33 F           8.8477    1.8643    0.8830 F       1  UNL1       -0.1659
     34 C           6.0782    0.0739    0.5633 C.ar    1  UNL1       -0.0380
     35 H           2.5889   -0.8168   -1.4686 H       1  UNL1        0.1551
     36 H           1.4415   -2.8651    0.5719 H       1  UNL1        0.0636
     37 H          -0.7340   -3.0756    1.6159 H       1  UNL1        0.0618
     38 H          -2.2151   -1.1218    1.8226 H       1  UNL1        0.0624
     39 H          -0.3734    2.7721    1.7177 H       1  UNL1        0.0654
     40 H          -2.0047    4.6213    1.9503 H       1  UNL1        0.0831
     41 H          -6.1471    2.2063    0.4547 H       1  UNL1        0.0677
     42 H          -4.8618   -2.2579   -0.6109 H       1  UNL1        0.0639
     43 H          -6.7077   -3.6706   -1.3762 H       1  UNL1        0.0830
     44 H          -9.4359   -0.5432   -0.9769 H       1  UNL1        0.0830
     45 H          -7.6304    0.9291   -0.2019 H       1  UNL1        0.0639
     46 H           0.7018    1.2681   -0.0834 H       1  UNL1        0.0643
     47 H           4.4535   -0.6554   -2.2460 H       1  UNL1        0.0625
     48 H           6.7407   -0.4513   -3.1654 H       1  UNL1        0.0618
     49 H           8.5646    0.0890   -1.6610 H       1  UNL1        0.0623
     50 H           5.8972    0.2260    1.6330 H       1  UNL1        0.0631
@<TRIPOS>BOND
     1     1     2    2
     2     2     3   am
     3     3     4    1
     4     4     5   ar
     5     5     6   ar
     6     6     7   ar
     7     7     8   ar
     8     8     9    1
     9     9    10   ar
    10    10    11   ar
    11    11    12   ar
    12    12    13   ar
    13    13    14   ar
    14    14    15   ar
    15    15    16    1
    16    16    17   ar
    17    17    18   ar
    18    18    19   ar
    19    19    20   ar
    20    20    21   ar
    21    15    22   ar
    22    22    23   ar
    23     8    24   ar
    24     2    25    1
    25    25    26   ar
    26    26    27   ar
    27    27    28   ar
    28    28    29   ar
    29    29    30    1
    30    30    31    1
    31    30    32    1
    32    30    33    1
    33    29    34   ar
    34    24     4   ar
    35    34    25   ar
    36    23     9   ar
    37    23    13   ar
    38    21    16   ar
    39     3    35    1
    40     5    36    1
    41     6    37    1
    42     7    38    1
    43    10    39    1
    44    11    40    1
    45    14    41    1
    46    17    42    1
    47    18    43    1
    48    20    44    1
    49    21    45    1
    50    24    46    1
    51    26    47    1
    52    27    48    1
    53    28    49    1
    54    34    50    1
