@<TRIPOS>MOLECULE
*****
 31 33 0 0 0
SMALL
GASTEIGER

@<TRIPOS>ATOM
      1 C          -1.9785    3.1144    2.1990 C.3     1  UNL1       -0.0064
      2 C          -1.7235    1.9104    1.3608 C.ar    1  UNL1        0.1069
      3 N          -0.5979    1.1650    1.4668 N.ar    1  UNL1       -0.2147
      4 C          -0.6955    0.1689    0.5740 C.ar    1  UNL1        0.1686
      5 C          -1.9010    0.3236   -0.0757 C.ar    1  UNL1        0.1491
      6 N          -2.5220    1.4029    0.4223 N.ar    1  UNL1       -0.3365
      7 C          -2.2381   -0.6049   -1.0669 C.ar    1  UNL1        0.2820
      8 O          -3.3318   -0.4796   -1.6689 O.2     1  UNL1       -0.2652
      9 N          -1.4208   -1.6186   -1.3834 N.ar    1  UNL1       -0.2622
     10 C          -1.7817   -2.5926   -2.4278 C.3     1  UNL1        0.0196
     11 C          -0.2578   -1.7207   -0.7173 C.ar    1  UNL1        0.3337
     12 O           0.5080   -2.6862   -1.0270 O.2     1  UNL1       -0.2462
     13 N           0.1108   -0.8548    0.2420 N.ar    1  UNL1       -0.2690
     14 C           1.3714   -1.0032    0.9326 C.3     1  UNL1        0.0873
     15 C           2.4519   -0.2724    0.2468 C.ar    1  UNL1        0.1246
     16 C           3.2979   -0.7109   -0.7335 C.ar    1  UNL1       -0.0189
     17 C           4.1246    0.3605   -1.0334 C.ar    1  UNL1       -0.0236
     18 C           3.7319    1.3963   -0.2134 C.ar    1  UNL1        0.0922
     19 O           2.7415    0.9889    0.5304 O.2     1  UNL1       -0.4660
     20 H          -1.0776    3.7292    2.3275 H       1  UNL1        0.0307
     21 H          -2.2839    2.7629    3.2014 H       1  UNL1        0.0307
     22 H          -2.8371    3.6751    1.7703 H       1  UNL1        0.0307
     23 H          -3.4425    1.7518    0.1184 H       1  UNL1        0.1673
     24 H          -0.8241   -3.0310   -2.7645 H       1  UNL1        0.0458
     25 H          -2.3482   -2.1093   -3.2376 H       1  UNL1        0.0458
     26 H          -2.3507   -3.3838   -1.8945 H       1  UNL1        0.0458
     27 H           1.2310   -0.6135    1.9639 H       1  UNL1        0.0574
     28 H           1.6660   -2.0732    0.9985 H       1  UNL1        0.0574
     29 H           3.2865   -1.6976   -1.1556 H       1  UNL1        0.0652
     30 H           4.9075    0.3260   -1.7777 H       1  UNL1        0.0649
     31 H           4.1839    2.3762   -0.2045 H       1  UNL1        0.1029
@<TRIPOS>BOND
     1     1     2    1
     2     2     3   ar
     3     3     4   ar
     4     4     5   ar
     5     5     6   ar
     6     5     7   ar
     7     7     8    2
     8     7     9   ar
     9     9    10    1
    10     9    11   ar
    11    11    12    2
    12    11    13   ar
    13    13    14    1
    14    14    15    1
    15    15    16   ar
    16    16    17   ar
    17    17    18   ar
    18    18    19   ar
    19     6     2   ar
    20    19    15   ar
    21    13     4   ar
    22     1    20    1
    23     1    21    1
    24     1    22    1
    25     6    23    1
    26    10    24    1
    27    10    25    1
    28    10    26    1
    29    14    27    1
    30    14    28    1
    31    16    29    1
    32    17    30    1
    33    18    31    1
