@<TRIPOS>MOLECULE
*****
 48 51 0 0 0
SMALL
GASTEIGER

@<TRIPOS>ATOM
      1 C          -3.0413    4.8359    1.2635 C.3     1  UNL1       -0.0135
      2 S          -1.6718    3.9692    0.4909 S.3     1  UNL1       -0.1286
      3 C          -1.8731    2.1992    0.6834 C.ar    1  UNL1        0.0080
      4 C          -2.9598    1.7142    1.3448 C.ar    1  UNL1       -0.0473
      5 C          -3.1100    0.3494    1.4906 C.ar    1  UNL1       -0.0466
      6 C          -2.1541   -0.4928    0.9619 C.ar    1  UNL1        0.0175
      7 C          -1.0346   -0.0372    0.2826 C.ar    1  UNL1       -0.0152
      8 C          -0.9322    1.3348    0.1645 C.ar    1  UNL1       -0.0426
      9 C           0.1017   -0.6773   -0.3614 C.3     1  UNL1        0.0408
     10 N           1.2209    0.2601   -0.3314 N.3     1  UNL1       -0.2927
     11 C           2.2936   -0.1362   -1.2255 C.3     1  UNL1        0.0123
     12 C           3.1463    1.1258   -1.4168 C.3     1  UNL1        0.0114
     13 N           3.5950    1.6175   -0.1530 N.3     1  UNL1       -0.3029
     14 C           3.1221    2.9292    0.1873 C.3     1  UNL1       -0.0127
     15 C           3.2744    0.7108    0.9232 C.3     1  UNL1        0.0114
     16 C           1.7985    0.3762    0.9892 C.3     1  UNL1        0.0123
     17 C           0.4776   -2.0400    0.0677 C.3     1  UNL1       -0.0068
     18 C          -0.5360   -3.0376   -0.4021 C.ar    1  UNL1       -0.0318
     19 C          -0.0350   -3.8781   -1.3899 C.ar    1  UNL1       -0.0575
     20 C          -0.8932   -4.8335   -1.8830 C.ar    1  UNL1       -0.0614
     21 C          -2.2011   -4.9792   -1.4389 C.ar    1  UNL1       -0.0607
     22 C          -2.6843   -4.1383   -0.4588 C.ar    1  UNL1       -0.0477
     23 C          -1.8396   -3.1888    0.0347 C.ar    1  UNL1        0.0160
     24 S          -2.6142   -2.1713    1.2958 S.3     1  UNL1       -0.0888
     25 H          -2.8324    5.9330    1.2102 H       1  UNL1        0.0344
     26 H          -3.9957    4.6952    0.6791 H       1  UNL1        0.0344
     27 H          -3.1800    4.5911    2.3327 H       1  UNL1        0.0344
     28 H          -3.7150    2.3819    1.7624 H       1  UNL1        0.0629
     29 H          -3.9883    0.0102    2.0230 H       1  UNL1        0.0629
     30 H          -0.0981    1.7848   -0.3488 H       1  UNL1        0.0632
     31 H          -0.1583   -0.7478   -1.4627 H       1  UNL1        0.0516
     32 H           2.8948   -0.9117   -0.7161 H       1  UNL1        0.0439
     33 H           1.8934   -0.4691   -2.1844 H       1  UNL1        0.0439
     34 H           2.4800    1.9189   -1.8592 H       1  UNL1        0.0439
     35 H           3.9534    0.9567   -2.1570 H       1  UNL1        0.0439
     36 H           2.8813    3.5532   -0.6990 H       1  UNL1        0.0391
     37 H           2.2823    2.9354    0.8956 H       1  UNL1        0.0391
     38 H           3.9789    3.4435    0.7137 H       1  UNL1        0.0391
     39 H           3.9251   -0.1636    0.8762 H       1  UNL1        0.0439
     40 H           3.5178    1.2298    1.8911 H       1  UNL1        0.0439
     41 H           1.6913   -0.5185    1.5999 H       1  UNL1        0.0439
     42 H           1.2972    1.2176    1.5066 H       1  UNL1        0.0439
     43 H           0.4340   -2.1072    1.1954 H       1  UNL1        0.0332
     44 H           1.4624   -2.2958   -0.3216 H       1  UNL1        0.0332
     45 H           0.9724   -3.7865   -1.7507 H       1  UNL1        0.0621
     46 H          -0.5862   -5.5419   -2.6645 H       1  UNL1        0.0618
     47 H          -2.8754   -5.7289   -1.8254 H       1  UNL1        0.0618
     48 H          -3.6847   -4.1923   -0.0668 H       1  UNL1        0.0629
@<TRIPOS>BOND
     1     1     2    1
     2     2     3    1
     3     3     4   ar
     4     4     5   ar
     5     5     6   ar
     6     6     7   ar
     7     7     8   ar
     8     7     9    1
     9     9    10    1
    10    10    11    1
    11    11    12    1
    12    12    13    1
    13    13    14    1
    14    13    15    1
    15    15    16    1
    16     9    17    1
    17    17    18    1
    18    18    19   ar
    19    19    20   ar
    20    20    21   ar
    21    21    22   ar
    22    22    23   ar
    23    23    24    1
    24     8     3   ar
    25    16    10    1
    26    23    18   ar
    27    24     6    1
    28     1    25    1
    29     1    26    1
    30     1    27    1
    31     4    28    1
    32     5    29    1
    33     8    30    1
    34     9    31    1
    35    11    32    1
    36    11    33    1
    37    12    34    1
    38    12    35    1
    39    14    36    1
    40    14    37    1
    41    14    38    1
    42    15    39    1
    43    15    40    1
    44    16    41    1
    45    16    42    1
    46    17    43    1
    47    17    44    1
    48    19    45    1
    49    20    46    1
    50    21    47    1
    51    22    48    1
