
     RDKit          3D

 61 68  0  0  0  0  0  0  0  0999 V2000
   -4.6083    1.7241   -1.3315 C   0  0  0  0  0  0  0  0  0  0  0  0
   -4.0611    0.4089   -1.0538 N   0  0  0  0  0  0  0  0  0  0  0  0
   -3.1979    0.4895    0.1183 C   0  0  2  0  0  0  0  0  0  0  0  0
   -2.0992    1.4687   -0.2195 C   0  0  0  0  0  0  0  0  0  0  0  0
   -1.2376    1.5727    1.0234 C   0  0  1  0  0  0  0  0  0  0  0  0
   -1.2520    0.5046    1.8214 O   0  0  0  0  0  0  0  0  0  0  0  0
   -1.3847   -0.7686    1.3129 C   0  0  1  0  0  0  0  0  0  0  0  0
   -1.7286   -1.6030    2.5676 C   0  0  0  0  0  0  0  0  0  0  0  0
   -2.4915   -0.8536    0.3299 C   0  0  2  0  0  0  0  0  0  0  0  0
   -2.0830   -1.2481   -0.9470 O   0  0  0  0  0  0  0  0  0  0  0  0
   -2.8321   -2.3746   -1.2845 C   0  0  0  0  0  0  0  0  0  0  0  0
   -0.0875   -1.2343    0.7921 N   0  0  0  0  0  0  0  0  0  0  0  0
    0.3024   -2.4953    0.6928 C   0  0  0  0  0  0  0  0  0  0  0  0
   -0.3054   -3.7144    0.9515 C   0  0  0  0  0  0  0  0  0  0  0  0
    0.3787   -4.9048    0.7344 C   0  0  0  0  0  0  0  0  0  0  0  0
    1.6689   -4.9405    0.2604 C   0  0  0  0  0  0  0  0  0  0  0  0
    2.2869   -3.7360   -0.0026 C   0  0  0  0  0  0  0  0  0  0  0  0
    1.6114   -2.5799    0.2124 C   0  0  0  0  0  0  0  0  0  0  0  0
    2.0176   -1.2760    0.0121 C   0  0  0  0  0  0  0  0  0  0  0  0
    3.1694   -0.6886   -0.4350 C   0  0  0  0  0  0  0  0  0  0  0  0
    3.2685    0.6929   -0.5251 C   0  0  0  0  0  0  0  0  0  0  0  0
    2.1951    1.5074   -0.1634 C   0  0  0  0  0  0  0  0  0  0  0  0
    1.9664    2.8585   -0.1529 C   0  0  0  0  0  0  0  0  0  0  0  0
    2.7252    3.9442   -0.4824 C   0  0  0  0  0  0  0  0  0  0  0  0
    2.1590    5.2100   -0.3472 C   0  0  0  0  0  0  0  0  0  0  0  0
    0.8736    5.4208    0.1019 C   0  0  0  0  0  0  0  0  0  0  0  0
    0.1429    4.2944    0.4235 C   0  0  0  0  0  0  0  0  0  0  0  0
    0.6577    3.0217    0.3070 C   0  0  0  0  0  0  0  0  0  0  0  0
    0.1175    1.8315    0.5638 N   0  0  0  0  0  0  0  0  0  0  0  0
    1.0293    0.8699    0.2909 C   0  0  0  0  0  0  0  0  0  0  0  0
    0.9554   -0.4969    0.3749 C   0  0  0  0  0  0  0  0  0  0  0  0
    4.5800    1.0014   -1.0095 C   0  0  0  0  0  0  0  0  0  0  0  0
    5.1334    2.0847   -1.2517 O   0  0  0  0  0  0  0  0  0  0  0  0
    5.2847   -0.2408   -1.2138 N   0  0  0  0  0  0  0  0  0  0  0  0
    4.4295   -1.3495   -0.8820 C   0  0  0  0  0  0  0  0  0  0  0  0
   -4.1655    2.1716   -2.2211 H   0  0  0  0  0  0  0  0  0  0  0  0
   -4.5176    2.3384   -0.4137 H   0  0  0  0  0  0  0  0  0  0  0  0
   -5.6918    1.5753   -1.5301 H   0  0  0  0  0  0  0  0  0  0  0  0
   -3.5177    0.1250   -1.9059 H   0  0  0  0  0  0  0  0  0  0  0  0
   -3.7571    0.8252    0.9864 H   0  0  0  0  0  0  0  0  0  0  0  0
   -2.4508    2.4563   -0.5114 H   0  0  0  0  0  0  0  0  0  0  0  0
   -1.4641    1.0827   -1.0507 H   0  0  0  0  0  0  0  0  0  0  0  0
   -1.6119    2.5014    1.5544 H   0  0  0  0  0  0  0  0  0  0  0  0
   -0.8456   -2.1352    2.9607 H   0  0  0  0  0  0  0  0  0  0  0  0
   -2.0020   -0.9183    3.4375 H   0  0  0  0  0  0  0  0  0  0  0  0
   -2.6417   -2.1925    2.4378 H   0  0  0  0  0  0  0  0  0  0  0  0
   -3.2861   -1.5222    0.7361 H   0  0  0  0  0  0  0  0  0  0  0  0
   -2.5681   -2.7563   -2.2938 H   0  0  0  0  0  0  0  0  0  0  0  0
   -3.9339   -2.1583   -1.3103 H   0  0  0  0  0  0  0  0  0  0  0  0
   -2.7182   -3.2065   -0.5685 H   0  0  0  0  0  0  0  0  0  0  0  0
   -1.3048   -3.7090    1.3040 H   0  0  0  0  0  0  0  0  0  0  0  0
   -0.1368   -5.8471    0.9518 H   0  0  0  0  0  0  0  0  0  0  0  0
    2.2283   -5.8476    0.0812 H   0  0  0  0  0  0  0  0  0  0  0  0
    3.3158   -3.7331   -0.3806 H   0  0  0  0  0  0  0  0  0  0  0  0
    3.7222    3.9053   -0.8374 H   0  0  0  0  0  0  0  0  0  0  0  0
    2.7526    6.0957   -0.6069 H   0  0  0  0  0  0  0  0  0  0  0  0
    0.4520    6.4248    0.1993 H   0  0  0  0  0  0  0  0  0  0  0  0
   -0.8649    4.4370    0.7768 H   0  0  0  0  0  0  0  0  0  0  0  0
    6.2765   -0.3397   -1.5541 H   0  0  0  0  0  0  0  0  0  0  0  0
    4.8981   -1.9548   -0.0812 H   0  0  0  0  0  0  0  0  0  0  0  0
    4.2483   -2.0188   -1.7497 H   0  0  0  0  0  0  0  0  0  0  0  0
  1  2  1  0
  2  3  1  0
  3  4  1  0
  4  5  1  0
  5  6  1  0
  6  7  1  0
  7  8  1  1
  7  9  1  0
  9 10  1  0
 10 11  1  0
  7 12  1  0
 12 13  1  0
 13 14  2  0
 14 15  1  0
 15 16  2  0
 16 17  1  0
 17 18  2  0
 18 19  1  0
 19 20  2  0
 20 21  1  0
 21 22  2  0
 22 23  1  0
 23 24  2  0
 24 25  1  0
 25 26  2  0
 26 27  1  0
 27 28  2  0
 28 29  1  0
 29 30  1  0
 30 31  2  0
 21 32  1  0
 32 33  2  0
 32 34  1  0
 34 35  1  0
  9  3  1  0
 31 12  1  0
 29  5  1  0
 18 13  1  0
 31 19  1  0
 35 20  1  0
 30 22  1  0
 28 23  1  0
  1 36  1  0
  1 37  1  0
  1 38  1  0
  2 39  1  0
  3 40  1  1
  4 41  1  0
  4 42  1  0
  5 43  1  1
  8 44  1  0
  8 45  1  0
  8 46  1  0
  9 47  1  1
 11 48  1  0
 11 49  1  0
 11 50  1  0
 14 51  1  0
 15 52  1  0
 16 53  1  0
 17 54  1  0
 24 55  1  0
 25 56  1  0
 26 57  1  0
 27 58  1  0
 34 59  1  0
 35 60  1  0
 35 61  1  0
M  END
$$$$
