@<TRIPOS>MOLECULE
*****
 61 68 0 0 0
SMALL
GASTEIGER

@<TRIPOS>ATOM
      1 C          -4.6083    1.7241   -1.3315 C.3     1  UNL1       -0.0155
      2 N          -4.0611    0.4089   -1.0538 N.3     1  UNL1       -0.3136
      3 C          -3.1979    0.4895    0.1183 C.3     1  UNL1        0.0423
      4 C          -2.0992    1.4687   -0.2195 C.3     1  UNL1        0.0107
      5 C          -1.2376    1.5727    1.0234 C.3     1  UNL1        0.1402
      6 O          -1.2520    0.5046    1.8214 O.3     1  UNL1       -0.3282
      7 C          -1.3847   -0.7686    1.3129 C.3     1  UNL1        0.1741
      8 C          -1.7286   -1.6030    2.5676 C.3     1  UNL1       -0.0136
      9 C          -2.4915   -0.8536    0.3299 C.3     1  UNL1        0.1214
     10 O          -2.0830   -1.2481   -0.9470 O.3     1  UNL1       -0.3735
     11 C          -2.8321   -2.3746   -1.2845 C.3     1  UNL1        0.0371
     12 N          -0.0875   -1.2343    0.7921 N.ar    1  UNL1       -0.3070
     13 C           0.3024   -2.4953    0.6928 C.ar    1  UNL1        0.0527
     14 C          -0.3054   -3.7144    0.9515 C.ar    1  UNL1       -0.0375
     15 C           0.3787   -4.9048    0.7344 C.ar    1  UNL1       -0.0598
     16 C           1.6689   -4.9405    0.2604 C.ar    1  UNL1       -0.0611
     17 C           2.2869   -3.7360   -0.0026 C.ar    1  UNL1       -0.0520
     18 C           1.6114   -2.5799    0.2124 C.ar    1  UNL1        0.0081
     19 C           2.0176   -1.2760    0.0121 C.ar    1  UNL1        0.0151
     20 C           3.1694   -0.6886   -0.4350 C.ar    1  UNL1       -0.0078
     21 C           3.2685    0.6929   -0.5251 C.ar    1  UNL1        0.0518
     22 C           2.1951    1.5074   -0.1634 C.ar    1  UNL1        0.0221
     23 C           1.9664    2.8585   -0.1529 C.ar    1  UNL1        0.0085
     24 C           2.7252    3.9442   -0.4824 C.ar    1  UNL1       -0.0520
     25 C           2.1590    5.2100   -0.3472 C.ar    1  UNL1       -0.0611
     26 C           0.8736    5.4208    0.1019 C.ar    1  UNL1       -0.0598
     27 C           0.1429    4.2944    0.4235 C.ar    1  UNL1       -0.0375
     28 C           0.6577    3.0217    0.3070 C.ar    1  UNL1        0.0524
     29 N           0.1175    1.8315    0.5638 N.ar    1  UNL1       -0.3115
     30 C           1.0293    0.8699    0.2909 C.ar    1  UNL1        0.0774
     31 C           0.9554   -0.4969    0.3749 C.ar    1  UNL1        0.0772
     32 C           4.5800    1.0014   -1.0095 C.2     1  UNL1        0.2453
     33 O           5.1334    2.0847   -1.2517 O.2     1  UNL1       -0.2702
     34 N           5.2847   -0.2408   -1.2138 N.am    1  UNL1       -0.3072
     35 C           4.4295   -1.3495   -0.8820 C.3     1  UNL1        0.0385
     36 H          -4.1655    2.1716   -2.2211 H       1  UNL1        0.0388
     37 H          -4.5176    2.3384   -0.4137 H       1  UNL1        0.0388
     38 H          -5.6918    1.5753   -1.5301 H       1  UNL1        0.0388
     39 H          -3.5177    0.1250   -1.9059 H       1  UNL1        0.1220
     40 H          -3.7571    0.8252    0.9864 H       1  UNL1        0.0489
     41 H          -2.4508    2.4563   -0.5114 H       1  UNL1        0.0325
     42 H          -1.4641    1.0827   -1.0507 H       1  UNL1        0.0325
     43 H          -1.6119    2.5014    1.5544 H       1  UNL1        0.0839
     44 H          -0.8456   -2.1352    2.9607 H       1  UNL1        0.0277
     45 H          -2.0020   -0.9183    3.4375 H       1  UNL1        0.0277
     46 H          -2.6417   -2.1925    2.4378 H       1  UNL1        0.0277
     47 H          -3.2861   -1.5222    0.7361 H       1  UNL1        0.0660
     48 H          -2.5681   -2.7563   -2.2938 H       1  UNL1        0.0524
     49 H          -3.9339   -2.1583   -1.3103 H       1  UNL1        0.0524
     50 H          -2.7182   -3.2065   -0.5685 H       1  UNL1        0.0524
     51 H          -1.3048   -3.7090    1.3040 H       1  UNL1        0.0638
     52 H          -0.1368   -5.8471    0.9518 H       1  UNL1        0.0618
     53 H           2.2283   -5.8476    0.0812 H       1  UNL1        0.0618
     54 H           3.3158   -3.7331   -0.3806 H       1  UNL1        0.0624
     55 H           3.7222    3.9053   -0.8374 H       1  UNL1        0.0624
     56 H           2.7526    6.0957   -0.6069 H       1  UNL1        0.0618
     57 H           0.4520    6.4248    0.1993 H       1  UNL1        0.0618
     58 H          -0.8649    4.4370    0.7768 H       1  UNL1        0.0638
     59 H           6.2765   -0.3397   -1.5541 H       1  UNL1        0.1493
     60 H           4.8981   -1.9548   -0.0812 H       1  UNL1        0.0512
     61 H           4.2483   -2.0188   -1.7497 H       1  UNL1        0.0512
@<TRIPOS>BOND
     1     1     2    1
     2     2     3    1
     3     3     4    1
     4     4     5    1
     5     5     6    1
     6     6     7    1
     7     7     8    1
     8     7     9    1
     9     9    10    1
    10    10    11    1
    11     7    12    1
    12    12    13   ar
    13    13    14   ar
    14    14    15   ar
    15    15    16   ar
    16    16    17   ar
    17    17    18   ar
    18    18    19   ar
    19    19    20   ar
    20    20    21   ar
    21    21    22   ar
    22    22    23   ar
    23    23    24   ar
    24    24    25   ar
    25    25    26   ar
    26    26    27   ar
    27    27    28   ar
    28    28    29   ar
    29    29    30   ar
    30    30    31   ar
    31    21    32    1
    32    32    33    2
    33    32    34   am
    34    34    35    1
    35     9     3    1
    36    31    12   ar
    37    29     5    1
    38    18    13   ar
    39    31    19   ar
    40    35    20    1
    41    30    22   ar
    42    28    23   ar
    43     1    36    1
    44     1    37    1
    45     1    38    1
    46     2    39    1
    47     3    40    1
    48     4    41    1
    49     4    42    1
    50     5    43    1
    51     8    44    1
    52     8    45    1
    53     8    46    1
    54     9    47    1
    55    11    48    1
    56    11    49    1
    57    11    50    1
    58    14    51    1
    59    15    52    1
    60    16    53    1
    61    17    54    1
    62    24    55    1
    63    25    56    1
    64    26    57    1
    65    27    58    1
    66    34    59    1
    67    35    60    1
    68    35    61    1
