@<TRIPOS>MOLECULE
*****
 63 66 0 0 0
SMALL
GASTEIGER

@<TRIPOS>ATOM
      1 C           0.7398    7.2248    0.1243 C.3     1  UNL1        0.0788
      2 O           0.6740    5.9677   -0.4726 O.3     1  UNL1       -0.4951
      3 C          -0.4081    5.1058   -0.3518 C.ar    1  UNL1        0.1204
      4 C          -1.5144    5.4606    0.3916 C.ar    1  UNL1       -0.0199
      5 C          -2.5699    4.5611    0.4799 C.ar    1  UNL1       -0.0580
      6 C          -2.5328    3.3473   -0.1477 C.ar    1  UNL1       -0.0568
      7 C          -1.4324    2.9835   -0.8922 C.ar    1  UNL1       -0.0266
      8 C          -1.3513    1.6857   -1.5893 C.3     1  UNL1        0.0413
      9 N          -0.7922    0.6214   -0.8009 N.am    1  UNL1       -0.2798
     10 C          -1.7022   -0.1511    0.0227 C.3     1  UNL1        0.0293
     11 C          -2.2548   -1.3507   -0.7168 C.3     1  UNL1        0.0148
     12 N          -3.1476   -2.0521    0.1894 N.3     1  UNL1       -0.3008
     13 C          -3.6665   -3.1943   -0.5311 C.3     1  UNL1       -0.0011
     14 C          -4.6748   -3.9761    0.2344 C.3     1  UNL1       -0.0402
     15 C          -5.2196   -3.2243    1.4348 C.3     1  UNL1       -0.0507
     16 C          -5.4529   -1.7960    0.9950 C.3     1  UNL1       -0.0402
     17 C          -4.1699   -1.1209    0.5771 C.3     1  UNL1       -0.0011
     18 C           0.5986    0.3689   -0.8560 C.2     1  UNL1        0.3068
     19 O           1.3111    1.0773   -1.5907 O.2     1  UNL1       -0.2523
     20 N           1.1936   -0.6518   -0.1106 N.am    1  UNL1       -0.2693
     21 C           2.5504   -1.0206   -0.0595 C.ar    1  UNL1        0.0348
     22 C           2.9493   -2.0861    0.7560 C.ar    1  UNL1       -0.0399
     23 C           4.2523   -2.5129    0.8668 C.ar    1  UNL1       -0.0522
     24 C           5.2365   -1.8896    0.1601 C.ar    1  UNL1       -0.0148
     25 C           6.6013   -2.3800    0.3123 C.ar    1  UNL1        0.0193
     26 C           7.6298   -2.3832   -0.6118 C.ar    1  UNL1        0.0568
     27 N           8.7221   -2.9303   -0.0516 N.ar    1  UNL1       -0.1817
     28 N           8.4070   -3.2664    1.1875 N.ar    1  UNL1       -0.2841
     29 C           7.1384   -2.9570    1.4612 C.ar    1  UNL1        0.0300
     30 C           4.9087   -0.8352   -0.6595 C.ar    1  UNL1       -0.0522
     31 C           3.5721   -0.4158   -0.7578 C.ar    1  UNL1       -0.0399
     32 C          -0.3900    3.8680   -0.9817 C.ar    1  UNL1       -0.0153
     33 H           1.4243    7.8512   -0.5168 H       1  UNL1        0.0660
     34 H           1.1381    7.1911    1.1713 H       1  UNL1        0.0660
     35 H          -0.2449    7.7235    0.0743 H       1  UNL1        0.0660
     36 H          -1.5770    6.4227    0.9062 H       1  UNL1        0.0654
     37 H          -3.4575    4.8327    1.0697 H       1  UNL1        0.0619
     38 H          -3.3967    2.7064   -0.0323 H       1  UNL1        0.0621
     39 H          -0.7888    1.7962   -2.5622 H       1  UNL1        0.0514
     40 H          -2.3989    1.4511   -1.9238 H       1  UNL1        0.0514
     41 H          -2.5599    0.5092    0.2765 H       1  UNL1        0.0478
     42 H          -1.2618   -0.4778    0.9624 H       1  UNL1        0.0478
     43 H          -2.8939   -0.9556   -1.5341 H       1  UNL1        0.0442
     44 H          -1.4560   -2.0216   -1.0747 H       1  UNL1        0.0442
     45 H          -2.7896   -3.8543   -0.7521 H       1  UNL1        0.0426
     46 H          -4.0636   -2.8870   -1.5191 H       1  UNL1        0.0426
     47 H          -4.2908   -4.9671    0.5640 H       1  UNL1        0.0278
     48 H          -5.5488   -4.1702   -0.4251 H       1  UNL1        0.0278
     49 H          -4.5498   -3.2767    2.3120 H       1  UNL1        0.0266
     50 H          -6.2120   -3.6620    1.6693 H       1  UNL1        0.0266
     51 H          -6.0993   -1.8343    0.0879 H       1  UNL1        0.0278
     52 H          -6.0138   -1.2000    1.7437 H       1  UNL1        0.0278
     53 H          -3.7963   -0.5763    1.4812 H       1  UNL1        0.0426
     54 H          -4.3203   -0.4026   -0.2520 H       1  UNL1        0.0426
     55 H           0.5311   -1.2172    0.4882 H       1  UNL1        0.1564
     56 H           2.1600   -2.5771    1.3154 H       1  UNL1        0.0636
     57 H           4.4462   -3.3584    1.5369 H       1  UNL1        0.0624
     58 H           7.5723   -2.0053   -1.6313 H       1  UNL1        0.0854
     59 H           9.0719   -3.7198    1.8696 H       1  UNL1        0.1882
     60 H           6.6100   -3.1163    2.3928 H       1  UNL1        0.0830
     61 H           5.6871   -0.3502   -1.2117 H       1  UNL1        0.0624
     62 H           3.3738    0.4143   -1.4143 H       1  UNL1        0.0636
     63 H           0.4991    3.6538   -1.5497 H       1  UNL1        0.0657
@<TRIPOS>BOND
     1     1     2    1
     2     2     3    1
     3     3     4   ar
     4     4     5   ar
     5     5     6   ar
     6     6     7   ar
     7     7     8    1
     8     8     9    1
     9     9    10    1
    10    10    11    1
    11    11    12    1
    12    12    13    1
    13    13    14    1
    14    14    15    1
    15    15    16    1
    16    16    17    1
    17     9    18   am
    18    18    19    2
    19    18    20   am
    20    20    21    1
    21    21    22   ar
    22    22    23   ar
    23    23    24   ar
    24    24    25    1
    25    25    26   ar
    26    26    27   ar
    27    27    28   ar
    28    28    29   ar
    29    24    30   ar
    30    30    31   ar
    31     7    32   ar
    32    32     3   ar
    33    17    12    1
    34    31    21   ar
    35    29    25   ar
    36     1    33    1
    37     1    34    1
    38     1    35    1
    39     4    36    1
    40     5    37    1
    41     6    38    1
    42     8    39    1
    43     8    40    1
    44    10    41    1
    45    10    42    1
    46    11    43    1
    47    11    44    1
    48    13    45    1
    49    13    46    1
    50    14    47    1
    51    14    48    1
    52    15    49    1
    53    15    50    1
    54    16    51    1
    55    16    52    1
    56    17    53    1
    57    17    54    1
    58    20    55    1
    59    22    56    1
    60    23    57    1
    61    26    58    1
    62    28    59    1
    63    29    60    1
    64    30    61    1
    65    31    62    1
    66    32    63    1
