@<TRIPOS>MOLECULE
*****
 43 46 0 0 0
SMALL
GASTEIGER

@<TRIPOS>ATOM
      1 C           7.1567    1.1406   -0.7333 C.3     1  UNL1       -0.0653
      2 C           6.2968   -0.0759   -0.8647 C.3     1  UNL1       -0.0556
      3 C           4.8385    0.2147   -0.5469 C.3     1  UNL1       -0.0493
      4 C           4.0619   -1.0847   -0.7116 C.3     1  UNL1       -0.0276
      5 C           2.6207   -0.8809   -0.4167 C.ar    1  UNL1       -0.0454
      6 C           1.7292   -0.5177   -1.4303 C.ar    1  UNL1       -0.0578
      7 C           0.3865   -0.3216   -1.1874 C.ar    1  UNL1       -0.0503
      8 C          -0.0794   -0.4945    0.1124 C.ar    1  UNL1        0.0260
      9 C           0.7638   -0.8512    1.1377 C.ar    1  UNL1        0.0516
     10 C           2.0958   -1.0364    0.8494 C.ar    1  UNL1       -0.0345
     11 N           0.2539   -1.0034    2.3734 N.ar    1  UNL1       -0.3203
     12 C          -1.0666   -0.8129    2.6245 C.ar    1  UNL1        0.2748
     13 O          -1.5424   -0.9556    3.7810 O.2     1  UNL1       -0.2656
     14 C          -1.9300   -0.4551    1.6123 C.ar    1  UNL1        0.1322
     15 N          -3.2610   -0.1941    1.5177 N.ar    1  UNL1       -0.3336
     16 C          -3.6218    0.1176    0.2764 C.ar    1  UNL1        0.1408
     17 C          -4.9077    0.4694   -0.3172 C.ar    1  UNL1        0.0356
     18 C          -4.9462    0.7500   -1.6988 C.ar    1  UNL1       -0.0497
     19 C          -6.1241    1.0866   -2.3148 C.ar    1  UNL1       -0.0610
     20 C          -7.2922    1.1560   -1.5913 C.ar    1  UNL1       -0.0603
     21 C          -7.2920    0.8928   -0.2626 C.ar    1  UNL1       -0.0427
     22 C          -6.0903    0.5513    0.3566 C.ar    1  UNL1        0.0516
     23 CL         -6.1400    0.2201    2.0745 Cl      1  UNL1       -0.0828
     24 N          -2.4515    0.0467   -0.4401 N.ar    1  UNL1       -0.2269
     25 C          -1.4305   -0.2950    0.3464 C.ar    1  UNL1        0.1039
     26 H           6.7797    1.8347    0.0446 H       1  UNL1        0.0230
     27 H           8.1988    0.8251   -0.4636 H       1  UNL1        0.0230
     28 H           7.2063    1.6606   -1.7185 H       1  UNL1        0.0230
     29 H           6.6376   -0.8855   -0.1892 H       1  UNL1        0.0263
     30 H           6.3107   -0.4973   -1.9054 H       1  UNL1        0.0263
     31 H           4.7039    0.5297    0.5020 H       1  UNL1        0.0268
     32 H           4.4335    1.0167   -1.1867 H       1  UNL1        0.0268
     33 H           4.2073   -1.3963   -1.7640 H       1  UNL1        0.0313
     34 H           4.5247   -1.8429   -0.0590 H       1  UNL1        0.0313
     35 H           2.1340   -0.3957   -2.4176 H       1  UNL1        0.0620
     36 H          -0.3113   -0.0384   -1.9751 H       1  UNL1        0.0625
     37 H           2.7497   -1.3155    1.6570 H       1  UNL1        0.0641
     38 H           0.8993   -1.2746    3.1488 H       1  UNL1        0.1690
     39 H          -3.8681   -0.2464    2.3385 H       1  UNL1        0.1675
     40 H          -4.0329    0.7013   -2.2924 H       1  UNL1        0.0625
     41 H          -6.1882    1.3090   -3.3791 H       1  UNL1        0.0618
     42 H          -8.2462    1.4225   -2.0596 H       1  UNL1        0.0618
     43 H          -8.1666    0.9262    0.3726 H       1  UNL1        0.0632
@<TRIPOS>BOND
     1     1     2    1
     2     2     3    1
     3     3     4    1
     4     4     5    1
     5     5     6   ar
     6     6     7   ar
     7     7     8   ar
     8     8     9   ar
     9     9    10   ar
    10     9    11   ar
    11    11    12   ar
    12    12    13    2
    13    12    14   ar
    14    14    15   ar
    15    15    16   ar
    16    16    17    1
    17    17    18   ar
    18    18    19   ar
    19    19    20   ar
    20    20    21   ar
    21    21    22   ar
    22    22    23    1
    23    16    24   ar
    24    24    25   ar
    25    10     5   ar
    26    25    14   ar
    27    25     8   ar
    28    22    17   ar
    29     1    26    1
    30     1    27    1
    31     1    28    1
    32     2    29    1
    33     2    30    1
    34     3    31    1
    35     3    32    1
    36     4    33    1
    37     4    34    1
    38     6    35    1
    39     7    36    1
    40    10    37    1
    41    11    38    1
    42    15    39    1
    43    18    40    1
    44    19    41    1
    45    20    42    1
    46    21    43    1
