
     RDKit          3D

 43 46  0  0  0  0  0  0  0  0999 V2000
    7.1567    1.1406   -0.7333 C   0  0  0  0  0  0  0  0  0  0  0  0
    6.2968   -0.0759   -0.8647 C   0  0  0  0  0  0  0  0  0  0  0  0
    4.8385    0.2147   -0.5469 C   0  0  0  0  0  0  0  0  0  0  0  0
    4.0619   -1.0847   -0.7116 C   0  0  0  0  0  0  0  0  0  0  0  0
    2.6207   -0.8809   -0.4167 C   0  0  0  0  0  0  0  0  0  0  0  0
    1.7292   -0.5177   -1.4303 C   0  0  0  0  0  0  0  0  0  0  0  0
    0.3865   -0.3216   -1.1874 C   0  0  0  0  0  0  0  0  0  0  0  0
   -0.0794   -0.4945    0.1124 C   0  0  0  0  0  0  0  0  0  0  0  0
    0.7638   -0.8512    1.1377 C   0  0  0  0  0  0  0  0  0  0  0  0
    2.0958   -1.0364    0.8494 C   0  0  0  0  0  0  0  0  0  0  0  0
    0.2539   -1.0034    2.3734 N   0  0  0  0  0  0  0  0  0  0  0  0
   -1.0666   -0.8129    2.6245 C   0  0  0  0  0  0  0  0  0  0  0  0
   -1.5424   -0.9556    3.7810 O   0  0  0  0  0  0  0  0  0  0  0  0
   -1.9300   -0.4551    1.6123 C   0  0  0  0  0  0  0  0  0  0  0  0
   -3.2610   -0.1941    1.5177 N   0  0  0  0  0  0  0  0  0  0  0  0
   -3.6218    0.1176    0.2764 C   0  0  0  0  0  0  0  0  0  0  0  0
   -4.9077    0.4694   -0.3172 C   0  0  0  0  0  0  0  0  0  0  0  0
   -4.9462    0.7500   -1.6988 C   0  0  0  0  0  0  0  0  0  0  0  0
   -6.1241    1.0866   -2.3148 C   0  0  0  0  0  0  0  0  0  0  0  0
   -7.2922    1.1560   -1.5913 C   0  0  0  0  0  0  0  0  0  0  0  0
   -7.2920    0.8928   -0.2626 C   0  0  0  0  0  0  0  0  0  0  0  0
   -6.0903    0.5513    0.3566 C   0  0  0  0  0  0  0  0  0  0  0  0
   -6.1400    0.2201    2.0745 Cl  0  0  0  0  0  0  0  0  0  0  0  0
   -2.4515    0.0467   -0.4401 N   0  0  0  0  0  0  0  0  0  0  0  0
   -1.4305   -0.2950    0.3464 C   0  0  0  0  0  0  0  0  0  0  0  0
    6.7797    1.8347    0.0446 H   0  0  0  0  0  0  0  0  0  0  0  0
    8.1988    0.8251   -0.4636 H   0  0  0  0  0  0  0  0  0  0  0  0
    7.2063    1.6606   -1.7185 H   0  0  0  0  0  0  0  0  0  0  0  0
    6.6376   -0.8855   -0.1892 H   0  0  0  0  0  0  0  0  0  0  0  0
    6.3107   -0.4973   -1.9054 H   0  0  0  0  0  0  0  0  0  0  0  0
    4.7039    0.5297    0.5020 H   0  0  0  0  0  0  0  0  0  0  0  0
    4.4335    1.0167   -1.1867 H   0  0  0  0  0  0  0  0  0  0  0  0
    4.2073   -1.3963   -1.7640 H   0  0  0  0  0  0  0  0  0  0  0  0
    4.5247   -1.8429   -0.0590 H   0  0  0  0  0  0  0  0  0  0  0  0
    2.1340   -0.3957   -2.4176 H   0  0  0  0  0  0  0  0  0  0  0  0
   -0.3113   -0.0384   -1.9751 H   0  0  0  0  0  0  0  0  0  0  0  0
    2.7497   -1.3155    1.6570 H   0  0  0  0  0  0  0  0  0  0  0  0
    0.8993   -1.2746    3.1488 H   0  0  0  0  0  0  0  0  0  0  0  0
   -3.8681   -0.2464    2.3385 H   0  0  0  0  0  0  0  0  0  0  0  0
   -4.0329    0.7013   -2.2924 H   0  0  0  0  0  0  0  0  0  0  0  0
   -6.1882    1.3090   -3.3791 H   0  0  0  0  0  0  0  0  0  0  0  0
   -8.2462    1.4225   -2.0596 H   0  0  0  0  0  0  0  0  0  0  0  0
   -8.1666    0.9262    0.3726 H   0  0  0  0  0  0  0  0  0  0  0  0
  1  2  1  0
  2  3  1  0
  3  4  1  0
  4  5  1  0
  5  6  2  0
  6  7  1  0
  7  8  2  0
  8  9  1  0
  9 10  2  0
  9 11  1  0
 11 12  1  0
 12 13  2  0
 12 14  1  0
 14 15  1  0
 15 16  1  0
 16 17  1  0
 17 18  2  0
 18 19  1  0
 19 20  2  0
 20 21  1  0
 21 22  2  0
 22 23  1  0
 16 24  2  0
 24 25  1  0
 10  5  1  0
 25 14  2  0
 25  8  1  0
 22 17  1  0
  1 26  1  0
  1 27  1  0
  1 28  1  0
  2 29  1  0
  2 30  1  0
  3 31  1  0
  3 32  1  0
  4 33  1  0
  4 34  1  0
  6 35  1  0
  7 36  1  0
 10 37  1  0
 11 38  1  0
 15 39  1  0
 18 40  1  0
 19 41  1  0
 20 42  1  0
 21 43  1  0
M  END
$$$$
