@<TRIPOS>MOLECULE
*****
 49 50 0 0 0
SMALL
GASTEIGER

@<TRIPOS>ATOM
      1 C          -1.7602   -4.0423    1.2496 C.3     1  UNL1       -0.0049
      2 C          -1.7556   -3.5166   -0.1493 C.3     1  UNL1        0.1488
      3 N          -1.4637   -2.1074   -0.2269 N.ar    1  UNL1       -0.1882
      4 C          -0.1910   -1.7146   -0.3526 C.ar    1  UNL1        0.1962
      5 C           0.8705   -2.7354   -0.4078 C.3     1  UNL1        0.0216
      6 C           0.1242   -0.3808   -0.4292 C.ar    1  UNL1        0.1338
      7 C           1.5160   -0.0243   -0.5640 C.2     1  UNL1        0.3461
      8 O           1.9266    0.0646   -1.7411 O.2     1  UNL1       -0.2447
      9 O           2.4323    0.2264    0.4687 O.3     1  UNL1       -0.4583
     10 C           3.7747    0.5682    0.2017 C.3     1  UNL1        0.0978
     11 C           4.7185   -0.5532    0.6497 C.3     1  UNL1       -0.0280
     12 C           4.1894    1.9095    0.7112 C.3     1  UNL1       -0.0280
     13 C          -0.9039    0.5206   -0.3725 C.ar    1  UNL1        0.0241
     14 C          -0.5583    1.9330   -0.4547 C.ar    1  UNL1        0.0024
     15 C          -0.2988    2.6018    0.7317 C.ar    1  UNL1       -0.0526
     16 C           0.0318    3.9284    0.7318 C.ar    1  UNL1       -0.0611
     17 C           0.1010    4.5843   -0.4743 C.ar    1  UNL1       -0.0603
     18 C          -0.1470    3.9755   -1.7045 C.ar    1  UNL1       -0.0428
     19 C          -0.4771    2.6371   -1.6609 C.ar    1  UNL1        0.0487
     20 CL         -0.8052    1.7859   -3.1436 Cl      1  UNL1       -0.0829
     21 C          -2.2482    0.1527   -0.2414 C.ar    1  UNL1        0.1458
     22 C          -3.2776    1.1761   -0.1891 C.2     1  UNL1        0.3441
     23 O          -3.6172    1.6673    1.0756 O.3     1  UNL1       -0.4770
     24 O          -3.9308    1.7066   -1.1200 O.2     1  UNL1       -0.2449
     25 C          -2.4503   -1.2001   -0.1739 C.ar    1  UNL1        0.3070
     26 C          -3.8578   -1.5782   -0.0347 C.2     1  UNL1        0.4028
     27 O          -4.6401   -2.7048    0.0782 O.3     1  UNL1       -0.4730
     28 O          -4.8440   -0.7691    0.0212 O.2     1  UNL1       -0.2384
     29 H          -2.7401   -4.5561    1.4026 H       1  UNL1        0.0291
     30 H          -0.9860   -4.8182    1.4153 H       1  UNL1        0.0291
     31 H          -1.6143   -3.2583    2.0104 H       1  UNL1        0.0291
     32 H          -0.9740   -4.0964   -0.7183 H       1  UNL1        0.1028
     33 H          -2.6914   -3.7034   -0.7125 H       1  UNL1        0.1028
     34 H           1.8593   -2.2715   -0.1190 H       1  UNL1        0.0336
     35 H           0.9417   -3.1636   -1.4211 H       1  UNL1        0.0336
     36 H           0.7417   -3.5660    0.3166 H       1  UNL1        0.0336
     37 H           3.8683    0.5764   -0.9128 H       1  UNL1        0.0728
     38 H           5.6407   -0.4361    0.0455 H       1  UNL1        0.0265
     39 H           4.2677   -1.5054    0.3143 H       1  UNL1        0.0265
     40 H           4.8693   -0.4734    1.7329 H       1  UNL1        0.0265
     41 H           3.8404    2.1509    1.7270 H       1  UNL1        0.0265
     42 H           5.3057    1.8938    0.7779 H       1  UNL1        0.0265
     43 H           3.9148    2.6614   -0.0494 H       1  UNL1        0.0265
     44 H          -0.3428    2.1233    1.6942 H       1  UNL1        0.0624
     45 H           0.2558    4.5631    1.5720 H       1  UNL1        0.0618
     46 H           0.3588    5.6478   -0.5678 H       1  UNL1        0.0618
     47 H          -0.0851    4.5180   -2.6428 H       1  UNL1        0.0632
     48 H          -3.9418    2.6413    1.1713 H       1  UNL1        0.2954
     49 H          -4.9468   -3.0388    0.9643 H       1  UNL1        0.2956
@<TRIPOS>UNITY_ATOM_ATTR
3 1
charge 1
@<TRIPOS>BOND
     1     1     2    1
     2     2     3    1
     3     3     4   ar
     4     4     5    1
     5     4     6   ar
     6     6     7    1
     7     7     8    2
     8     7     9    1
     9     9    10    1
    10    10    11    1
    11    10    12    1
    12     6    13   ar
    13    13    14    1
    14    14    15   ar
    15    15    16   ar
    16    16    17   ar
    17    17    18   ar
    18    18    19   ar
    19    19    20    1
    20    13    21   ar
    21    21    22    1
    22    22    23    1
    23    22    24    2
    24    21    25   ar
    25    25    26    1
    26    26    27    1
    27    26    28    2
    28    25     3   ar
    29    19    14   ar
    30     1    29    1
    31     1    30    1
    32     1    31    1
    33     2    32    1
    34     2    33    1
    35     5    34    1
    36     5    35    1
    37     5    36    1
    38    10    37    1
    39    11    38    1
    40    11    39    1
    41    11    40    1
    42    12    41    1
    43    12    42    1
    44    12    43    1
    45    15    44    1
    46    16    45    1
    47    17    46    1
    48    18    47    1
    49    23    48    1
    50    27    49    1
