@<TRIPOS>MOLECULE
*****
 59 61 0 0 0
SMALL
GASTEIGER

@<TRIPOS>ATOM
      1 C          -0.9717   -1.5435    2.8170 C.3     1  UNL1       -0.0585
      2 C          -1.1308   -2.0457    1.3594 C.3     1  UNL1       -0.0183
      3 C          -1.8306   -3.3975    1.4914 C.3     1  UNL1       -0.0585
      4 C          -2.0358   -1.0825    0.6974 C.ar    1  UNL1       -0.0056
      5 C          -3.3960   -1.2296    0.9985 C.ar    1  UNL1        0.0334
      6 N          -4.3338   -0.4097    0.5310 N.ar    1  UNL1       -0.2545
      7 C          -4.0093    0.6207   -0.2700 C.ar    1  UNL1        0.0755
      8 C          -5.0427    1.5249   -0.7842 C.ar    1  UNL1        0.0369
      9 C          -4.7820    2.5894   -1.6010 C.ar    1  UNL1       -0.0314
     10 C          -5.7949    3.4313   -2.0726 C.ar    1  UNL1        0.0418
     11 CL         -5.4128    4.7803   -3.1152 Cl      1  UNL1       -0.0835
     12 C          -7.0937    3.1777   -1.7011 C.ar    1  UNL1       -0.0406
     13 C          -7.3356    2.0924   -0.8717 C.ar    1  UNL1       -0.0244
     14 C          -6.3468    1.2667   -0.4085 C.ar    1  UNL1        0.1326
     15 F          -6.6184    0.2051    0.4077 F       1  UNL1       -0.2048
     16 C          -2.6838    0.8005   -0.5916 C.ar    1  UNL1       -0.0141
     17 C          -1.6809   -0.0501   -0.1123 C.ar    1  UNL1        0.0383
     18 N          -0.2940    0.1750   -0.4518 N.pl3   1  UNL1       -0.3135
     19 C           0.3818   -0.7646   -1.2636 C.ar    1  UNL1        0.0465
     20 C          -0.3503   -1.8407   -1.7964 C.ar    1  UNL1       -0.0217
     21 C           0.3039   -2.7370   -2.5861 C.ar    1  UNL1        0.0293
     22 N           1.6171   -2.6158   -2.8627 N.ar    1  UNL1       -0.2624
     23 C           2.3389   -1.6005   -2.3677 C.ar    1  UNL1        0.0415
     24 C           1.7128   -0.6585   -1.5543 C.ar    1  UNL1        0.0758
     25 C           2.5618    0.4098   -1.0074 C.2     1  UNL1        0.2474
     26 O           2.1150    1.2272   -0.1336 O.2     1  UNL1       -0.2701
     27 N           3.8958    0.5368   -1.4569 N.am    1  UNL1       -0.3100
     28 C           4.7201    1.6079   -0.8838 C.3     1  UNL1        0.0260
     29 C           4.8662    1.3889    0.5959 C.3     1  UNL1        0.0326
     30 N           5.5009    0.0922    0.7648 N.3     1  UNL1       -0.1933
     31 S           5.7309   -0.2892    2.4308 S.O2    1  UNL1        0.0266
     32 C           6.7845    0.8751    3.2208 C.3     1  UNL1        0.0705
     33 O           6.3419   -1.6774    2.4747 O.2     1  UNL1       -0.1585
     34 O           4.4291   -0.3632    3.1448 O.2     1  UNL1       -0.1585
     35 H          -0.6436   -0.4998    2.8245 H       1  UNL1        0.0235
     36 H          -0.3364   -2.2384    3.3690 H       1  UNL1        0.0235
     37 H          -1.9967   -1.5975    3.2453 H       1  UNL1        0.0235
     38 H          -0.1365   -2.1396    0.9366 H       1  UNL1        0.0344
     39 H          -1.1071   -4.2347    1.4638 H       1  UNL1        0.0235
     40 H          -2.5006   -3.5200    0.6152 H       1  UNL1        0.0235
     41 H          -2.4352   -3.4380    2.4222 H       1  UNL1        0.0235
     42 H          -3.7225   -2.0564    1.6506 H       1  UNL1        0.0833
     43 H          -3.7811    2.8301   -1.9205 H       1  UNL1        0.0639
     44 H          -7.9190    3.7749   -2.0203 H       1  UNL1        0.0633
     45 H          -8.3572    1.8960   -0.5818 H       1  UNL1        0.0647
     46 H          -2.3994    1.6215   -1.2336 H       1  UNL1        0.0658
     47 H           0.0970    1.0352   -0.0705 H       1  UNL1        0.1522
     48 H          -1.3867   -1.9248   -1.5700 H       1  UNL1        0.0651
     49 H          -0.1971   -3.5962   -3.0346 H       1  UNL1        0.0830
     50 H           3.3856   -1.5179   -2.5903 H       1  UNL1        0.0838
     51 H           4.3729   -0.0482   -2.1669 H       1  UNL1        0.1491
     52 H           4.2723    2.6020   -1.1100 H       1  UNL1        0.0475
     53 H           5.7369    1.6069   -1.3141 H       1  UNL1        0.0475
     54 H           5.5321    2.2109    0.9579 H       1  UNL1        0.0456
     55 H           3.9439    1.3911    1.1718 H       1  UNL1        0.0456
     56 H           6.3673   -0.0105    0.2256 H       1  UNL1        0.1476
     57 H           6.1737    1.5498    3.8282 H       1  UNL1        0.0479
     58 H           7.5264    0.3245    3.8548 H       1  UNL1        0.0479
     59 H           7.3543    1.4828    2.4847 H       1  UNL1        0.0479
@<TRIPOS>BOND
     1     1     2    1
     2     2     3    1
     3     2     4    1
     4     4     5   ar
     5     5     6   ar
     6     6     7   ar
     7     7     8    1
     8     8     9   ar
     9     9    10   ar
    10    10    11    1
    11    10    12   ar
    12    12    13   ar
    13    13    14   ar
    14    14    15    1
    15     7    16   ar
    16    16    17   ar
    17    17    18    1
    18    18    19    1
    19    19    20   ar
    20    20    21   ar
    21    21    22   ar
    22    22    23   ar
    23    23    24   ar
    24    24    25    1
    25    25    26    2
    26    25    27   am
    27    27    28    1
    28    28    29    1
    29    29    30    1
    30    30    31    1
    31    31    32    1
    32    31    33    2
    33    31    34    2
    34    17     4   ar
    35    24    19   ar
    36    14     8   ar
    37     1    35    1
    38     1    36    1
    39     1    37    1
    40     2    38    1
    41     3    39    1
    42     3    40    1
    43     3    41    1
    44     5    42    1
    45     9    43    1
    46    12    44    1
    47    13    45    1
    48    16    46    1
    49    18    47    1
    50    20    48    1
    51    21    49    1
    52    23    50    1
    53    27    51    1
    54    28    52    1
    55    28    53    1
    56    29    54    1
    57    29    55    1
    58    30    56    1
    59    32    57    1
    60    32    58    1
    61    32    59    1
