@<TRIPOS>MOLECULE
*****
 81 87 0 0 0
SMALL
GASTEIGER

@<TRIPOS>ATOM
      1 C          -7.8193    4.2397   -1.6723 C.3     1  UNL1        0.0788
      2 O          -7.7508    3.7003   -0.3815 O.3     1  UNL1       -0.4951
      3 C          -7.2684    2.3868   -0.2276 C.ar    1  UNL1        0.1202
      4 C          -7.1786    1.8048    1.0167 C.ar    1  UNL1       -0.0179
      5 C          -6.7102    0.5269    1.1773 C.ar    1  UNL1       -0.0327
      6 C          -6.3098   -0.2203    0.0685 C.ar    1  UNL1        0.0677
      7 N          -5.8261   -1.5514    0.2747 N.ar    1  UNL1       -0.2181
      8 N          -6.3526   -2.6620   -0.1998 N.ar    1  UNL1       -0.1694
      9 C          -5.6627   -3.7392    0.1729 C.ar    1  UNL1        0.0679
     10 C          -5.9483   -5.1645   -0.1583 C.3     1  UNL1       -0.0025
     11 C          -6.0522   -5.3889   -1.6442 C.3     1  UNL1       -0.0572
     12 C          -7.2186   -5.5778    0.5583 C.3     1  UNL1       -0.0572
     13 C          -4.6214   -3.3018    0.9382 C.ar    1  UNL1        0.0018
     14 C          -4.7423   -1.9301    0.9896 C.ar    1  UNL1        0.1299
     15 N          -3.8585   -1.0765    1.6948 N.am    1  UNL1       -0.2538
     16 C          -2.6929   -0.5448    1.0653 C.2     1  UNL1        0.3092
     17 O          -2.4051   -0.8178   -0.1364 O.2     1  UNL1       -0.2521
     18 N          -1.8008    0.3156    1.7565 N.am    1  UNL1       -0.2686
     19 C          -0.6256    0.8739    1.1867 C.ar    1  UNL1        0.0427
     20 C           0.5993    0.2795    1.2467 C.ar    1  UNL1       -0.0363
     21 C           1.6772    0.9213    0.6547 C.ar    1  UNL1       -0.0169
     22 C           1.5597    2.1173    0.0180 C.ar    1  UNL1        0.1381
     23 O           2.5706    2.8103   -0.5868 O.3     1  UNL1       -0.4373
     24 C           3.9059    2.5165   -0.7024 C.ar    1  UNL1        0.2249
     25 C           4.7014    3.4465   -1.4062 C.ar    1  UNL1        0.0186
     26 C           6.0236    3.1786   -1.5339 C.ar    1  UNL1        0.0362
     27 N           6.5252    2.0640   -1.0001 N.ar    1  UNL1       -0.2225
     28 C           5.8192    1.1564   -0.3281 C.ar    1  UNL1        0.2226
     29 N           6.3734   -0.0029    0.2250 N.pl3   1  UNL1       -0.2835
     30 C           7.7270   -0.3459    0.2076 C.ar    1  UNL1        0.0346
     31 C           8.0839   -1.6442    0.6227 C.ar    1  UNL1       -0.0355
     32 C           9.3767   -2.0576    0.6505 C.ar    1  UNL1       -0.0233
     33 C           9.7279   -3.4255    1.0919 C.3     1  UNL1       -0.0376
     34 C          10.3851   -1.2066    0.2684 C.ar    1  UNL1        0.0687
     35 N          11.7247   -1.3781    0.2083 N.ar    1  UNL1       -0.2767
     36 N          12.2128   -0.2311   -0.2297 N.ar    1  UNL1       -0.1812
     37 C          11.2550    0.6736   -0.4558 C.ar    1  UNL1        0.0569
     38 C          10.0639    0.0597   -0.1387 C.ar    1  UNL1        0.0215
     39 C           8.7365    0.5050   -0.1741 C.ar    1  UNL1       -0.0298
     40 N           4.4811    1.4271   -0.1987 N.ar    1  UNL1       -0.1789
     41 C           0.3000    2.7440   -0.0526 C.ar    1  UNL1        0.0262
     42 C           0.1630    3.9557   -0.6932 C.ar    1  UNL1       -0.0505
     43 C          -1.0809    4.5340   -0.7399 C.ar    1  UNL1       -0.0611
     44 C          -2.1537    3.9015   -0.1536 C.ar    1  UNL1       -0.0611
     45 C          -2.0320    2.6934    0.4882 C.ar    1  UNL1       -0.0521
     46 C          -0.7628    2.0961    0.5396 C.ar    1  UNL1        0.0069
     47 C          -6.3981    0.3582   -1.1773 C.ar    1  UNL1       -0.0327
     48 C          -6.8706    1.6418   -1.3176 C.ar    1  UNL1       -0.0179
     49 H          -8.3769    3.5767   -2.3660 H       1  UNL1        0.0660
     50 H          -6.7657    4.3805   -2.0477 H       1  UNL1        0.0660
     51 H          -8.3353    5.2332   -1.6299 H       1  UNL1        0.0660
     52 H          -7.4873    2.3697    1.9060 H       1  UNL1        0.0655
     53 H          -6.6316    0.0469    2.1658 H       1  UNL1        0.0640
     54 H          -5.1464   -5.8191    0.2372 H       1  UNL1        0.0359
     55 H          -6.7729   -4.6792   -2.1139 H       1  UNL1        0.0236
     56 H          -5.0326   -5.3085   -2.0687 H       1  UNL1        0.0236
     57 H          -6.4220   -6.4217   -1.8008 H       1  UNL1        0.0236
     58 H          -7.8646   -4.6758    0.5954 H       1  UNL1        0.0236
     59 H          -6.9694   -5.8780    1.5941 H       1  UNL1        0.0236
     60 H          -7.7604   -6.3865    0.0433 H       1  UNL1        0.0236
     61 H          -3.8462   -3.9166    1.4157 H       1  UNL1        0.0671
     62 H          -4.0311   -0.8107    2.6830 H       1  UNL1        0.1578
     63 H          -2.0208    0.5538    2.7442 H       1  UNL1        0.1564
     64 H           0.6838   -0.6728    1.7545 H       1  UNL1        0.0637
     65 H           2.6602    0.4372    0.7069 H       1  UNL1        0.0655
     66 H           4.2076    4.3269   -1.8065 H       1  UNL1        0.0686
     67 H           6.6461    3.8993   -2.0811 H       1  UNL1        0.0832
     68 H           5.6903   -0.6630    0.6953 H       1  UNL1        0.1550
     69 H           7.3054   -2.3257    0.9258 H       1  UNL1        0.0639
     70 H           8.8495   -3.8681    1.6085 H       1  UNL1        0.0278
     71 H          10.0192   -4.0030    0.1901 H       1  UNL1        0.0278
     72 H          10.5599   -3.4164    1.8356 H       1  UNL1        0.0278
     73 H          12.2529   -2.2457    0.4604 H       1  UNL1        0.1889
     74 H          11.3738    1.6967   -0.8187 H       1  UNL1        0.0854
     75 H           8.5826    1.5075   -0.4963 H       1  UNL1        0.0643
     76 H           1.0365    4.4005   -1.1310 H       1  UNL1        0.0625
     77 H          -1.1935    5.5007   -1.2503 H       1  UNL1        0.0618
     78 H          -3.1373    4.3814   -0.2030 H       1  UNL1        0.0618
     79 H          -2.8801    2.1905    0.9528 H       1  UNL1        0.0624
     80 H          -6.0962   -0.1957   -2.0479 H       1  UNL1        0.0640
     81 H          -6.9487    2.1238   -2.3036 H       1  UNL1        0.0655
@<TRIPOS>BOND
     1     1     2    1
     2     2     3    1
     3     3     4   ar
     4     4     5   ar
     5     5     6   ar
     6     6     7    1
     7     7     8   ar
     8     8     9   ar
     9     9    10    1
    10    10    11    1
    11    10    12    1
    12     9    13   ar
    13    13    14   ar
    14    14    15    1
    15    15    16   am
    16    16    17    2
    17    16    18   am
    18    18    19    1
    19    19    20   ar
    20    20    21   ar
    21    21    22   ar
    22    22    23    1
    23    23    24    1
    24    24    25   ar
    25    25    26   ar
    26    26    27   ar
    27    27    28   ar
    28    28    29    1
    29    29    30    1
    30    30    31   ar
    31    31    32   ar
    32    32    33    1
    33    32    34   ar
    34    34    35   ar
    35    35    36   ar
    36    36    37   ar
    37    37    38   ar
    38    38    39   ar
    39    28    40   ar
    40    22    41   ar
    41    41    42   ar
    42    42    43   ar
    43    43    44   ar
    44    44    45   ar
    45    45    46   ar
    46     6    47   ar
    47    47    48   ar
    48    48     3   ar
    49    14     7   ar
    50    46    19   ar
    51    40    24   ar
    52    46    41   ar
    53    39    30   ar
    54    38    34   ar
    55     1    49    1
    56     1    50    1
    57     1    51    1
    58     4    52    1
    59     5    53    1
    60    10    54    1
    61    11    55    1
    62    11    56    1
    63    11    57    1
    64    12    58    1
    65    12    59    1
    66    12    60    1
    67    13    61    1
    68    15    62    1
    69    18    63    1
    70    20    64    1
    71    21    65    1
    72    25    66    1
    73    26    67    1
    74    29    68    1
    75    31    69    1
    76    33    70    1
    77    33    71    1
    78    33    72    1
    79    35    73    1
    80    37    74    1
    81    39    75    1
    82    42    76    1
    83    43    77    1
    84    44    78    1
    85    45    79    1
    86    47    80    1
    87    48    81    1
