
     RDKit          3D

125127  0  0  0  0  0  0  0  0999 V2000
  -15.3945    2.6399    3.7226 C   0  0  0  0  0  0  0  0  0  0  0  0
  -16.3617    2.4379    2.5732 C   0  0  0  0  0  0  0  0  0  0  0  0
  -16.2527    0.9745    2.1219 C   0  0  0  0  0  0  0  0  0  0  0  0
  -14.8605    0.6574    1.6686 C   0  0  0  0  0  0  0  0  0  0  0  0
  -14.6950   -0.8032    1.2367 C   0  0  0  0  0  0  0  0  0  0  0  0
  -13.2299   -0.9338    0.7943 C   0  0  0  0  0  0  0  0  0  0  0  0
  -12.8671   -2.3222    0.3891 C   0  0  0  0  0  0  0  0  0  0  0  0
  -11.4116   -2.3811   -0.0538 C   0  0  0  0  0  0  0  0  0  0  0  0
  -11.1430   -1.5284   -1.2632 C   0  0  0  0  0  0  0  0  0  0  0  0
   -9.6497   -1.6468   -1.5851 C   0  0  0  0  0  0  0  0  0  0  0  0
   -9.3101   -0.8764   -2.8286 C   0  0  0  0  0  0  0  0  0  0  0  0
   -7.8383   -0.9767   -3.0993 C   0  0  0  0  0  0  0  0  0  0  0  0
   -7.0157   -0.3311   -1.9735 C   0  0  0  0  0  0  0  0  0  0  0  0
   -7.4370    1.1266   -1.9181 C   0  0  0  0  0  0  0  0  0  0  0  0
   -8.2154    1.7081   -1.1791 O   0  0  0  0  0  0  0  0  0  0  0  0
   -6.8841    2.4343   -2.9698 S   0  0  0  0  0  0  0  0  0  0  0  0
   -5.5019    2.0019   -4.0234 C   0  0  0  0  0  0  0  0  0  0  0  0
   -4.2371    1.9472   -3.2367 C   0  0  0  0  0  0  0  0  0  0  0  0
   -3.0690    1.5344   -4.0334 N   0  0  0  0  0  0  0  0  0  0  0  0
   -1.7413    1.4728   -3.4207 C   0  0  0  0  0  0  0  0  0  0  0  0
   -2.1684    1.8680   -2.2892 O   0  0  0  0  0  0  0  0  0  0  0  0
   -0.8172    1.0200   -4.4487 C   0  0  0  0  0  0  0  0  0  0  0  0
    0.6195    0.9801   -4.1361 C   0  0  0  0  0  0  0  0  0  0  0  0
    1.1191    0.1994   -3.0780 N   0  0  0  0  0  0  0  0  0  0  0  0
    1.0185    0.1409   -1.7046 C   0  0  0  0  0  0  0  0  0  0  0  0
    0.3280    0.9312   -1.0161 O   0  0  0  0  0  0  0  0  0  0  0  0
    1.2970   -0.3928   -0.3717 C   0  0  2  0  0  0  0  0  0  0  0  0
    0.6222    0.3286    0.6180 O   0  0  0  0  0  0  0  0  0  0  0  0
    2.7879   -0.2279   -0.1418 C   0  0  0  0  0  0  0  0  0  0  0  0
    3.1876    1.2379   -0.2514 C   0  0  0  0  0  0  0  0  0  0  0  0
    3.5628   -1.0295   -1.1262 C   0  0  0  0  0  0  0  0  0  0  0  0
    3.2074   -0.6276    1.2758 C   0  0  0  0  0  0  0  0  0  0  0  0
    4.6094   -0.4025    1.2901 O   0  0  0  0  0  0  0  0  0  0  0  0
    5.2604   -0.4749    2.8255 P   0  0  0  0  0  0  0  0  0  0  0  0
    4.0159   -0.4796    3.9880 O   0  0  0  0  0  0  0  0  0  0  0  0
    6.0231   -1.7656    2.9910 O   0  0  0  0  0  0  0  0  0  0  0  0
    6.2820    0.8237    3.1764 O   0  0  0  0  0  0  0  0  0  0  0  0
    7.5207    1.0101    2.0566 P   0  0  0  0  0  0  0  0  0  0  0  0
    6.9455    1.4435    0.5321 O   0  0  0  0  0  0  0  0  0  0  0  0
    8.4023    2.1330    2.5419 O   0  0  0  0  0  0  0  0  0  0  0  0
    8.4547   -0.3949    1.9120 O   0  0  0  0  0  0  0  0  0  0  0  0
    9.6310   -0.1174    1.1822 C   0  0  0  0  0  0  0  0  0  0  0  0
   10.4634   -1.3645    1.0040 C   0  0  1  0  0  0  0  0  0  0  0  0
   11.5863   -1.0475    0.2817 O   0  0  0  0  0  0  0  0  0  0  0  0
   12.6894   -1.2025    1.0975 C   0  0  2  0  0  0  0  0  0  0  0  0
   12.1463   -0.9387    2.5082 C   0  0  2  0  0  0  0  0  0  0  0  0
   13.0498   -1.4698    3.4245 O   0  0  0  0  0  0  0  0  0  0  0  0
   10.9047   -1.8177    2.3893 C   0  0  2  0  0  0  0  0  0  0  0  0
   11.3436   -3.1214    2.3919 O   0  0  0  0  0  0  0  0  0  0  0  0
   10.5665   -4.1060    3.5125 P   0  0  0  0  0  0  0  0  0  0  0  0
   11.3281   -5.5951    3.6813 O   0  0  0  0  0  0  0  0  0  0  0  0
   10.6044   -3.3273    5.0102 O   0  0  0  0  0  0  0  0  0  0  0  0
    9.0822   -4.2777    3.1787 O   0  0  0  0  0  0  0  0  0  0  0  0
   13.7886   -0.3638    0.7494 N   0  0  0  0  0  0  0  0  0  0  0  0
   15.0647   -0.5367    1.1636 C   0  0  0  0  0  0  0  0  0  0  0  0
   15.8611    0.4206    0.6556 N   0  0  0  0  0  0  0  0  0  0  0  0
   15.0886    1.2258   -0.0987 C   0  0  0  0  0  0  0  0  0  0  0  0
   13.8031    0.7370   -0.0382 C   0  0  0  0  0  0  0  0  0  0  0  0
   12.7656    1.2842   -0.6686 N   0  0  0  0  0  0  0  0  0  0  0  0
   12.9724    2.3900   -1.4190 C   0  0  0  0  0  0  0  0  0  0  0  0
   14.2195    2.9293   -1.5249 N   0  0  0  0  0  0  0  0  0  0  0  0
   15.2673    2.3600   -0.8761 C   0  0  0  0  0  0  0  0  0  0  0  0
   16.5746    2.9237   -0.9866 N   0  0  0  0  0  0  0  0  0  0  0  0
  -15.1625    1.6411    4.1881 H   0  0  0  0  0  0  0  0  0  0  0  0
  -14.4920    3.1919    3.4216 H   0  0  0  0  0  0  0  0  0  0  0  0
  -15.8894    3.2624    4.5124 H   0  0  0  0  0  0  0  0  0  0  0  0
  -16.1017    3.0642    1.6925 H   0  0  0  0  0  0  0  0  0  0  0  0
  -17.4180    2.6008    2.8420 H   0  0  0  0  0  0  0  0  0  0  0  0
  -16.9812    0.8972    1.2772 H   0  0  0  0  0  0  0  0  0  0  0  0
  -16.5819    0.3259    2.9524 H   0  0  0  0  0  0  0  0  0  0  0  0
  -14.1417    0.8677    2.5132 H   0  0  0  0  0  0  0  0  0  0  0  0
  -14.5571    1.3237    0.8451 H   0  0  0  0  0  0  0  0  0  0  0  0
  -15.3116   -0.9795    0.3309 H   0  0  0  0  0  0  0  0  0  0  0  0
  -14.9509   -1.5165    2.0301 H   0  0  0  0  0  0  0  0  0  0  0  0
  -12.6496   -0.7067    1.7243 H   0  0  0  0  0  0  0  0  0  0  0  0
  -13.0454   -0.1954   -0.0054 H   0  0  0  0  0  0  0  0  0  0  0  0
  -12.9758   -3.0113    1.2454 H   0  0  0  0  0  0  0  0  0  0  0  0
  -13.5187   -2.7325   -0.4215 H   0  0  0  0  0  0  0  0  0  0  0  0
  -11.1601   -3.4402   -0.2802 H   0  0  0  0  0  0  0  0  0  0  0  0
  -10.7877   -2.0684    0.8032 H   0  0  0  0  0  0  0  0  0  0  0  0
  -11.3721   -0.4461   -1.0576 H   0  0  0  0  0  0  0  0  0  0  0  0
  -11.7165   -1.8394   -2.1465 H   0  0  0  0  0  0  0  0  0  0  0  0
   -9.1047   -1.2000   -0.7369 H   0  0  0  0  0  0  0  0  0  0  0  0
   -9.3886   -2.7040   -1.7185 H   0  0  0  0  0  0  0  0  0  0  0  0
   -9.8620   -1.3155   -3.6674 H   0  0  0  0  0  0  0  0  0  0  0  0
   -9.6467    0.1902   -2.7494 H   0  0  0  0  0  0  0  0  0  0  0  0
   -7.5103   -2.0203   -3.2427 H   0  0  0  0  0  0  0  0  0  0  0  0
   -7.5564   -0.4266   -4.0383 H   0  0  0  0  0  0  0  0  0  0  0  0
   -5.9757   -0.3598   -2.3050 H   0  0  0  0  0  0  0  0  0  0  0  0
   -7.1289   -0.8369   -1.0181 H   0  0  0  0  0  0  0  0  0  0  0  0
   -5.6595    1.0386   -4.5618 H   0  0  0  0  0  0  0  0  0  0  0  0
   -5.3882    2.7701   -4.8409 H   0  0  0  0  0  0  0  0  0  0  0  0
   -3.9626    2.9586   -2.8330 H   0  0  0  0  0  0  0  0  0  0  0  0
   -4.3094    1.2498   -2.3972 H   0  0  0  0  0  0  0  0  0  0  0  0
   -3.3534    1.3100   -5.0401 H   0  0  0  0  0  0  0  0  0  0  0  0
   -0.9231    1.7308   -5.3312 H   0  0  0  0  0  0  0  0  0  0  0  0
   -1.1797    0.0427   -4.8737 H   0  0  0  0  0  0  0  0  0  0  0  0
    0.9833    2.0448   -4.0177 H   0  0  0  0  0  0  0  0  0  0  0  0
    1.1612    0.6141   -5.0566 H   0  0  0  0  0  0  0  0  0  0  0  0
    1.7776   -0.6402   -3.1807 H   0  0  0  0  0  0  0  0  0  0  0  0
    1.0693   -1.4668   -0.2768 H   0  0  0  0  0  0  0  0  0  0  0  0
    0.6273   -0.1880    1.4510 H   0  0  0  0  0  0  0  0  0  0  0  0
    3.2792    1.5579   -1.2994 H   0  0  0  0  0  0  0  0  0  0  0  0
    4.2156    1.3146    0.1880 H   0  0  0  0  0  0  0  0  0  0  0  0
    2.4816    1.9056    0.2685 H   0  0  0  0  0  0  0  0  0  0  0  0
    4.5573   -1.3720   -0.7061 H   0  0  0  0  0  0  0  0  0  0  0  0
    3.8254   -0.4255   -1.9985 H   0  0  0  0  0  0  0  0  0  0  0  0
    3.0618   -2.0100   -1.3833 H   0  0  0  0  0  0  0  0  0  0  0  0
    2.6893    0.0358    2.0134 H   0  0  0  0  0  0  0  0  0  0  0  0
    2.9864   -1.6819    1.4544 H   0  0  0  0  0  0  0  0  0  0  0  0
    3.6329    0.4118    4.1468 H   0  0  0  0  0  0  0  0  0  0  0  0
    7.5607    1.2154   -0.1800 H   0  0  0  0  0  0  0  0  0  0  0  0
   10.1528    0.6677    1.7690 H   0  0  0  0  0  0  0  0  0  0  0  0
    9.2976    0.2469    0.1902 H   0  0  0  0  0  0  0  0  0  0  0  0
    9.8074   -2.1061    0.5190 H   0  0  0  0  0  0  0  0  0  0  0  0
   12.9443   -2.2898    1.1126 H   0  0  0  0  0  0  0  0  0  0  0  0
   11.8891    0.1125    2.6780 H   0  0  0  0  0  0  0  0  0  0  0  0
   13.7544   -0.8241    3.6287 H   0  0  0  0  0  0  0  0  0  0  0  0
   10.1395   -1.5896    3.1500 H   0  0  0  0  0  0  0  0  0  0  0  0
   10.9455   -6.3065    3.0794 H   0  0  0  0  0  0  0  0  0  0  0  0
   11.5282   -3.3521    5.3507 H   0  0  0  0  0  0  0  0  0  0  0  0
   15.4915   -1.3015    1.8105 H   0  0  0  0  0  0  0  0  0  0  0  0
   12.1662    2.8951   -1.9637 H   0  0  0  0  0  0  0  0  0  0  0  0
   16.7386    3.6059   -0.2235 H   0  0  0  0  0  0  0  0  0  0  0  0
   17.0353    2.4955   -1.8205 H   0  0  0  0  0  0  0  0  0  0  0  0
  1  2  1  0
  2  3  1  0
  3  4  1  0
  4  5  1  0
  5  6  1  0
  6  7  1  0
  7  8  1  0
  8  9  1  0
  9 10  1  0
 10 11  1  0
 11 12  1  0
 12 13  1  0
 13 14  1  0
 14 15  2  0
 14 16  1  0
 16 17  1  0
 17 18  1  0
 18 19  1  0
 19 20  1  0
 20 21  2  0
 20 22  1  0
 22 23  1  0
 23 24  1  0
 24 25  1  0
 25 26  2  0
 25 27  1  0
 27 28  1  0
 27 29  1  0
 29 30  1  0
 29 31  1  0
 29 32  1  0
 32 33  1  0
 33 34  1  0
 34 35  1  0
 34 36  2  0
 34 37  1  0
 37 38  1  0
 38 39  1  0
 38 40  2  0
 38 41  1  0
 41 42  1  0
 42 43  1  0
 43 44  1  0
 44 45  1  0
 45 46  1  0
 46 47  1  0
 46 48  1  0
 48 49  1  0
 49 50  1  0
 50 51  1  0
 50 52  1  0
 50 53  2  0
 45 54  1  0
 54 55  1  0
 55 56  2  0
 56 57  1  0
 57 58  2  0
 58 59  1  0
 59 60  2  0
 60 61  1  0
 61 62  2  0
 62 63  1  0
 48 43  1  0
 58 54  1  0
 62 57  1  0
  1 64  1  0
  1 65  1  0
  1 66  1  0
  2 67  1  0
  2 68  1  0
  3 69  1  0
  3 70  1  0
  4 71  1  0
  4 72  1  0
  5 73  1  0
  5 74  1  0
  6 75  1  0
  6 76  1  0
  7 77  1  0
  7 78  1  0
  8 79  1  0
  8 80  1  0
  9 81  1  0
  9 82  1  0
 10 83  1  0
 10 84  1  0
 11 85  1  0
 11 86  1  0
 12 87  1  0
 12 88  1  0
 13 89  1  0
 13 90  1  0
 17 91  1  0
 17 92  1  0
 18 93  1  0
 18 94  1  0
 19 95  1  0
 22 96  1  0
 22 97  1  0
 23 98  1  0
 23 99  1  0
 24100  1  0
 27101  1  6
 28102  1  0
 30103  1  0
 30104  1  0
 30105  1  0
 31106  1  0
 31107  1  0
 31108  1  0
 32109  1  0
 32110  1  0
 35111  1  0
 39112  1  0
 42113  1  0
 42114  1  0
 43115  1  6
 45116  1  1
 46117  1  1
 47118  1  0
 48119  1  1
 51120  1  0
 52121  1  0
 55122  1  0
 60123  1  0
 63124  1  0
 63125  1  0
M  END
$$$$
