@<TRIPOS>MOLECULE
*****
 125 127 0 0 0
SMALL
GASTEIGER

@<TRIPOS>ATOM
      1 C         -15.3945    2.6399    3.7226 C.3     1  UNL1       -0.0653
      2 C         -16.3617    2.4379    2.5732 C.3     1  UNL1       -0.0559
      3 C         -16.2527    0.9745    2.1219 C.3     1  UNL1       -0.0533
      4 C         -14.8605    0.6574    1.6686 C.3     1  UNL1       -0.0531
      5 C         -14.6950   -0.8032    1.2367 C.3     1  UNL1       -0.0531
      6 C         -13.2299   -0.9338    0.7943 C.3     1  UNL1       -0.0531
      7 C         -12.8671   -2.3222    0.3891 C.3     1  UNL1       -0.0531
      8 C         -11.4116   -2.3811   -0.0538 C.3     1  UNL1       -0.0531
      9 C         -11.1430   -1.5284   -1.2632 C.3     1  UNL1       -0.0531
     10 C          -9.6497   -1.6468   -1.5851 C.3     1  UNL1       -0.0530
     11 C          -9.3101   -0.8764   -2.8286 C.3     1  UNL1       -0.0526
     12 C          -7.8383   -0.9767   -3.0993 C.3     1  UNL1       -0.0455
     13 C          -7.0157   -0.3311   -1.9735 C.3     1  UNL1        0.0162
     14 C          -7.4370    1.1266   -1.9181 C.2     1  UNL1        0.1894
     15 O          -8.2154    1.7081   -1.1791 O.2     1  UNL1       -0.2852
     16 S          -6.8841    2.4343   -2.9698 S.3     1  UNL1       -0.0866
     17 C          -5.5019    2.0019   -4.0234 C.3     1  UNL1        0.0165
     18 C          -4.2371    1.9472   -3.2367 C.3     1  UNL1        0.0210
     19 N          -3.0690    1.5344   -4.0334 N.am    1  UNL1       -0.3145
     20 C          -1.7413    1.4728   -3.4207 C.2     1  UNL1        0.2145
     21 O          -2.1684    1.8680   -2.2892 O.2     1  UNL1       -0.2758
     22 C          -0.8172    1.0200   -4.4487 C.3     1  UNL1        0.0395
     23 C           0.6195    0.9801   -4.1361 C.3     1  UNL1        0.0199
     24 N           1.1191    0.1994   -3.0780 N.am    1  UNL1       -0.3127
     25 C           1.0185    0.1409   -1.7046 C.2     1  UNL1        0.2423
     26 O           0.3280    0.9312   -1.0161 O.2     1  UNL1       -0.2730
     27 C           1.2970   -0.3928   -0.3717 C.3     1  UNL1        0.1380
     28 O           0.6222    0.3286    0.6180 O.3     1  UNL1       -0.3820
     29 C           2.7879   -0.2279   -0.1418 C.3     1  UNL1        0.0235
     30 C           3.1876    1.2379   -0.2514 C.3     1  UNL1       -0.0549
     31 C           3.5628   -1.0295   -1.1262 C.3     1  UNL1       -0.0549
     32 C           3.2074   -0.6276    1.2758 C.3     1  UNL1        0.0670
     33 O           4.6094   -0.4025    1.2901 O.3     1  UNL1       -0.2857
     34 P           5.2604   -0.4749    2.8255 P.3     1  UNL1        0.4834
     35 O           4.0159   -0.4796    3.9880 O.3     1  UNL1       -0.3022
     36 O           6.0231   -1.7656    2.9910 O.2     1  UNL1       -0.2269
     37 O           6.2820    0.8237    3.1764 O.3     1  UNL1       -0.1861
     38 P           7.5207    1.0101    2.0566 P.3     1  UNL1        0.4835
     39 O           6.9455    1.4435    0.5321 O.3     1  UNL1       -0.3022
     40 O           8.4023    2.1330    2.5419 O.2     1  UNL1       -0.2269
     41 O           8.4547   -0.3949    1.9120 O.3     1  UNL1       -0.2837
     42 C           9.6310   -0.1174    1.1822 C.3     1  UNL1        0.0879
     43 C          10.4634   -1.3645    1.0040 C.3     1  UNL1        0.1142
     44 O          11.5863   -1.0475    0.2817 O.3     1  UNL1       -0.3456
     45 C          12.6894   -1.2025    1.0975 C.3     1  UNL1        0.1667
     46 C          12.1463   -0.9387    2.5082 C.3     1  UNL1        0.1294
     47 O          13.0498   -1.4698    3.4245 O.3     1  UNL1       -0.3846
     48 C          10.9047   -1.8177    2.3893 C.3     1  UNL1        0.1283
     49 O          11.3436   -3.1214    2.3919 O.3     1  UNL1       -0.2780
     50 P          10.5665   -4.1060    3.5125 P.3     1  UNL1        0.4728
     51 O          11.3281   -5.5951    3.6813 O.3     1  UNL1       -0.3026
     52 O          10.6044   -3.3273    5.0102 O.3     1  UNL1       -0.3026
     53 O           9.0822   -4.2777    3.1787 O.2     1  UNL1       -0.2275
     54 N          13.7886   -0.3638    0.7494 N.ar    1  UNL1       -0.2855
     55 C          15.0647   -0.5367    1.1636 C.ar    1  UNL1        0.1004
     56 N          15.8611    0.4206    0.6556 N.ar    1  UNL1       -0.2306
     57 C          15.0886    1.2258   -0.0987 C.ar    1  UNL1        0.1473
     58 C          13.8031    0.7370   -0.0382 C.ar    1  UNL1        0.1674
     59 N          12.7656    1.2842   -0.6686 N.ar    1  UNL1       -0.2159
     60 C          12.9724    2.3900   -1.4190 C.ar    1  UNL1        0.1205
     61 N          14.2195    2.9293   -1.5249 N.ar    1  UNL1       -0.2188
     62 C          15.2673    2.3600   -0.8761 C.ar    1  UNL1        0.1472
     63 N          16.5746    2.9237   -0.9866 N.pl3   1  UNL1       -0.3413
     64 H         -15.1625    1.6411    4.1881 H       1  UNL1        0.0230
     65 H         -14.4920    3.1919    3.4216 H       1  UNL1        0.0230
     66 H         -15.8894    3.2624    4.5124 H       1  UNL1        0.0230
     67 H         -16.1017    3.0642    1.6925 H       1  UNL1        0.0263
     68 H         -17.4180    2.6008    2.8420 H       1  UNL1        0.0263
     69 H         -16.9812    0.8972    1.2772 H       1  UNL1        0.0265
     70 H         -16.5819    0.3259    2.9524 H       1  UNL1        0.0265
     71 H         -14.1417    0.8677    2.5132 H       1  UNL1        0.0265
     72 H         -14.5571    1.3237    0.8451 H       1  UNL1        0.0265
     73 H         -15.3116   -0.9795    0.3309 H       1  UNL1        0.0265
     74 H         -14.9509   -1.5165    2.0301 H       1  UNL1        0.0265
     75 H         -12.6496   -0.7067    1.7243 H       1  UNL1        0.0265
     76 H         -13.0454   -0.1954   -0.0054 H       1  UNL1        0.0265
     77 H         -12.9758   -3.0113    1.2454 H       1  UNL1        0.0265
     78 H         -13.5187   -2.7325   -0.4215 H       1  UNL1        0.0265
     79 H         -11.1601   -3.4402   -0.2802 H       1  UNL1        0.0265
     80 H         -10.7877   -2.0684    0.8032 H       1  UNL1        0.0265
     81 H         -11.3721   -0.4461   -1.0576 H       1  UNL1        0.0265
     82 H         -11.7165   -1.8394   -2.1465 H       1  UNL1        0.0265
     83 H          -9.1047   -1.2000   -0.7369 H       1  UNL1        0.0265
     84 H          -9.3886   -2.7040   -1.7185 H       1  UNL1        0.0265
     85 H          -9.8620   -1.3155   -3.6674 H       1  UNL1        0.0265
     86 H          -9.6467    0.1902   -2.7494 H       1  UNL1        0.0265
     87 H          -7.5103   -2.0203   -3.2427 H       1  UNL1        0.0270
     88 H          -7.5564   -0.4266   -4.0383 H       1  UNL1        0.0270
     89 H          -5.9757   -0.3598   -2.3050 H       1  UNL1        0.0350
     90 H          -7.1289   -0.8369   -1.0181 H       1  UNL1        0.0350
     91 H          -5.6595    1.0386   -4.5618 H       1  UNL1        0.0396
     92 H          -5.3882    2.7701   -4.8409 H       1  UNL1        0.0396
     93 H          -3.9626    2.9586   -2.8330 H       1  UNL1        0.0470
     94 H          -4.3094    1.2498   -2.3972 H       1  UNL1        0.0470
     95 H          -3.3534    1.3100   -5.0401 H       1  UNL1        0.1487
     96 H          -0.9231    1.7308   -5.3312 H       1  UNL1        0.0374
     97 H          -1.1797    0.0427   -4.8737 H       1  UNL1        0.0374
     98 H           0.9833    2.0448   -4.0177 H       1  UNL1        0.0467
     99 H           1.1612    0.6141   -5.0566 H       1  UNL1        0.0467
    100 H           1.7776   -0.6402   -3.1807 H       1  UNL1        0.1488
    101 H           1.0693   -1.4668   -0.2768 H       1  UNL1        0.0696
    102 H           0.6273   -0.1880    1.4510 H       1  UNL1        0.2105
    103 H           3.2792    1.5579   -1.2994 H       1  UNL1        0.0237
    104 H           4.2156    1.3146    0.1880 H       1  UNL1        0.0237
    105 H           2.4816    1.9056    0.2685 H       1  UNL1        0.0237
    106 H           4.5573   -1.3720   -0.7061 H       1  UNL1        0.0237
    107 H           3.8254   -0.4255   -1.9985 H       1  UNL1        0.0237
    108 H           3.0618   -2.0100   -1.3833 H       1  UNL1        0.0237
    109 H           2.6893    0.0358    2.0134 H       1  UNL1        0.0572
    110 H           2.9864   -1.6819    1.4544 H       1  UNL1        0.0572
    111 H           3.6329    0.4118    4.1468 H       1  UNL1        0.2220
    112 H           7.5607    1.2154   -0.1800 H       1  UNL1        0.2220
    113 H          10.1528    0.6677    1.7690 H       1  UNL1        0.0592
    114 H           9.2976    0.2469    0.1902 H       1  UNL1        0.0592
    115 H           9.8074   -2.1061    0.5190 H       1  UNL1        0.0647
    116 H          12.9443   -2.2898    1.1126 H       1  UNL1        0.0866
    117 H          11.8891    0.1125    2.6780 H       1  UNL1        0.0666
    118 H          13.7544   -0.8241    3.6287 H       1  UNL1        0.2101
    119 H          10.1395   -1.5896    3.1500 H       1  UNL1        0.0656
    120 H          10.9455   -6.3065    3.0794 H       1  UNL1        0.2220
    121 H          11.5282   -3.3521    5.3507 H       1  UNL1        0.2220
    122 H          15.4915   -1.3015    1.8105 H       1  UNL1        0.1030
    123 H          12.1662    2.8951   -1.9637 H       1  UNL1        0.1048
    124 H          16.7386    3.6059   -0.2235 H       1  UNL1        0.1438
    125 H          17.0353    2.4955   -1.8205 H       1  UNL1        0.1438
@<TRIPOS>BOND
     1     1     2    1
     2     2     3    1
     3     3     4    1
     4     4     5    1
     5     5     6    1
     6     6     7    1
     7     7     8    1
     8     8     9    1
     9     9    10    1
    10    10    11    1
    11    11    12    1
    12    12    13    1
    13    13    14    1
    14    14    15    2
    15    14    16    1
    16    16    17    1
    17    17    18    1
    18    18    19    1
    19    19    20   am
    20    20    21    2
    21    20    22    1
    22    22    23    1
    23    23    24    1
    24    24    25   am
    25    25    26    2
    26    25    27    1
    27    27    28    1
    28    27    29    1
    29    29    30    1
    30    29    31    1
    31    29    32    1
    32    32    33    1
    33    33    34    1
    34    34    35    1
    35    34    36    2
    36    34    37    1
    37    37    38    1
    38    38    39    1
    39    38    40    2
    40    38    41    1
    41    41    42    1
    42    42    43    1
    43    43    44    1
    44    44    45    1
    45    45    46    1
    46    46    47    1
    47    46    48    1
    48    48    49    1
    49    49    50    1
    50    50    51    1
    51    50    52    1
    52    50    53    2
    53    45    54    1
    54    54    55   ar
    55    55    56   ar
    56    56    57   ar
    57    57    58   ar
    58    58    59   ar
    59    59    60   ar
    60    60    61   ar
    61    61    62   ar
    62    62    63    1
    63    48    43    1
    64    58    54   ar
    65    62    57   ar
    66     1    64    1
    67     1    65    1
    68     1    66    1
    69     2    67    1
    70     2    68    1
    71     3    69    1
    72     3    70    1
    73     4    71    1
    74     4    72    1
    75     5    73    1
    76     5    74    1
    77     6    75    1
    78     6    76    1
    79     7    77    1
    80     7    78    1
    81     8    79    1
    82     8    80    1
    83     9    81    1
    84     9    82    1
    85    10    83    1
    86    10    84    1
    87    11    85    1
    88    11    86    1
    89    12    87    1
    90    12    88    1
    91    13    89    1
    92    13    90    1
    93    17    91    1
    94    17    92    1
    95    18    93    1
    96    18    94    1
    97    19    95    1
    98    22    96    1
    99    22    97    1
   100    23    98    1
   101    23    99    1
   102    24   100    1
   103    27   101    1
   104    28   102    1
   105    30   103    1
   106    30   104    1
   107    30   105    1
   108    31   106    1
   109    31   107    1
   110    31   108    1
   111    32   109    1
   112    32   110    1
   113    35   111    1
   114    39   112    1
   115    42   113    1
   116    42   114    1
   117    43   115    1
   118    45   116    1
   119    46   117    1
   120    47   118    1
   121    48   119    1
   122    51   120    1
   123    52   121    1
   124    55   122    1
   125    60   123    1
   126    63   124    1
   127    63   125    1
