
     RDKit          3D

 54 56  0  0  0  0  0  0  0  0999 V2000
   -6.2494   -0.0297   -2.8420 C   0  0  0  0  0  0  0  0  0  0  0  0
   -5.2648   -0.2426   -1.6869 C   0  0  2  0  0  0  0  0  0  0  0  0
   -5.7908   -1.2819   -0.9224 O   0  0  0  0  0  0  0  0  0  0  0  0
   -5.1825    1.0431   -0.9287 C   0  0  0  0  0  0  0  0  0  0  0  0
   -4.3472    0.9700    0.2630 N   0  0  0  0  0  0  0  0  0  0  0  0
   -2.9473    0.6371    0.1784 C   0  0  0  0  0  0  0  0  0  0  0  0
   -2.5284    0.4240   -0.9978 O   0  0  0  0  0  0  0  0  0  0  0  0
   -2.0941    0.5547    1.3437 C   0  0  0  0  0  0  0  0  0  0  0  0
   -2.6392    0.7497    2.6236 C   0  0  0  0  0  0  0  0  0  0  0  0
   -1.9142    0.6759    3.7427 N   0  0  0  0  0  0  0  0  0  0  0  0
   -0.6140    0.4071    3.6750 C   0  0  0  0  0  0  0  0  0  0  0  0
   -0.0027    0.2047    2.4835 C   0  0  0  0  0  0  0  0  0  0  0  0
   -0.7562    0.2793    1.2899 C   0  0  0  0  0  0  0  0  0  0  0  0
   -0.0906    0.0571    0.0601 N   0  0  0  0  0  0  0  0  0  0  0  0
    1.2868   -0.2893    0.0822 C   0  0  0  0  0  0  0  0  0  0  0  0
    2.2212    0.6143   -0.4640 C   0  0  0  0  0  0  0  0  0  0  0  0
    3.5594    0.3685   -0.4849 C   0  0  0  0  0  0  0  0  0  0  0  0
    4.5601    1.2320   -1.0182 C   0  0  0  0  0  0  0  0  0  0  0  0
    5.9035    0.8421   -0.9683 C   0  0  0  0  0  0  0  0  0  0  0  0
    6.9283    1.6180   -1.4609 C   0  0  0  0  0  0  0  0  0  0  0  0
    8.5919    1.1025   -1.3828 Cl  0  0  0  0  0  0  0  0  0  0  0  0
    6.6305    2.8393   -2.0332 C   0  0  0  0  0  0  0  0  0  0  0  0
    5.3292    3.2386   -2.0923 C   0  0  0  0  0  0  0  0  0  0  0  0
    4.3093    2.4358   -1.5869 C   0  0  0  0  0  0  0  0  0  0  0  0
    3.0520    2.9453   -1.7051 F   0  0  0  0  0  0  0  0  0  0  0  0
    3.9616   -0.8078    0.0538 N   0  0  0  0  0  0  0  0  0  0  0  0
    3.1157   -1.6860    0.5765 C   0  0  0  0  0  0  0  0  0  0  0  0
    1.7362   -1.4520    0.6062 C   0  0  0  0  0  0  0  0  0  0  0  0
    0.9149   -2.4630    1.1099 N   0  0  0  0  0  0  0  0  0  0  0  0
    1.4650   -3.4822    2.0363 C   0  0  0  0  0  0  0  0  0  0  0  0
   -0.4728   -2.6721    0.7762 C   0  0  0  0  0  0  0  0  0  0  0  0
   -6.9557    0.7741   -2.5531 H   0  0  0  0  0  0  0  0  0  0  0  0
   -5.7140    0.2673   -3.7729 H   0  0  0  0  0  0  0  0  0  0  0  0
   -6.8527   -0.9647   -3.0121 H   0  0  0  0  0  0  0  0  0  0  0  0
   -4.3107   -0.5301   -2.1189 H   0  0  0  0  0  0  0  0  0  0  0  0
   -6.1953   -0.9469   -0.0728 H   0  0  0  0  0  0  0  0  0  0  0  0
   -6.1877    1.3650   -0.6499 H   0  0  0  0  0  0  0  0  0  0  0  0
   -4.7282    1.7942   -1.6415 H   0  0  0  0  0  0  0  0  0  0  0  0
   -4.7549    1.1589    1.1790 H   0  0  0  0  0  0  0  0  0  0  0  0
   -3.6925    0.9668    2.6906 H   0  0  0  0  0  0  0  0  0  0  0  0
   -0.0020    0.3419    4.5769 H   0  0  0  0  0  0  0  0  0  0  0  0
    1.0564   -0.0077    2.4208 H   0  0  0  0  0  0  0  0  0  0  0  0
   -0.5609    0.1421   -0.8446 H   0  0  0  0  0  0  0  0  0  0  0  0
    1.7949    1.5126   -0.8626 H   0  0  0  0  0  0  0  0  0  0  0  0
    6.1705   -0.1110   -0.5254 H   0  0  0  0  0  0  0  0  0  0  0  0
    7.4019    3.4863   -2.4351 H   0  0  0  0  0  0  0  0  0  0  0  0
    5.0980    4.2088   -2.5475 H   0  0  0  0  0  0  0  0  0  0  0  0
    3.4861   -2.6081    0.9921 H   0  0  0  0  0  0  0  0  0  0  0  0
    0.6772   -3.7622    2.7554 H   0  0  0  0  0  0  0  0  0  0  0  0
    2.3297   -3.0816    2.5958 H   0  0  0  0  0  0  0  0  0  0  0  0
    1.7029   -4.3672    1.4138 H   0  0  0  0  0  0  0  0  0  0  0  0
   -1.0792   -2.5081    1.6687 H   0  0  0  0  0  0  0  0  0  0  0  0
   -0.8007   -2.1705   -0.1440 H   0  0  0  0  0  0  0  0  0  0  0  0
   -0.5543   -3.7925    0.5607 H   0  0  0  0  0  0  0  0  0  0  0  0
  1  2  1  0
  2  3  1  0
  2  4  1  0
  4  5  1  0
  5  6  1  0
  6  7  2  0
  6  8  1  0
  8  9  2  0
  9 10  1  0
 10 11  2  0
 11 12  1  0
 12 13  2  0
 13 14  1  0
 14 15  1  0
 15 16  2  0
 16 17  1  0
 17 18  1  0
 18 19  2  0
 19 20  1  0
 20 21  1  0
 20 22  2  0
 22 23  1  0
 23 24  2  0
 24 25  1  0
 17 26  2  0
 26 27  1  0
 27 28  2  0
 28 29  1  0
 29 30  1  0
 29 31  1  0
 13  8  1  0
 28 15  1  0
 24 18  1  0
  1 32  1  0
  1 33  1  0
  1 34  1  0
  2 35  1  6
  3 36  1  0
  4 37  1  0
  4 38  1  0
  5 39  1  0
  9 40  1  0
 11 41  1  0
 12 42  1  0
 14 43  1  0
 16 44  1  0
 19 45  1  0
 22 46  1  0
 23 47  1  0
 27 48  1  0
 30 49  1  0
 30 50  1  0
 30 51  1  0
 31 52  1  0
 31 53  1  0
 31 54  1  0
M  END
$$$$
