@<TRIPOS>MOLECULE
*****
 54 56 0 0 0
SMALL
GASTEIGER

@<TRIPOS>ATOM
      1 C          -6.2494   -0.0297   -2.8420 C.3     1  UNL1       -0.0375
      2 C          -5.2648   -0.2426   -1.6869 C.3     1  UNL1        0.0679
      3 O          -5.7908   -1.2819   -0.9224 O.3     1  UNL1       -0.3905
      4 C          -5.1825    1.0431   -0.9287 C.3     1  UNL1        0.0377
      5 N          -4.3472    0.9700    0.2630 N.am    1  UNL1       -0.3088
      6 C          -2.9473    0.6371    0.1784 C.2     1  UNL1        0.2474
      7 O          -2.5284    0.4240   -0.9978 O.2     1  UNL1       -0.2701
      8 C          -2.0941    0.5547    1.3437 C.ar    1  UNL1        0.0758
      9 C          -2.6392    0.7497    2.6236 C.ar    1  UNL1        0.0415
     10 N          -1.9142    0.6759    3.7427 N.ar    1  UNL1       -0.2624
     11 C          -0.6140    0.4071    3.6750 C.ar    1  UNL1        0.0293
     12 C          -0.0027    0.2047    2.4835 C.ar    1  UNL1       -0.0217
     13 C          -0.7562    0.2793    1.2899 C.ar    1  UNL1        0.0465
     14 N          -0.0906    0.0571    0.0601 N.pl3   1  UNL1       -0.3123
     15 C           1.2868   -0.2893    0.0822 C.ar    1  UNL1        0.0562
     16 C           2.2212    0.6143   -0.4640 C.ar    1  UNL1       -0.0126
     17 C           3.5594    0.3685   -0.4849 C.ar    1  UNL1        0.0756
     18 C           4.5601    1.2320   -1.0182 C.ar    1  UNL1        0.0369
     19 C           5.9035    0.8421   -0.9683 C.ar    1  UNL1       -0.0314
     20 C           6.9283    1.6180   -1.4609 C.ar    1  UNL1        0.0418
     21 CL          8.5919    1.1025   -1.3828 Cl      1  UNL1       -0.0835
     22 C           6.6305    2.8393   -2.0332 C.ar    1  UNL1       -0.0406
     23 C           5.3292    3.2386   -2.0923 C.ar    1  UNL1       -0.0244
     24 C           4.3093    2.4358   -1.5869 C.ar    1  UNL1        0.1326
     25 F           3.0520    2.9453   -1.7051 F       1  UNL1       -0.2048
     26 N           3.9616   -0.8078    0.0538 N.ar    1  UNL1       -0.2529
     27 C           3.1157   -1.6860    0.5765 C.ar    1  UNL1        0.0511
     28 C           1.7362   -1.4520    0.6062 C.ar    1  UNL1        0.0690
     29 N           0.9149   -2.4630    1.1099 N.pl3   1  UNL1       -0.3334
     30 C           1.4650   -3.4822    2.0363 C.3     1  UNL1        0.0005
     31 C          -0.4728   -2.6721    0.7762 C.3     1  UNL1        0.0005
     32 H          -6.9557    0.7741   -2.5531 H       1  UNL1        0.0255
     33 H          -5.7140    0.2673   -3.7729 H       1  UNL1        0.0255
     34 H          -6.8527   -0.9647   -3.0121 H       1  UNL1        0.0255
     35 H          -4.3107   -0.5301   -2.1189 H       1  UNL1        0.0606
     36 H          -6.1953   -0.9469   -0.0728 H       1  UNL1        0.2098
     37 H          -6.1877    1.3650   -0.6499 H       1  UNL1        0.0487
     38 H          -4.7282    1.7942   -1.6415 H       1  UNL1        0.0487
     39 H          -4.7549    1.1589    1.1790 H       1  UNL1        0.1491
     40 H          -3.6925    0.9668    2.6906 H       1  UNL1        0.0838
     41 H          -0.0020    0.3419    4.5769 H       1  UNL1        0.0830
     42 H           1.0564   -0.0077    2.4208 H       1  UNL1        0.0651
     43 H          -0.5609    0.1421   -0.8446 H       1  UNL1        0.1522
     44 H           1.7949    1.5126   -0.8626 H       1  UNL1        0.0658
     45 H           6.1705   -0.1110   -0.5254 H       1  UNL1        0.0639
     46 H           7.4019    3.4863   -2.4351 H       1  UNL1        0.0633
     47 H           5.0980    4.2088   -2.5475 H       1  UNL1        0.0647
     48 H           3.4861   -2.6081    0.9921 H       1  UNL1        0.0849
     49 H           0.6772   -3.7622    2.7554 H       1  UNL1        0.0428
     50 H           2.3297   -3.0816    2.5958 H       1  UNL1        0.0428
     51 H           1.7029   -4.3672    1.4138 H       1  UNL1        0.0428
     52 H          -1.0792   -2.5081    1.6687 H       1  UNL1        0.0428
     53 H          -0.8007   -2.1705   -0.1440 H       1  UNL1        0.0428
     54 H          -0.5543   -3.7925    0.5607 H       1  UNL1        0.0428
@<TRIPOS>BOND
     1     1     2    1
     2     2     3    1
     3     2     4    1
     4     4     5    1
     5     5     6   am
     6     6     7    2
     7     6     8    1
     8     8     9   ar
     9     9    10   ar
    10    10    11   ar
    11    11    12   ar
    12    12    13   ar
    13    13    14    1
    14    14    15    1
    15    15    16   ar
    16    16    17   ar
    17    17    18    1
    18    18    19   ar
    19    19    20   ar
    20    20    21    1
    21    20    22   ar
    22    22    23   ar
    23    23    24   ar
    24    24    25    1
    25    17    26   ar
    26    26    27   ar
    27    27    28   ar
    28    28    29    1
    29    29    30    1
    30    29    31    1
    31    13     8   ar
    32    28    15   ar
    33    24    18   ar
    34     1    32    1
    35     1    33    1
    36     1    34    1
    37     2    35    1
    38     3    36    1
    39     4    37    1
    40     4    38    1
    41     5    39    1
    42     9    40    1
    43    11    41    1
    44    12    42    1
    45    14    43    1
    46    16    44    1
    47    19    45    1
    48    22    46    1
    49    23    47    1
    50    27    48    1
    51    30    49    1
    52    30    50    1
    53    30    51    1
    54    31    52    1
    55    31    53    1
    56    31    54    1
