@<TRIPOS>MOLECULE
*****
 59 61 0 0 0
SMALL
GASTEIGER

@<TRIPOS>ATOM
      1 C           3.4730   -2.8766   -0.5310 C.3     1  UNL1       -0.0374
      2 C           4.2031   -1.6651   -0.9130 C.ar    1  UNL1       -0.0165
      3 C           5.3423   -1.7711   -1.7426 C.ar    1  UNL1       -0.0131
      4 C           6.0938   -0.6844   -2.1058 C.ar    1  UNL1        0.1452
      5 O           7.1891   -0.8836   -2.9191 O.3     1  UNL1       -0.4327
      6 C           8.0682    0.0854   -3.3925 C.3     1  UNL1        0.3893
      7 F           9.3923   -0.2505   -3.0974 F       1  UNL1       -0.1663
      8 F           7.9945    0.0718   -4.7907 F       1  UNL1       -0.1663
      9 C           5.6755    0.5319   -1.6137 C.ar    1  UNL1        0.0703
     10 N           4.6018    0.6434   -0.8308 N.ar    1  UNL1       -0.2465
     11 C           3.8286   -0.4419   -0.4531 C.ar    1  UNL1        0.1288
     12 C           2.6641   -0.1591    0.3458 C.2     1  UNL1        0.2669
     13 O           2.6650    0.9629    0.9901 O.2     1  UNL1       -0.2682
     14 N           1.5054   -0.9070    0.5428 N.am    1  UNL1       -0.2790
     15 C           0.4186   -0.4832    1.3927 C.ar    1  UNL1        0.0506
     16 C          -0.6354    0.2698    0.9201 C.ar    1  UNL1       -0.0262
     17 C          -1.6596    0.6588    1.7612 C.ar    1  UNL1        0.0713
     18 C          -2.7445    1.4490    1.2251 C.3     1  UNL1        0.1982
     19 C          -2.6882    2.8412    1.8837 C.3     1  UNL1       -0.0111
     20 C          -4.1273    0.9502    1.4381 C.3     1  UNL1        0.1184
     21 S          -4.4690   -0.4061    0.3038 S.O2    1  UNL1       -0.0101
     22 O          -5.8911   -0.8440    0.4875 O.2     1  UNL1       -0.1731
     23 O          -3.5334   -1.5332    0.5043 O.2     1  UNL1       -0.1731
     24 C          -4.1963    0.2919   -1.3006 C.3     1  UNL1        0.1831
     25 C          -5.4797    1.0456   -1.6661 C.3     1  UNL1       -0.0288
     26 C          -3.9246   -0.7777   -2.3356 C.3     1  UNL1       -0.0288
     27 C          -3.0763    1.2555   -1.2018 C.2     1  UNL1        0.3067
     28 N          -2.5985    1.7183   -2.5037 N.pl3   1  UNL1       -0.2488
     29 N          -2.5313    1.6866   -0.1668 N.2     1  UNL1       -0.0726
     30 C          -1.5796    0.2584    3.0988 C.ar    1  UNL1        0.2588
     31 O          -2.5387    0.6427    3.8098 O.2     1  UNL1       -0.2672
     32 N          -0.5608   -0.4753    3.5773 N.ar    1  UNL1       -0.3161
     33 C          -0.5505   -0.8552    4.9951 C.3     1  UNL1        0.0148
     34 C           0.4031   -0.8263    2.7290 C.ar    1  UNL1        0.0288
     35 H           2.6725   -3.1974   -1.1908 H       1  UNL1        0.0278
     36 H           3.2621   -2.9594    0.5705 H       1  UNL1        0.0278
     37 H           4.2490   -3.7236   -0.6501 H       1  UNL1        0.0278
     38 H           5.6194   -2.7557   -2.0971 H       1  UNL1        0.0658
     39 H           7.8674    1.1162   -3.0863 H       1  UNL1        0.1520
     40 H           6.2537    1.4064   -1.8871 H       1  UNL1        0.0867
     41 H           1.3735   -1.7941    0.0596 H       1  UNL1        0.1552
     42 H          -0.6095    0.5316   -0.1315 H       1  UNL1        0.0642
     43 H          -1.6666    3.2096    1.6841 H       1  UNL1        0.0279
     44 H          -2.8711    2.7818    2.9540 H       1  UNL1        0.0279
     45 H          -3.4682    3.4455    1.3491 H       1  UNL1        0.0279
     46 H          -4.4332    0.7308    2.4541 H       1  UNL1        0.0550
     47 H          -4.8117    1.7592    1.0775 H       1  UNL1        0.0550
     48 H          -5.6216    1.0982   -2.7639 H       1  UNL1        0.0256
     49 H          -6.3222    0.4804   -1.2517 H       1  UNL1        0.0256
     50 H          -5.4252    2.0185   -1.1744 H       1  UNL1        0.0256
     51 H          -4.9108   -1.2028   -2.6201 H       1  UNL1        0.0256
     52 H          -3.2918   -1.5875   -1.9560 H       1  UNL1        0.0256
     53 H          -3.4276   -0.3386   -3.2256 H       1  UNL1        0.0256
     54 H          -2.8939    2.6656   -2.8024 H       1  UNL1        0.2881
     55 H          -2.0011    1.1580   -3.1122 H       1  UNL1        0.2881
     56 H          -1.5045   -1.3130    5.2976 H       1  UNL1        0.0457
     57 H           0.2343   -1.6337    5.0951 H       1  UNL1        0.0457
     58 H          -0.2444   -0.0007    5.6259 H       1  UNL1        0.0457
     59 H           1.2381   -1.4185    3.0866 H       1  UNL1        0.0829
@<TRIPOS>BOND
     1     1     2    1
     2     2     3   ar
     3     3     4   ar
     4     4     5    1
     5     5     6    1
     6     6     7    1
     7     6     8    1
     8     4     9   ar
     9     9    10   ar
    10    10    11   ar
    11    11    12    1
    12    12    13    2
    13    12    14   am
    14    14    15    1
    15    15    16   ar
    16    16    17   ar
    17    17    18    1
    18    18    19    1
    19    18    20    1
    20    20    21    1
    21    21    22    2
    22    21    23    2
    23    21    24    1
    24    24    25    1
    25    24    26    1
    26    24    27    1
    27    27    28    1
    28    27    29    2
    29    17    30   ar
    30    30    31    2
    31    30    32   ar
    32    32    33    1
    33    32    34   ar
    34    11     2   ar
    35    34    15   ar
    36    29    18    1
    37     1    35    1
    38     1    36    1
    39     1    37    1
    40     3    38    1
    41     6    39    1
    42     9    40    1
    43    14    41    1
    44    16    42    1
    45    19    43    1
    46    19    44    1
    47    19    45    1
    48    20    46    1
    49    20    47    1
    50    25    48    1
    51    25    49    1
    52    25    50    1
    53    26    51    1
    54    26    52    1
    55    26    53    1
    56    28    54    1
    57    28    55    1
    58    33    56    1
    59    33    57    1
    60    33    58    1
    61    34    59    1
