
     RDKit          3D

 59 61  0  0  0  0  0  0  0  0999 V2000
    3.4730   -2.8766   -0.5310 C   0  0  0  0  0  0  0  0  0  0  0  0
    4.2031   -1.6651   -0.9130 C   0  0  0  0  0  0  0  0  0  0  0  0
    5.3423   -1.7711   -1.7426 C   0  0  0  0  0  0  0  0  0  0  0  0
    6.0938   -0.6844   -2.1058 C   0  0  0  0  0  0  0  0  0  0  0  0
    7.1891   -0.8836   -2.9191 O   0  0  0  0  0  0  0  0  0  0  0  0
    8.0682    0.0854   -3.3925 C   0  0  0  0  0  0  0  0  0  0  0  0
    9.3923   -0.2505   -3.0974 F   0  0  0  0  0  0  0  0  0  0  0  0
    7.9945    0.0718   -4.7907 F   0  0  0  0  0  0  0  0  0  0  0  0
    5.6755    0.5319   -1.6137 C   0  0  0  0  0  0  0  0  0  0  0  0
    4.6018    0.6434   -0.8308 N   0  0  0  0  0  0  0  0  0  0  0  0
    3.8286   -0.4419   -0.4531 C   0  0  0  0  0  0  0  0  0  0  0  0
    2.6641   -0.1591    0.3458 C   0  0  0  0  0  0  0  0  0  0  0  0
    2.6650    0.9629    0.9901 O   0  0  0  0  0  0  0  0  0  0  0  0
    1.5054   -0.9070    0.5428 N   0  0  0  0  0  0  0  0  0  0  0  0
    0.4186   -0.4832    1.3927 C   0  0  0  0  0  0  0  0  0  0  0  0
   -0.6354    0.2698    0.9201 C   0  0  0  0  0  0  0  0  0  0  0  0
   -1.6596    0.6588    1.7612 C   0  0  0  0  0  0  0  0  0  0  0  0
   -2.7445    1.4490    1.2251 C   0  0  2  0  0  0  0  0  0  0  0  0
   -2.6882    2.8412    1.8837 C   0  0  0  0  0  0  0  0  0  0  0  0
   -4.1273    0.9502    1.4381 C   0  0  0  0  0  0  0  0  0  0  0  0
   -4.4690   -0.4061    0.3038 S   0  0  0  0  0  6  0  0  0  0  0  0
   -5.8911   -0.8440    0.4875 O   0  0  0  0  0  0  0  0  0  0  0  0
   -3.5334   -1.5332    0.5043 O   0  0  0  0  0  0  0  0  0  0  0  0
   -4.1963    0.2919   -1.3006 C   0  0  0  0  0  0  0  0  0  0  0  0
   -5.4797    1.0456   -1.6661 C   0  0  0  0  0  0  0  0  0  0  0  0
   -3.9246   -0.7777   -2.3356 C   0  0  0  0  0  0  0  0  0  0  0  0
   -3.0763    1.2555   -1.2018 C   0  0  0  0  0  0  0  0  0  0  0  0
   -2.5985    1.7183   -2.5037 N   0  0  0  0  0  0  0  0  0  0  0  0
   -2.5313    1.6866   -0.1668 N   0  0  0  0  0  0  0  0  0  0  0  0
   -1.5796    0.2584    3.0988 C   0  0  0  0  0  0  0  0  0  0  0  0
   -2.5387    0.6427    3.8098 O   0  0  0  0  0  0  0  0  0  0  0  0
   -0.5608   -0.4753    3.5773 N   0  0  0  0  0  0  0  0  0  0  0  0
   -0.5505   -0.8552    4.9951 C   0  0  0  0  0  0  0  0  0  0  0  0
    0.4031   -0.8263    2.7290 C   0  0  0  0  0  0  0  0  0  0  0  0
    2.6725   -3.1974   -1.1908 H   0  0  0  0  0  0  0  0  0  0  0  0
    3.2621   -2.9594    0.5705 H   0  0  0  0  0  0  0  0  0  0  0  0
    4.2490   -3.7236   -0.6501 H   0  0  0  0  0  0  0  0  0  0  0  0
    5.6194   -2.7557   -2.0971 H   0  0  0  0  0  0  0  0  0  0  0  0
    7.8674    1.1162   -3.0863 H   0  0  0  0  0  0  0  0  0  0  0  0
    6.2537    1.4064   -1.8871 H   0  0  0  0  0  0  0  0  0  0  0  0
    1.3735   -1.7941    0.0596 H   0  0  0  0  0  0  0  0  0  0  0  0
   -0.6095    0.5316   -0.1315 H   0  0  0  0  0  0  0  0  0  0  0  0
   -1.6666    3.2096    1.6841 H   0  0  0  0  0  0  0  0  0  0  0  0
   -2.8711    2.7818    2.9540 H   0  0  0  0  0  0  0  0  0  0  0  0
   -3.4682    3.4455    1.3491 H   0  0  0  0  0  0  0  0  0  0  0  0
   -4.4332    0.7308    2.4541 H   0  0  0  0  0  0  0  0  0  0  0  0
   -4.8117    1.7592    1.0775 H   0  0  0  0  0  0  0  0  0  0  0  0
   -5.6216    1.0982   -2.7639 H   0  0  0  0  0  0  0  0  0  0  0  0
   -6.3222    0.4804   -1.2517 H   0  0  0  0  0  0  0  0  0  0  0  0
   -5.4252    2.0185   -1.1744 H   0  0  0  0  0  0  0  0  0  0  0  0
   -4.9108   -1.2028   -2.6201 H   0  0  0  0  0  0  0  0  0  0  0  0
   -3.2918   -1.5875   -1.9560 H   0  0  0  0  0  0  0  0  0  0  0  0
   -3.4276   -0.3386   -3.2256 H   0  0  0  0  0  0  0  0  0  0  0  0
   -2.8939    2.6656   -2.8024 H   0  0  0  0  0  0  0  0  0  0  0  0
   -2.0011    1.1580   -3.1122 H   0  0  0  0  0  0  0  0  0  0  0  0
   -1.5045   -1.3130    5.2976 H   0  0  0  0  0  0  0  0  0  0  0  0
    0.2343   -1.6337    5.0951 H   0  0  0  0  0  0  0  0  0  0  0  0
   -0.2444   -0.0007    5.6259 H   0  0  0  0  0  0  0  0  0  0  0  0
    1.2381   -1.4185    3.0866 H   0  0  0  0  0  0  0  0  0  0  0  0
  1  2  1  0
  2  3  2  0
  3  4  1  0
  4  5  1  0
  5  6  1  0
  6  7  1  0
  6  8  1  0
  4  9  2  0
  9 10  1  0
 10 11  2  0
 11 12  1  0
 12 13  2  0
 12 14  1  0
 14 15  1  0
 15 16  1  0
 16 17  2  0
 17 18  1  0
 18 19  1  1
 18 20  1  0
 20 21  1  0
 21 22  2  0
 21 23  2  0
 21 24  1  0
 24 25  1  0
 24 26  1  0
 24 27  1  0
 27 28  1  0
 27 29  2  0
 17 30  1  0
 30 31  2  0
 30 32  1  0
 32 33  1  0
 32 34  1  0
 11  2  1  0
 34 15  2  0
 29 18  1  0
  1 35  1  0
  1 36  1  0
  1 37  1  0
  3 38  1  0
  6 39  1  0
  9 40  1  0
 14 41  1  0
 16 42  1  0
 19 43  1  0
 19 44  1  0
 19 45  1  0
 20 46  1  0
 20 47  1  0
 25 48  1  0
 25 49  1  0
 25 50  1  0
 26 51  1  0
 26 52  1  0
 26 53  1  0
 28 54  1  0
 28 55  1  0
 33 56  1  0
 33 57  1  0
 33 58  1  0
 34 59  1  0
M  END
$$$$
