@<TRIPOS>MOLECULE
*****
 61 65 0 0 0
SMALL
GASTEIGER

@<TRIPOS>ATOM
      1 C           7.4520    1.9141    0.6941 C.3     1  UNL1       -0.0524
      2 C           6.4110    1.0962   -0.0723 C.3     1  UNL1       -0.0039
      3 N           5.4687    1.9745   -0.6486 N.3     1  UNL1       -0.3025
      4 C           4.6147    2.6516    0.2441 C.3     1  UNL1        0.0006
      5 C           3.2529    1.9964    0.3988 C.3     1  UNL1       -0.0217
      6 C           2.9479    1.1008   -0.7681 C.3     1  UNL1        0.0230
      7 N           1.6107    0.6809   -0.9133 N.pl3   1  UNL1       -0.3409
      8 C           1.0030   -0.2763   -0.0502 C.ar    1  UNL1        0.0280
      9 C           1.6530   -0.9324    0.9601 C.ar    1  UNL1       -0.0391
     10 C           1.0256   -1.8382    1.7798 C.ar    1  UNL1       -0.0381
     11 C          -0.3285   -2.1398    1.6210 C.ar    1  UNL1        0.0417
     12 C          -1.0015   -1.4849    0.6052 C.ar    1  UNL1        0.0107
     13 C          -0.3597   -0.5797   -0.2107 C.ar    1  UNL1       -0.0312
     14 C          -2.4092   -1.9817    0.6175 C.2     1  UNL1        0.0571
     15 C          -3.4003   -1.6091   -0.1473 C.2     1  UNL1        0.0372
     16 C          -4.7212   -2.2192    0.0085 C.ar    1  UNL1       -0.0109
     17 C          -5.4710   -2.1072    1.1583 C.ar    1  UNL1       -0.0537
     18 C          -6.6964   -2.7032    1.3161 C.ar    1  UNL1       -0.0585
     19 C          -7.2406   -3.4545    0.3065 C.ar    1  UNL1       -0.0264
     20 C          -6.4915   -3.5714   -0.8561 C.ar    1  UNL1        0.1240
     21 F          -7.0156   -4.3109   -1.8618 F       1  UNL1       -0.2055
     22 C          -5.2672   -2.9789   -1.0179 C.ar    1  UNL1       -0.0186
     23 C          -3.3833   -0.5189   -1.0961 C.ar    1  UNL1        0.1396
     24 N          -3.6101   -0.4855   -2.4201 N.ar    1  UNL1       -0.2358
     25 C          -3.5771    0.8060   -2.8389 C.ar    1  UNL1        0.0488
     26 C          -3.3253    1.6014   -1.7616 C.ar    1  UNL1        0.0327
     27 C          -3.1919    3.0975   -1.6874 C.3     1  UNL1       -0.0229
     28 N          -3.2104    0.7854   -0.7140 N.ar    1  UNL1       -0.3419
     29 C          -2.4743   -2.9748    1.7185 C.2     1  UNL1        0.2496
     30 O          -3.4988   -3.6239    2.0419 O.2     1  UNL1       -0.2698
     31 N          -1.1849   -3.0350    2.3001 N.am    1  UNL1       -0.2809
     32 C           3.4900    1.8158   -2.0002 C.3     1  UNL1       -0.0217
     33 C           4.9969    1.7307   -1.9456 C.3     1  UNL1        0.0006
     34 H           7.1434    2.9895    0.7323 H       1  UNL1        0.0242
     35 H           8.4199    1.9062    0.1145 H       1  UNL1        0.0242
     36 H           7.5711    1.5776    1.7317 H       1  UNL1        0.0242
     37 H           5.9174    0.4523    0.7048 H       1  UNL1        0.0424
     38 H           6.9149    0.4210   -0.7728 H       1  UNL1        0.0424
     39 H           5.0497    2.6890    1.2829 H       1  UNL1        0.0427
     40 H           4.4618    3.6911   -0.1032 H       1  UNL1        0.0427
     41 H           3.1289    1.5307    1.3859 H       1  UNL1        0.0295
     42 H           2.5014    2.8353    0.3754 H       1  UNL1        0.0295
     43 H           3.6111    0.1947   -0.6592 H       1  UNL1        0.0498
     44 H           1.0566    1.1149   -1.7123 H       1  UNL1        0.1463
     45 H           2.7209   -0.7166    1.0852 H       1  UNL1        0.0637
     46 H           1.5580   -2.3536    2.5821 H       1  UNL1        0.0637
     47 H          -0.8623   -0.0948   -1.0156 H       1  UNL1        0.0643
     48 H          -5.0513   -1.4857    1.9698 H       1  UNL1        0.0624
     49 H          -7.2375   -2.5849    2.2290 H       1  UNL1        0.0619
     50 H          -8.2173   -3.9427    0.3998 H       1  UNL1        0.0646
     51 H          -4.6719   -3.0596   -1.9177 H       1  UNL1        0.0652
     52 H          -3.7221    1.1767   -3.8472 H       1  UNL1        0.0848
     53 H          -3.4923    3.5041   -2.6624 H       1  UNL1        0.0292
     54 H          -3.9259    3.4958   -0.9260 H       1  UNL1        0.0292
     55 H          -2.1653    3.4128   -1.4953 H       1  UNL1        0.0292
     56 H          -3.0176    1.0863    0.2545 H       1  UNL1        0.1671
     57 H          -0.8959   -3.6440    3.1093 H       1  UNL1        0.1552
     58 H           3.1627    2.8552   -1.9307 H       1  UNL1        0.0295
     59 H           3.1634    1.3144   -2.9353 H       1  UNL1        0.0295
     60 H           5.4613    2.4773   -2.6380 H       1  UNL1        0.0427
     61 H           5.3493    0.7312   -2.3458 H       1  UNL1        0.0427
@<TRIPOS>BOND
     1     1     2    1
     2     2     3    1
     3     3     4    1
     4     4     5    1
     5     5     6    1
     6     6     7    1
     7     7     8    1
     8     8     9   ar
     9     9    10   ar
    10    10    11   ar
    11    11    12   ar
    12    12    13   ar
    13    12    14    1
    14    14    15    2
    15    15    16    1
    16    16    17   ar
    17    17    18   ar
    18    18    19   ar
    19    19    20   ar
    20    20    21    1
    21    20    22   ar
    22    15    23    1
    23    23    24   ar
    24    24    25   ar
    25    25    26   ar
    26    26    27    1
    27    26    28   ar
    28    14    29    1
    29    29    30    2
    30    29    31   am
    31     6    32    1
    32    32    33    1
    33    33     3    1
    34    13     8   ar
    35    22    16   ar
    36    28    23   ar
    37    31    11    1
    38     1    34    1
    39     1    35    1
    40     1    36    1
    41     2    37    1
    42     2    38    1
    43     4    39    1
    44     4    40    1
    45     5    41    1
    46     5    42    1
    47     6    43    1
    48     7    44    1
    49     9    45    1
    50    10    46    1
    51    13    47    1
    52    17    48    1
    53    18    49    1
    54    19    50    1
    55    22    51    1
    56    25    52    1
    57    27    53    1
    58    27    54    1
    59    27    55    1
    60    28    56    1
    61    31    57    1
    62    32    58    1
    63    32    59    1
    64    33    60    1
    65    33    61    1
