
     RDKit          3D

 61 65  0  0  0  0  0  0  0  0999 V2000
    7.4520    1.9141    0.6941 C   0  0  0  0  0  0  0  0  0  0  0  0
    6.4110    1.0962   -0.0723 C   0  0  0  0  0  0  0  0  0  0  0  0
    5.4687    1.9745   -0.6486 N   0  0  0  0  0  0  0  0  0  0  0  0
    4.6147    2.6516    0.2441 C   0  0  0  0  0  0  0  0  0  0  0  0
    3.2529    1.9964    0.3988 C   0  0  0  0  0  0  0  0  0  0  0  0
    2.9479    1.1008   -0.7681 C   0  0  0  0  0  0  0  0  0  0  0  0
    1.6107    0.6809   -0.9133 N   0  0  0  0  0  0  0  0  0  0  0  0
    1.0030   -0.2763   -0.0502 C   0  0  0  0  0  0  0  0  0  0  0  0
    1.6530   -0.9324    0.9601 C   0  0  0  0  0  0  0  0  0  0  0  0
    1.0256   -1.8382    1.7798 C   0  0  0  0  0  0  0  0  0  0  0  0
   -0.3285   -2.1398    1.6210 C   0  0  0  0  0  0  0  0  0  0  0  0
   -1.0015   -1.4849    0.6052 C   0  0  0  0  0  0  0  0  0  0  0  0
   -0.3597   -0.5797   -0.2107 C   0  0  0  0  0  0  0  0  0  0  0  0
   -2.4092   -1.9817    0.6175 C   0  0  0  0  0  0  0  0  0  0  0  0
   -3.4003   -1.6091   -0.1473 C   0  0  0  0  0  0  0  0  0  0  0  0
   -4.7212   -2.2192    0.0085 C   0  0  0  0  0  0  0  0  0  0  0  0
   -5.4710   -2.1072    1.1583 C   0  0  0  0  0  0  0  0  0  0  0  0
   -6.6964   -2.7032    1.3161 C   0  0  0  0  0  0  0  0  0  0  0  0
   -7.2406   -3.4545    0.3065 C   0  0  0  0  0  0  0  0  0  0  0  0
   -6.4915   -3.5714   -0.8561 C   0  0  0  0  0  0  0  0  0  0  0  0
   -7.0156   -4.3109   -1.8618 F   0  0  0  0  0  0  0  0  0  0  0  0
   -5.2672   -2.9789   -1.0179 C   0  0  0  0  0  0  0  0  0  0  0  0
   -3.3833   -0.5189   -1.0961 C   0  0  0  0  0  0  0  0  0  0  0  0
   -3.6101   -0.4855   -2.4201 N   0  0  0  0  0  0  0  0  0  0  0  0
   -3.5771    0.8060   -2.8389 C   0  0  0  0  0  0  0  0  0  0  0  0
   -3.3253    1.6014   -1.7616 C   0  0  0  0  0  0  0  0  0  0  0  0
   -3.1919    3.0975   -1.6874 C   0  0  0  0  0  0  0  0  0  0  0  0
   -3.2104    0.7854   -0.7140 N   0  0  0  0  0  0  0  0  0  0  0  0
   -2.4743   -2.9748    1.7185 C   0  0  0  0  0  0  0  0  0  0  0  0
   -3.4988   -3.6239    2.0419 O   0  0  0  0  0  0  0  0  0  0  0  0
   -1.1849   -3.0350    2.3001 N   0  0  0  0  0  0  0  0  0  0  0  0
    3.4900    1.8158   -2.0002 C   0  0  0  0  0  0  0  0  0  0  0  0
    4.9969    1.7307   -1.9456 C   0  0  0  0  0  0  0  0  0  0  0  0
    7.1434    2.9895    0.7323 H   0  0  0  0  0  0  0  0  0  0  0  0
    8.4199    1.9062    0.1145 H   0  0  0  0  0  0  0  0  0  0  0  0
    7.5711    1.5776    1.7317 H   0  0  0  0  0  0  0  0  0  0  0  0
    5.9174    0.4523    0.7048 H   0  0  0  0  0  0  0  0  0  0  0  0
    6.9149    0.4210   -0.7728 H   0  0  0  0  0  0  0  0  0  0  0  0
    5.0497    2.6890    1.2829 H   0  0  0  0  0  0  0  0  0  0  0  0
    4.4618    3.6911   -0.1032 H   0  0  0  0  0  0  0  0  0  0  0  0
    3.1289    1.5307    1.3859 H   0  0  0  0  0  0  0  0  0  0  0  0
    2.5014    2.8353    0.3754 H   0  0  0  0  0  0  0  0  0  0  0  0
    3.6111    0.1947   -0.6592 H   0  0  0  0  0  0  0  0  0  0  0  0
    1.0566    1.1149   -1.7123 H   0  0  0  0  0  0  0  0  0  0  0  0
    2.7209   -0.7166    1.0852 H   0  0  0  0  0  0  0  0  0  0  0  0
    1.5580   -2.3536    2.5821 H   0  0  0  0  0  0  0  0  0  0  0  0
   -0.8623   -0.0948   -1.0156 H   0  0  0  0  0  0  0  0  0  0  0  0
   -5.0513   -1.4857    1.9698 H   0  0  0  0  0  0  0  0  0  0  0  0
   -7.2375   -2.5849    2.2290 H   0  0  0  0  0  0  0  0  0  0  0  0
   -8.2173   -3.9427    0.3998 H   0  0  0  0  0  0  0  0  0  0  0  0
   -4.6719   -3.0596   -1.9177 H   0  0  0  0  0  0  0  0  0  0  0  0
   -3.7221    1.1767   -3.8472 H   0  0  0  0  0  0  0  0  0  0  0  0
   -3.4923    3.5041   -2.6624 H   0  0  0  0  0  0  0  0  0  0  0  0
   -3.9259    3.4958   -0.9260 H   0  0  0  0  0  0  0  0  0  0  0  0
   -2.1653    3.4128   -1.4953 H   0  0  0  0  0  0  0  0  0  0  0  0
   -3.0176    1.0863    0.2545 H   0  0  0  0  0  0  0  0  0  0  0  0
   -0.8959   -3.6440    3.1093 H   0  0  0  0  0  0  0  0  0  0  0  0
    3.1627    2.8552   -1.9307 H   0  0  0  0  0  0  0  0  0  0  0  0
    3.1634    1.3144   -2.9353 H   0  0  0  0  0  0  0  0  0  0  0  0
    5.4613    2.4773   -2.6380 H   0  0  0  0  0  0  0  0  0  0  0  0
    5.3493    0.7312   -2.3458 H   0  0  0  0  0  0  0  0  0  0  0  0
  1  2  1  0
  2  3  1  0
  3  4  1  0
  4  5  1  0
  5  6  1  0
  6  7  1  0
  7  8  1  0
  8  9  2  0
  9 10  1  0
 10 11  2  0
 11 12  1  0
 12 13  2  0
 12 14  1  0
 14 15  2  3
 15 16  1  0
 16 17  2  0
 17 18  1  0
 18 19  2  0
 19 20  1  0
 20 21  1  0
 20 22  2  0
 15 23  1  0
 23 24  2  0
 24 25  1  0
 25 26  2  0
 26 27  1  0
 26 28  1  0
 14 29  1  0
 29 30  2  0
 29 31  1  0
  6 32  1  0
 32 33  1  0
 33  3  1  0
 13  8  1  0
 22 16  1  0
 28 23  1  0
 31 11  1  0
  1 34  1  0
  1 35  1  0
  1 36  1  0
  2 37  1  0
  2 38  1  0
  4 39  1  0
  4 40  1  0
  5 41  1  0
  5 42  1  0
  6 43  1  0
  7 44  1  0
  9 45  1  0
 10 46  1  0
 13 47  1  0
 17 48  1  0
 18 49  1  0
 19 50  1  0
 22 51  1  0
 25 52  1  0
 27 53  1  0
 27 54  1  0
 27 55  1  0
 28 56  1  0
 31 57  1  0
 32 58  1  0
 32 59  1  0
 33 60  1  0
 33 61  1  0
M  END
$$$$
