
     RDKit          3D

 57 59  0  0  0  0  0  0  0  0999 V2000
   -3.2076   -4.3567    0.4097 C   0  0  0  0  0  0  0  0  0  0  0  0
   -3.1524   -2.9868    0.0672 O   0  0  0  0  0  0  0  0  0  0  0  0
   -1.9347   -2.3931   -0.2476 C   0  0  0  0  0  0  0  0  0  0  0  0
   -0.7720   -3.1762   -0.2183 C   0  0  0  0  0  0  0  0  0  0  0  0
    0.4493   -2.6248   -0.5233 C   0  0  0  0  0  0  0  0  0  0  0  0
    0.5390   -1.2916   -0.8614 C   0  0  0  0  0  0  0  0  0  0  0  0
    1.8524   -0.6911   -1.1903 C   0  0  0  0  0  0  0  0  0  0  0  0
    1.8786    0.5289   -1.4969 O   0  0  0  0  0  0  0  0  0  0  0  0
    3.0781   -1.3835   -1.1859 N   0  0  0  0  0  0  0  0  0  0  0  0
    4.3482   -0.7644   -1.5132 C   0  0  0  0  0  0  0  0  0  0  0  0
    4.6758    0.3598   -0.5970 C   0  0  0  0  0  0  0  0  0  0  0  0
    5.3773    0.2475    0.5856 C   0  0  0  0  0  0  0  0  0  0  0  0
    5.4770    1.5013    1.1462 C   0  0  0  0  0  0  0  0  0  0  0  0
    6.1453    1.8986    2.4284 C   0  0  0  0  0  0  0  0  0  0  0  0
    5.4816    1.1553    3.5625 C   0  0  0  0  0  0  0  0  0  0  0  0
    7.5976    1.4865    2.3482 C   0  0  0  0  0  0  0  0  0  0  0  0
    4.8263    2.3178    0.2696 N   0  0  0  0  0  0  0  0  0  0  0  0
    4.3801    1.6099   -0.7236 O   0  0  0  0  0  0  0  0  0  0  0  0
   -0.5930   -0.5610   -0.8821 C   0  0  0  0  0  0  0  0  0  0  0  0
   -1.8629   -1.0628   -0.5826 C   0  0  0  0  0  0  0  0  0  0  0  0
   -2.9364   -0.2387   -0.6343 O   0  0  0  0  0  0  0  0  0  0  0  0
   -4.2579   -0.3775   -0.4170 C   0  0  0  0  0  0  0  0  0  0  0  0
   -5.0564   -0.0322   -1.7000 C   0  0  0  0  0  0  0  0  0  0  0  0
   -4.8555    1.3850   -2.1064 C   0  0  0  0  0  0  0  0  0  0  0  0
   -4.8667    2.3545   -1.0762 N   0  0  0  0  0  0  0  0  0  0  0  0
   -5.9358    3.2915   -1.0867 C   0  0  0  0  0  0  0  0  0  0  0  0
   -4.3772    1.9672    0.1978 C   0  0  0  0  0  0  0  0  0  0  0  0
   -4.8261    0.6069    0.6116 C   0  0  0  0  0  0  0  0  0  0  0  0
   -4.2364   -4.7189    0.5388 H   0  0  0  0  0  0  0  0  0  0  0  0
   -2.7375   -4.9458   -0.4129 H   0  0  0  0  0  0  0  0  0  0  0  0
   -2.5690   -4.4983    1.3048 H   0  0  0  0  0  0  0  0  0  0  0  0
   -0.8728   -4.2172    0.0501 H   0  0  0  0  0  0  0  0  0  0  0  0
    1.3507   -3.2611   -0.4938 H   0  0  0  0  0  0  0  0  0  0  0  0
    3.0605   -2.3943   -0.9320 H   0  0  0  0  0  0  0  0  0  0  0  0
    4.3491   -0.3430   -2.5479 H   0  0  0  0  0  0  0  0  0  0  0  0
    5.1190   -1.5585   -1.5162 H   0  0  0  0  0  0  0  0  0  0  0  0
    5.7996   -0.6401    1.0441 H   0  0  0  0  0  0  0  0  0  0  0  0
    6.0237    3.0011    2.5279 H   0  0  0  0  0  0  0  0  0  0  0  0
    5.4114    1.8896    4.4119 H   0  0  0  0  0  0  0  0  0  0  0  0
    4.4671    0.7934    3.2983 H   0  0  0  0  0  0  0  0  0  0  0  0
    6.0658    0.2537    3.8721 H   0  0  0  0  0  0  0  0  0  0  0  0
    7.8690    1.1412    1.3244 H   0  0  0  0  0  0  0  0  0  0  0  0
    8.2515    2.3735    2.5932 H   0  0  0  0  0  0  0  0  0  0  0  0
    7.7840    0.6628    3.0458 H   0  0  0  0  0  0  0  0  0  0  0  0
   -0.5295    0.4841   -1.1464 H   0  0  0  0  0  0  0  0  0  0  0  0
   -4.5906   -1.3674   -0.1288 H   0  0  0  0  0  0  0  0  0  0  0  0
   -6.1017   -0.2987   -1.5064 H   0  0  0  0  0  0  0  0  0  0  0  0
   -4.6523   -0.6913   -2.5005 H   0  0  0  0  0  0  0  0  0  0  0  0
   -3.9336    1.4472   -2.7471 H   0  0  0  0  0  0  0  0  0  0  0  0
   -5.6954    1.6364   -2.8183 H   0  0  0  0  0  0  0  0  0  0  0  0
   -5.6184    4.1537   -1.7397 H   0  0  0  0  0  0  0  0  0  0  0  0
   -6.0331    3.7498   -0.0655 H   0  0  0  0  0  0  0  0  0  0  0  0
   -6.9191    2.9045   -1.3448 H   0  0  0  0  0  0  0  0  0  0  0  0
   -3.2722    2.0796    0.2909 H   0  0  0  0  0  0  0  0  0  0  0  0
   -4.7965    2.6927    0.9561 H   0  0  0  0  0  0  0  0  0  0  0  0
   -4.5433    0.3494    1.6294 H   0  0  0  0  0  0  0  0  0  0  0  0
   -5.9220    0.5517    0.5139 H   0  0  0  0  0  0  0  0  0  0  0  0
  1  2  1  0
  2  3  1  0
  3  4  2  0
  4  5  1  0
  5  6  2  0
  6  7  1  0
  7  8  2  0
  7  9  1  0
  9 10  1  0
 10 11  1  0
 11 12  2  0
 12 13  1  0
 13 14  1  0
 14 15  1  0
 14 16  1  0
 13 17  2  0
 17 18  1  0
  6 19  1  0
 19 20  2  0
 20 21  1  0
 21 22  1  0
 22 23  1  0
 23 24  1  0
 24 25  1  0
 25 26  1  0
 25 27  1  0
 27 28  1  0
 20  3  1  0
 28 22  1  0
 18 11  1  0
  1 29  1  0
  1 30  1  0
  1 31  1  0
  4 32  1  0
  5 33  1  0
  9 34  1  0
 10 35  1  0
 10 36  1  0
 12 37  1  0
 14 38  1  0
 15 39  1  0
 15 40  1  0
 15 41  1  0
 16 42  1  0
 16 43  1  0
 16 44  1  0
 19 45  1  0
 22 46  1  0
 23 47  1  0
 23 48  1  0
 24 49  1  0
 24 50  1  0
 26 51  1  0
 26 52  1  0
 26 53  1  0
 27 54  1  0
 27 55  1  0
 28 56  1  0
 28 57  1  0
M  END
$$$$
