@<TRIPOS>MOLECULE
*****
 57 59 0 0 0
SMALL
GASTEIGER

@<TRIPOS>ATOM
      1 C          -3.2076   -4.3567    0.4097 C.3     1  UNL1        0.0790
      2 O          -3.1524   -2.9868    0.0672 O.3     1  UNL1       -0.4915
      3 C          -1.9347   -2.3931   -0.2476 C.ar    1  UNL1        0.1616
      4 C          -0.7720   -3.1762   -0.2183 C.ar    1  UNL1       -0.0156
      5 C           0.4493   -2.6248   -0.5233 C.ar    1  UNL1       -0.0459
      6 C           0.5390   -1.2916   -0.8614 C.ar    1  UNL1        0.0404
      7 C           1.8524   -0.6911   -1.1903 C.2     1  UNL1        0.2445
      8 O           1.8786    0.5289   -1.4969 O.2     1  UNL1       -0.2702
      9 N           3.0781   -1.3835   -1.1859 N.am    1  UNL1       -0.3041
     10 C           4.3482   -0.7644   -1.5132 C.3     1  UNL1        0.0727
     11 C           4.6758    0.3598   -0.5970 C.ar    1  UNL1        0.1545
     12 C           5.3773    0.2475    0.5856 C.ar    1  UNL1        0.0053
     13 C           5.4770    1.5013    1.1462 C.ar    1  UNL1        0.0865
     14 C           6.1453    1.8986    2.4284 C.3     1  UNL1       -0.0010
     15 C           5.4816    1.1553    3.5625 C.3     1  UNL1       -0.0571
     16 C           7.5976    1.4865    2.3482 C.3     1  UNL1       -0.0571
     17 N           4.8263    2.3178    0.2696 N.ar    1  UNL1       -0.0827
     18 O           4.3801    1.6099   -0.7236 O.2     1  UNL1       -0.3578
     19 C          -0.5930   -0.5610   -0.8821 C.ar    1  UNL1       -0.0042
     20 C          -1.8629   -1.0628   -0.5826 C.ar    1  UNL1        0.1630
     21 O          -2.9364   -0.2387   -0.6343 O.3     1  UNL1       -0.4851
     22 C          -4.2579   -0.3775   -0.4170 C.3     1  UNL1        0.1027
     23 C          -5.0564   -0.0322   -1.7000 C.3     1  UNL1       -0.0029
     24 C          -4.8555    1.3850   -2.1064 C.3     1  UNL1        0.0019
     25 N          -4.8667    2.3545   -1.0762 N.3     1  UNL1       -0.3051
     26 C          -5.9358    3.2915   -1.0867 C.3     1  UNL1       -0.0128
     27 C          -4.3772    1.9672    0.1978 C.3     1  UNL1        0.0019
     28 C          -4.8261    0.6069    0.6116 C.3     1  UNL1       -0.0029
     29 H          -4.2364   -4.7189    0.5388 H       1  UNL1        0.0660
     30 H          -2.7375   -4.9458   -0.4129 H       1  UNL1        0.0660
     31 H          -2.5690   -4.4983    1.3048 H       1  UNL1        0.0660
     32 H          -0.8728   -4.2172    0.0501 H       1  UNL1        0.0655
     33 H           1.3507   -3.2611   -0.4938 H       1  UNL1        0.0626
     34 H           3.0605   -2.3943   -0.9320 H       1  UNL1        0.1495
     35 H           4.3491   -0.3430   -2.5479 H       1  UNL1        0.0543
     36 H           5.1190   -1.5585   -1.5162 H       1  UNL1        0.0543
     37 H           5.7996   -0.6401    1.0441 H       1  UNL1        0.0671
     38 H           6.0237    3.0011    2.5279 H       1  UNL1        0.0360
     39 H           5.4114    1.8896    4.4119 H       1  UNL1        0.0236
     40 H           4.4671    0.7934    3.2983 H       1  UNL1        0.0236
     41 H           6.0658    0.2537    3.8721 H       1  UNL1        0.0236
     42 H           7.8690    1.1412    1.3244 H       1  UNL1        0.0236
     43 H           8.2515    2.3735    2.5932 H       1  UNL1        0.0236
     44 H           7.7840    0.6628    3.0458 H       1  UNL1        0.0236
     45 H          -0.5295    0.4841   -1.1464 H       1  UNL1        0.0663
     46 H          -4.5906   -1.3674   -0.1288 H       1  UNL1        0.0733
     47 H          -6.1017   -0.2987   -1.5064 H       1  UNL1        0.0313
     48 H          -4.6523   -0.6913   -2.5005 H       1  UNL1        0.0313
     49 H          -3.9336    1.4472   -2.7471 H       1  UNL1        0.0428
     50 H          -5.6954    1.6364   -2.8183 H       1  UNL1        0.0428
     51 H          -5.6184    4.1537   -1.7397 H       1  UNL1        0.0391
     52 H          -6.0331    3.7498   -0.0655 H       1  UNL1        0.0391
     53 H          -6.9191    2.9045   -1.3448 H       1  UNL1        0.0391
     54 H          -3.2722    2.0796    0.2909 H       1  UNL1        0.0428
     55 H          -4.7965    2.6927    0.9561 H       1  UNL1        0.0428
     56 H          -4.5433    0.3494    1.6294 H       1  UNL1        0.0313
     57 H          -5.9220    0.5517    0.5139 H       1  UNL1        0.0313
@<TRIPOS>BOND
     1     1     2    1
     2     2     3    1
     3     3     4   ar
     4     4     5   ar
     5     5     6   ar
     6     6     7    1
     7     7     8    2
     8     7     9   am
     9     9    10    1
    10    10    11    1
    11    11    12   ar
    12    12    13   ar
    13    13    14    1
    14    14    15    1
    15    14    16    1
    16    13    17   ar
    17    17    18   ar
    18     6    19   ar
    19    19    20   ar
    20    20    21    1
    21    21    22    1
    22    22    23    1
    23    23    24    1
    24    24    25    1
    25    25    26    1
    26    25    27    1
    27    27    28    1
    28    20     3   ar
    29    28    22    1
    30    18    11   ar
    31     1    29    1
    32     1    30    1
    33     1    31    1
    34     4    32    1
    35     5    33    1
    36     9    34    1
    37    10    35    1
    38    10    36    1
    39    12    37    1
    40    14    38    1
    41    15    39    1
    42    15    40    1
    43    15    41    1
    44    16    42    1
    45    16    43    1
    46    16    44    1
    47    19    45    1
    48    22    46    1
    49    23    47    1
    50    23    48    1
    51    24    49    1
    52    24    50    1
    53    26    51    1
    54    26    52    1
    55    26    53    1
    56    27    54    1
    57    27    55    1
    58    28    56    1
    59    28    57    1
