@<TRIPOS>MOLECULE
*****
 66 69 0 0 0
SMALL
GASTEIGER

@<TRIPOS>ATOM
      1 C           0.6474   -2.2423    0.1143 C.3     1  UNL1       -0.0421
      2 C           0.8161   -0.8391    0.6133 C.3     1  UNL1        0.0515
      3 C           1.9681   -0.2312   -0.0299 C.ar    1  UNL1       -0.0271
      4 C           2.0330    0.5586   -1.1398 C.ar    1  UNL1       -0.0562
      5 C           3.2470    1.0464   -1.6632 C.ar    1  UNL1       -0.0537
      6 C           4.4347    0.7338   -1.0698 C.ar    1  UNL1       -0.0165
      7 C           5.7360    1.2139   -1.5808 C.ar    1  UNL1       -0.0015
      8 C           6.8475    0.4201   -1.4419 C.ar    1  UNL1       -0.0475
      9 C           8.0875    0.8581   -1.9062 C.ar    1  UNL1        0.0036
     10 C           8.2229    2.0825   -2.5113 C.ar    1  UNL1        0.2511
     11 O           9.3242    2.5095   -2.9444 O.2     1  UNL1       -0.2677
     12 N           7.1013    2.8361   -2.6251 N.ar    1  UNL1       -0.3177
     13 C           7.2526    4.1397   -3.2550 C.3     1  UNL1        0.0147
     14 C           5.8936    2.4436   -2.1870 C.ar    1  UNL1        0.0153
     15 C           4.4104   -0.0585    0.0523 C.ar    1  UNL1       -0.0537
     16 C           3.2220   -0.5170    0.5418 C.ar    1  UNL1       -0.0562
     17 N          -0.4288   -0.1439    0.6559 N.am    1  UNL1       -0.2605
     18 C          -1.3296    0.0952   -0.4392 C.3     1  UNL1        0.0224
     19 C          -2.7049    0.4553   -0.0007 C.3     1  UNL1        0.0075
     20 C          -3.1867   -0.2238    1.2311 C.3     1  UNL1        0.1428
     21 C          -3.0752   -1.6691    1.3338 C.3     1  UNL1        0.0095
     22 C          -3.7189   -2.6328    0.4639 C.3     1  UNL1        0.0557
     23 C          -3.4297   -2.6180   -1.0141 C.3     1  UNL1       -0.0468
     24 C          -5.2486   -2.5179    0.5803 C.3     1  UNL1       -0.0468
     25 C          -3.3929   -3.9705    0.9023 C.1     1  UNL1        0.0688
     26 N          -3.0913   -5.1381    1.2710 N.1     1  UNL1       -0.1960
     27 C          -4.4809    0.3710    1.7123 C.ar    1  UNL1       -0.0041
     28 C          -5.0336   -0.1857    2.8542 C.ar    1  UNL1       -0.0548
     29 C          -6.2169    0.3772    3.3499 C.ar    1  UNL1       -0.0614
     30 C          -6.8355    1.4294    2.7607 C.ar    1  UNL1       -0.0617
     31 C          -6.2766    1.9762    1.6230 C.ar    1  UNL1       -0.0614
     32 C          -5.1071    1.4103    1.1421 C.ar    1  UNL1       -0.0548
     33 O          -2.2784    0.2963    2.2609 O.3     1  UNL1       -0.4388
     34 C          -0.9103    0.3258    1.9357 C.2     1  UNL1        0.4042
     35 O          -0.0617    0.7650    2.7539 O.2     1  UNL1       -0.2262
     36 H           0.1452   -2.2826   -0.8749 H       1  UNL1        0.0251
     37 H           0.1263   -2.8309    0.8912 H       1  UNL1        0.0251
     38 H           1.6720   -2.6873    0.0626 H       1  UNL1        0.0251
     39 H           1.1535   -0.9568    1.7089 H       1  UNL1        0.0549
     40 H           1.1283    0.8235   -1.6545 H       1  UNL1        0.0621
     41 H           3.2440    1.6698   -2.5396 H       1  UNL1        0.0624
     42 H           6.7642   -0.5569   -0.9736 H       1  UNL1        0.0626
     43 H           8.9623    0.2471   -1.7954 H       1  UNL1        0.0672
     44 H           6.2683    4.5218   -3.6089 H       1  UNL1        0.0457
     45 H           7.9598    4.0471   -4.1104 H       1  UNL1        0.0457
     46 H           7.6710    4.8481   -2.5079 H       1  UNL1        0.0457
     47 H           5.0126    3.0803   -2.3023 H       1  UNL1        0.0816
     48 H           5.3701   -0.2842    0.5173 H       1  UNL1        0.0624
     49 H           3.2835   -1.1393    1.4387 H       1  UNL1        0.0621
     50 H          -1.3073   -0.7075   -1.2008 H       1  UNL1        0.0467
     51 H          -0.9460    0.9978   -0.9933 H       1  UNL1        0.0467
     52 H          -2.6286    1.5571    0.3066 H       1  UNL1        0.0322
     53 H          -3.4429    0.5069   -0.8222 H       1  UNL1        0.0322
     54 H          -3.3273   -1.9780    2.4089 H       1  UNL1        0.0322
     55 H          -1.9426   -1.8860    1.3558 H       1  UNL1        0.0322
     56 H          -4.0993   -3.4430   -1.4242 H       1  UNL1        0.0245
     57 H          -2.4004   -3.0263   -1.1796 H       1  UNL1        0.0245
     58 H          -3.6939   -1.7348   -1.5652 H       1  UNL1        0.0245
     59 H          -5.6152   -1.5365    0.2160 H       1  UNL1        0.0245
     60 H          -5.7296   -3.2834   -0.0895 H       1  UNL1        0.0245
     61 H          -5.5906   -2.7715    1.6082 H       1  UNL1        0.0245
     62 H          -4.6142   -1.0159    3.4040 H       1  UNL1        0.0622
     63 H          -6.6671   -0.0579    4.2583 H       1  UNL1        0.0618
     64 H          -7.7574    1.8640    3.1634 H       1  UNL1        0.0618
     65 H          -6.7486    2.8099    1.1441 H       1  UNL1        0.0618
     66 H          -4.6872    1.8498    0.2473 H       1  UNL1        0.0622
@<TRIPOS>BOND
     1     1     2    1
     2     2     3    1
     3     3     4   ar
     4     4     5   ar
     5     5     6   ar
     6     6     7    1
     7     7     8   ar
     8     8     9   ar
     9     9    10   ar
    10    10    11    2
    11    10    12   ar
    12    12    13    1
    13    12    14   ar
    14     6    15   ar
    15    15    16   ar
    16     2    17    1
    17    17    18    1
    18    18    19    1
    19    19    20    1
    20    20    21    1
    21    21    22    1
    22    22    23    1
    23    22    24    1
    24    22    25    1
    25    25    26    3
    26    20    27    1
    27    27    28   ar
    28    28    29   ar
    29    29    30   ar
    30    30    31   ar
    31    31    32   ar
    32    20    33    1
    33    33    34    1
    34    34    35    2
    35    16     3   ar
    36    34    17   am
    37    14     7   ar
    38    32    27   ar
    39     1    36    1
    40     1    37    1
    41     1    38    1
    42     2    39    1
    43     4    40    1
    44     5    41    1
    45     8    42    1
    46     9    43    1
    47    13    44    1
    48    13    45    1
    49    13    46    1
    50    14    47    1
    51    15    48    1
    52    16    49    1
    53    18    50    1
    54    18    51    1
    55    19    52    1
    56    19    53    1
    57    21    54    1
    58    21    55    1
    59    23    56    1
    60    23    57    1
    61    23    58    1
    62    24    59    1
    63    24    60    1
    64    24    61    1
    65    28    62    1
    66    29    63    1
    67    30    64    1
    68    31    65    1
    69    32    66    1
