
     RDKit          3D

 60 63  0  0  0  0  0  0  0  0999 V2000
    6.3378    4.0201    0.8589 C   0  0  0  0  0  0  0  0  0  0  0  0
    5.6401    2.6772    0.8334 C   0  0  0  0  0  0  0  0  0  0  0  0
    4.8322    2.0559    1.7356 C   0  0  0  0  0  0  0  0  0  0  0  0
    4.4259    0.8056    1.2510 C   0  0  0  0  0  0  0  0  0  0  0  0
    3.6514   -0.2145    1.7355 C   0  0  0  0  0  0  0  0  0  0  0  0
    3.5027   -1.3318    0.9605 C   0  0  0  0  0  0  0  0  0  0  0  0
    2.6458   -2.4973    1.2031 N   0  0  0  0  0  0  0  0  0  0  0  0
    1.9091   -2.9372    0.8199 C   0  0  0  0  0  0  0  0  0  0  0  0
    0.8369   -4.0243    0.6764 N   0  0  0  0  0  0  0  0  0  0  0  0
    1.7581   -5.2480    0.9938 C   0  0  0  0  0  0  0  0  0  0  0  0
    2.4227   -6.1254    1.2257 N   0  0  0  0  0  0  0  0  0  0  0  0
    1.2732   -2.0393   -0.4600 N   0  0  0  0  0  0  0  0  0  0  0  0
    0.9384   -0.7120   -0.1702 C   0  0  1  0  0  0  0  0  0  0  0  0
    1.0911    0.2141   -1.3562 C   0  0  0  0  0  0  0  0  0  0  0  0
    0.6396   -0.3237   -2.6380 C   0  0  0  0  0  0  0  0  0  0  0  0
   -0.8355   -0.1437   -2.9336 C   0  0  0  0  0  0  0  0  0  0  0  0
   -1.6709   -1.1201   -2.1927 C   0  0  0  0  0  0  0  0  0  0  0  0
   -1.6417   -0.8802   -0.7851 N   0  0  0  0  0  0  0  0  0  0  0  0
   -2.9740   -0.7917   -0.1458 C   0  0  0  0  0  0  0  0  0  0  0  0
   -3.3780    0.6544    0.0064 C   0  0  0  0  0  0  0  0  0  0  0  0
   -2.6697    1.5923   -0.4192 O   0  0  0  0  0  0  0  0  0  0  0  0
   -4.5996    0.9396    0.6594 N   0  0  0  0  0  0  0  0  0  0  0  0
   -5.1290    2.2277    0.9901 C   0  0  0  0  0  0  0  0  0  0  0  0
   -6.6217    2.1015    0.9214 C   0  0  0  0  0  0  0  0  0  0  0  0
   -6.8933    0.6255    0.9084 C   0  0  0  0  0  0  0  0  0  0  0  0
   -5.5501   -0.0142    1.1786 C   0  0  0  0  0  0  0  0  0  0  0  0
   -0.5721   -0.7306    0.1289 C   0  0  0  0  0  0  0  0  0  0  0  0
   -0.9259   -0.5839    1.2898 O   0  0  0  0  0  0  0  0  0  0  0  0
    4.1092   -1.3773   -0.2624 C   0  0  0  0  0  0  0  0  0  0  0  0
    4.9021   -0.4058   -0.8365 C   0  0  0  0  0  0  0  0  0  0  0  0
    5.0196    0.7491    0.0777 C   0  0  0  0  0  0  0  0  0  0  0  0
    5.7265    1.7967   -0.2025 O   0  0  0  0  0  0  0  0  0  0  0  0
    6.4303    4.3174    1.9087 H   0  0  0  0  0  0  0  0  0  0  0  0
    7.4120    3.8858    0.5219 H   0  0  0  0  0  0  0  0  0  0  0  0
    5.9307    4.7291    0.1137 H   0  0  0  0  0  0  0  0  0  0  0  0
    4.5539    2.4767    2.7012 H   0  0  0  0  0  0  0  0  0  0  0  0
    3.1398   -0.1245    2.6819 H   0  0  0  0  0  0  0  0  0  0  0  0
   -0.0714   -4.2277    0.5958 H   0  0  0  0  0  0  0  0  0  0  0  0
    1.1705   -2.5695   -1.2608 H   0  0  0  0  0  0  0  0  0  0  0  0
    1.3459   -0.2193    0.7090 H   0  0  0  0  0  0  0  0  0  0  0  0
    0.4681    1.1185   -1.0137 H   0  0  0  0  0  0  0  0  0  0  0  0
    2.1223    0.5479   -1.4302 H   0  0  0  0  0  0  0  0  0  0  0  0
    0.9603   -1.3544   -2.7903 H   0  0  0  0  0  0  0  0  0  0  0  0
    1.1832    0.3035   -3.4541 H   0  0  0  0  0  0  0  0  0  0  0  0
   -1.0381   -0.2446   -4.0276 H   0  0  0  0  0  0  0  0  0  0  0  0
   -1.0559    0.9512   -2.7096 H   0  0  0  0  0  0  0  0  0  0  0  0
   -2.7053   -1.1338   -2.5486 H   0  0  0  0  0  0  0  0  0  0  0  0
   -1.1905   -2.1453   -2.4229 H   0  0  0  0  0  0  0  0  0  0  0  0
   -3.7036   -1.3680   -0.7161 H   0  0  0  0  0  0  0  0  0  0  0  0
   -2.8897   -1.2558    0.8583 H   0  0  0  0  0  0  0  0  0  0  0  0
   -4.8505    3.0341    0.3259 H   0  0  0  0  0  0  0  0  0  0  0  0
   -4.8357    2.5255    2.0398 H   0  0  0  0  0  0  0  0  0  0  0  0
   -7.0271    2.5498   -0.0173 H   0  0  0  0  0  0  0  0  0  0  0  0
   -7.0524    2.5146    1.8736 H   0  0  0  0  0  0  0  0  0  0  0  0
   -7.6242    0.2941    1.6949 H   0  0  0  0  0  0  0  0  0  0  0  0
   -7.2877    0.2758   -0.0780 H   0  0  0  0  0  0  0  0  0  0  0  0
   -5.5098   -1.0104    0.7038 H   0  0  0  0  0  0  0  0  0  0  0  0
   -5.4053   -0.1104    2.3081 H   0  0  0  0  0  0  0  0  0  0  0  0
    3.9340   -2.3108   -0.8746 H   0  0  0  0  0  0  0  0  0  0  0  0
    5.3956   -0.4083   -1.7448 H   0  0  0  0  0  0  0  0  0  0  0  0
  1  2  1  0
  2  3  2  0
  3  4  1  0
  4  5  2  0
  5  6  1  0
  6  7  1  0
  7  8  2  3
  8  9  1  0
  9 10  1  0
 10 11  3  0
  8 12  1  0
 12 13  1  0
 13 14  1  0
 14 15  1  0
 15 16  1  0
 16 17  1  0
 17 18  1  0
 18 19  1  0
 19 20  1  0
 20 21  2  0
 20 22  1  0
 22 23  1  0
 23 24  1  0
 24 25  1  0
 25 26  1  0
 18 27  1  0
 27 28  2  0
  6 29  2  0
 29 30  1  0
 30 31  2  0
 31 32  1  0
 32  2  1  0
 31  4  1  0
 27 13  1  0
 26 22  1  0
  1 33  1  0
  1 34  1  0
  1 35  1  0
  3 36  1  0
  5 37  1  0
  9 38  1  0
 12 39  1  0
 13 40  1  1
 14 41  1  0
 14 42  1  0
 15 43  1  0
 15 44  1  0
 16 45  1  0
 16 46  1  0
 17 47  1  0
 17 48  1  0
 19 49  1  0
 19 50  1  0
 23 51  1  0
 23 52  1  0
 24 53  1  0
 24 54  1  0
 25 55  1  0
 25 56  1  0
 26 57  1  0
 26 58  1  0
 29 59  1  0
 30 60  1  0
M  END
$$$$
