@<TRIPOS>MOLECULE
*****
 60 63 0 0 0
SMALL
GASTEIGER

@<TRIPOS>ATOM
      1 C           6.3378    4.0201    0.8589 C.3     1  UNL1       -0.0063
      2 C           5.6401    2.6772    0.8334 C.ar    1  UNL1        0.1033
      3 C           4.8322    2.0559    1.7356 C.ar    1  UNL1       -0.0131
      4 C           4.4259    0.8056    1.2510 C.ar    1  UNL1        0.0238
      5 C           3.6514   -0.2145    1.7355 C.ar    1  UNL1       -0.0089
      6 C           3.5027   -1.3318    0.9605 C.ar    1  UNL1        0.1428
      7 N           2.6458   -2.4973    1.2031 N.pl3   1  UNL1       -0.0721
      8 C           1.9091   -2.9372    0.8199 C.cat   1  UNL1        0.4013
      9 N           0.8369   -4.0243    0.6764 N.pl3   1  UNL1       -0.1773
     10 C           1.7581   -5.2480    0.9938 C.1     1  UNL1        0.2552
     11 N           2.4227   -6.1254    1.2257 N.1     1  UNL1       -0.1538
     12 N           1.2732   -2.0393   -0.4600 N.pl3   1  UNL1       -0.2634
     13 C           0.9384   -0.7120   -0.1702 C.3     1  UNL1        0.1516
     14 C           1.0911    0.2141   -1.3562 C.3     1  UNL1       -0.0106
     15 C           0.6396   -0.3237   -2.6380 C.3     1  UNL1       -0.0480
     16 C          -0.8355   -0.1437   -2.9336 C.3     1  UNL1       -0.0370
     17 C          -1.6709   -1.1201   -2.1927 C.3     1  UNL1        0.0153
     18 N          -1.6417   -0.8802   -0.7851 N.am    1  UNL1       -0.2898
     19 C          -2.9740   -0.7917   -0.1458 C.3     1  UNL1        0.0913
     20 C          -3.3780    0.6544    0.0064 C.2     1  UNL1        0.2330
     21 O          -2.6697    1.5923   -0.4192 O.2     1  UNL1       -0.2739
     22 N          -4.5996    0.9396    0.6594 N.am    1  UNL1       -0.3002
     23 C          -5.1290    2.2277    0.9901 C.3     1  UNL1        0.0148
     24 C          -6.6217    2.1015    0.9214 C.3     1  UNL1       -0.0357
     25 C          -6.8933    0.6255    0.9084 C.3     1  UNL1       -0.0357
     26 C          -5.5501   -0.0142    1.1786 C.3     1  UNL1        0.0148
     27 C          -0.5721   -0.7306    0.1289 C.2     1  UNL1        0.2530
     28 O          -0.9259   -0.5839    1.2898 O.2     1  UNL1       -0.2718
     29 C           4.1092   -1.3773   -0.2624 C.ar    1  UNL1       -0.0161
     30 C           4.9021   -0.4058   -0.8365 C.ar    1  UNL1       -0.0154
     31 C           5.0196    0.7491    0.0777 C.ar    1  UNL1        0.1354
     32 O           5.7265    1.7967   -0.2025 O.2     1  UNL1       -0.4600
     33 H           6.4303    4.3174    1.9087 H       1  UNL1        0.0308
     34 H           7.4120    3.8858    0.5219 H       1  UNL1        0.0308
     35 H           5.9307    4.7291    0.1137 H       1  UNL1        0.0308
     36 H           4.5539    2.4767    2.7012 H       1  UNL1        0.0658
     37 H           3.1398   -0.1245    2.6819 H       1  UNL1        0.0660
     38 H          -0.0714   -4.2277    0.5958 H       1  UNL1        0.2780
     39 H           1.1705   -2.5695   -1.2608 H       1  UNL1        0.2587
     40 H           1.3459   -0.2193    0.7090 H       1  UNL1        0.0790
     41 H           0.4681    1.1185   -1.0137 H       1  UNL1        0.0303
     42 H           2.1223    0.5479   -1.4302 H       1  UNL1        0.0303
     43 H           0.9603   -1.3544   -2.7903 H       1  UNL1        0.0267
     44 H           1.1832    0.3035   -3.4541 H       1  UNL1        0.0267
     45 H          -1.0381   -0.2446   -4.0276 H       1  UNL1        0.0280
     46 H          -1.0559    0.9512   -2.7096 H       1  UNL1        0.0280
     47 H          -2.7053   -1.1338   -2.5486 H       1  UNL1        0.0465
     48 H          -1.1905   -2.1453   -2.4229 H       1  UNL1        0.0465
     49 H          -3.7036   -1.3680   -0.7161 H       1  UNL1        0.0560
     50 H          -2.8897   -1.2558    0.8583 H       1  UNL1        0.0560
     51 H          -4.8505    3.0341    0.3259 H       1  UNL1        0.0464
     52 H          -4.8357    2.5255    2.0398 H       1  UNL1        0.0464
     53 H          -7.0271    2.5498   -0.0173 H       1  UNL1        0.0281
     54 H          -7.0524    2.5146    1.8736 H       1  UNL1        0.0281
     55 H          -7.6242    0.2941    1.6949 H       1  UNL1        0.0281
     56 H          -7.2877    0.2758   -0.0780 H       1  UNL1        0.0281
     57 H          -5.5098   -1.0104    0.7038 H       1  UNL1        0.0464
     58 H          -5.4053   -0.1104    2.3081 H       1  UNL1        0.0464
     59 H           3.9340   -2.3108   -0.8746 H       1  UNL1        0.0654
     60 H           5.3956   -0.4083   -1.7448 H       1  UNL1        0.0655
@<TRIPOS>BOND
     1     1     2    1
     2     2     3   ar
     3     3     4   ar
     4     4     5   ar
     5     5     6   ar
     6     6     7    1
     7     7     8    2
     8     8     9    1
     9     9    10    1
    10    10    11    3
    11     8    12    1
    12    12    13    1
    13    13    14    1
    14    14    15    1
    15    15    16    1
    16    16    17    1
    17    17    18    1
    18    18    19    1
    19    19    20    1
    20    20    21    2
    21    20    22   am
    22    22    23    1
    23    23    24    1
    24    24    25    1
    25    25    26    1
    26    18    27   am
    27    27    28    2
    28     6    29   ar
    29    29    30   ar
    30    30    31   ar
    31    31    32   ar
    32    32     2   ar
    33    31     4   ar
    34    27    13    1
    35    26    22    1
    36     1    33    1
    37     1    34    1
    38     1    35    1
    39     3    36    1
    40     5    37    1
    41     9    38    1
    42    12    39    1
    43    13    40    1
    44    14    41    1
    45    14    42    1
    46    15    43    1
    47    15    44    1
    48    16    45    1
    49    16    46    1
    50    17    47    1
    51    17    48    1
    52    19    49    1
    53    19    50    1
    54    23    51    1
    55    23    52    1
    56    24    53    1
    57    24    54    1
    58    25    55    1
    59    25    56    1
    60    26    57    1
    61    26    58    1
    62    29    59    1
    63    30    60    1
