
     RDKit          3D

 31 33  0  0  0  0  0  0  0  0999 V2000
    5.3577    0.1288    1.1043 C   0  0  0  0  0  0  0  0  0  0  0  0
    4.0949   -0.0793    0.3581 C   0  0  0  0  0  0  0  0  0  0  0  0
    4.0558    0.0928   -1.0138 C   0  0  0  0  0  0  0  0  0  0  0  0
    2.8900   -0.1007   -1.6855 C   0  0  0  0  0  0  0  0  0  0  0  0
    1.7136   -0.4749   -1.0104 C   0  0  0  0  0  0  0  0  0  0  0  0
    0.5060   -0.6929   -1.7678 C   0  0  0  0  0  0  0  0  0  0  0  0
    0.6295   -1.1204   -2.9390 O   0  0  0  0  0  0  0  0  0  0  0  0
   -0.8595   -0.4313   -1.2191 C   0  0  0  0  0  0  0  0  0  0  0  0
   -1.9879   -0.5753   -1.4591 N   0  0  0  0  0  0  0  0  0  0  0  0
   -3.0496   -0.1992   -0.7774 C   0  0  0  0  0  0  0  0  0  0  0  0
   -4.4029   -0.3702   -1.0619 C   0  0  0  0  0  0  0  0  0  0  0  0
   -5.3489    0.1060   -0.2039 C   0  0  0  0  0  0  0  0  0  0  0  0
   -5.0871    0.7665    0.9642 C   0  0  0  0  0  0  0  0  0  0  0  0
   -6.1176    1.2057    1.7579 O   0  0  0  0  0  0  0  0  0  0  0  0
   -3.7415    0.9463    1.2643 C   0  0  0  0  0  0  0  0  0  0  0  0
   -2.7658    0.4664    0.3993 C   0  0  0  0  0  0  0  0  0  0  0  0
   -0.9867    0.4969    0.4289 S   0  0  0  0  0  0  0  0  0  0  0  0
    1.7480   -0.6467    0.3447 C   0  0  0  0  0  0  0  0  0  0  0  0
    2.9474   -0.4461    1.0270 C   0  0  0  0  0  0  0  0  0  0  0  0
    3.0319   -0.6070    2.3986 O   0  0  0  0  0  0  0  0  0  0  0  0
    5.1733    0.5150    2.1309 H   0  0  0  0  0  0  0  0  0  0  0  0
    5.9611    0.8749    0.5494 H   0  0  0  0  0  0  0  0  0  0  0  0
    5.9189   -0.8279    1.1846 H   0  0  0  0  0  0  0  0  0  0  0  0
    4.9915    0.3855   -1.5132 H   0  0  0  0  0  0  0  0  0  0  0  0
    2.8878    0.0410   -2.7623 H   0  0  0  0  0  0  0  0  0  0  0  0
   -4.7549   -0.8748   -1.9528 H   0  0  0  0  0  0  0  0  0  0  0  0
   -6.4180   -0.0369   -0.4415 H   0  0  0  0  0  0  0  0  0  0  0  0
   -7.0212    0.7669    1.7217 H   0  0  0  0  0  0  0  0  0  0  0  0
   -3.4533    1.4572    2.1672 H   0  0  0  0  0  0  0  0  0  0  0  0
    0.9234   -0.9415    0.9497 H   0  0  0  0  0  0  0  0  0  0  0  0
    3.1641    0.1754    3.0293 H   0  0  0  0  0  0  0  0  0  0  0  0
  1  2  1  0
  2  3  2  0
  3  4  1  0
  4  5  2  0
  5  6  1  0
  6  7  2  0
  6  8  1  0
  8  9  2  0
  9 10  1  0
 10 11  2  0
 11 12  1  0
 12 13  2  0
 13 14  1  0
 13 15  1  0
 15 16  2  0
 16 17  1  0
  5 18  1  0
 18 19  2  0
 19 20  1  0
 19  2  1  0
 17  8  1  0
 16 10  1  0
  1 21  1  0
  1 22  1  0
  1 23  1  0
  3 24  1  0
  4 25  1  0
 11 26  1  0
 12 27  1  0
 14 28  1  0
 15 29  1  0
 18 30  1  0
 20 31  1  0
M  END
$$$$
