@<TRIPOS>MOLECULE
*****
 31 33 0 0 0
SMALL
GASTEIGER

@<TRIPOS>ATOM
      1 C           5.3577    0.1288    1.1043 C.3     1  UNL1       -0.0363
      2 C           4.0949   -0.0793    0.3581 C.ar    1  UNL1       -0.0090
      3 C           4.0558    0.0928   -1.0138 C.ar    1  UNL1       -0.0547
      4 C           2.8900   -0.1007   -1.6855 C.ar    1  UNL1       -0.0504
      5 C           1.7136   -0.4749   -1.0104 C.ar    1  UNL1        0.0278
      6 C           0.5060   -0.6929   -1.7678 C.2     1  UNL1        0.2181
      7 O           0.6295   -1.1204   -2.9390 O.2     1  UNL1       -0.2844
      8 C          -0.8595   -0.4313   -1.2191 C.ar    1  UNL1        0.1495
      9 N          -1.9879   -0.5753   -1.4591 N.ar    1  UNL1       -0.2357
     10 C          -3.0496   -0.1992   -0.7774 C.ar    1  UNL1        0.0792
     11 C          -4.4029   -0.3702   -1.0619 C.ar    1  UNL1       -0.0317
     12 C          -5.3489    0.1060   -0.2039 C.ar    1  UNL1       -0.0181
     13 C          -5.0871    0.7665    0.9642 C.ar    1  UNL1        0.1180
     14 O          -6.1176    1.2057    1.7579 O.3     1  UNL1       -0.5067
     15 C          -3.7415    0.9463    1.2643 C.ar    1  UNL1       -0.0043
     16 C          -2.7658    0.4664    0.3993 C.ar    1  UNL1        0.0431
     17 S          -0.9867    0.4969    0.4289 S.2     1  UNL1       -0.0639
     18 C           1.7480   -0.6467    0.3447 C.ar    1  UNL1       -0.0090
     19 C           2.9474   -0.4461    1.0270 C.ar    1  UNL1        0.1204
     20 O           3.0319   -0.6070    2.3986 O.3     1  UNL1       -0.5065
     21 H           5.1733    0.5150    2.1309 H       1  UNL1        0.0279
     22 H           5.9611    0.8749    0.5494 H       1  UNL1        0.0279
     23 H           5.9189   -0.8279    1.1846 H       1  UNL1        0.0279
     24 H           4.9915    0.3855   -1.5132 H       1  UNL1        0.0622
     25 H           2.8878    0.0410   -2.7623 H       1  UNL1        0.0625
     26 H          -4.7549   -0.8748   -1.9528 H       1  UNL1        0.0640
     27 H          -6.4180   -0.0369   -0.4415 H       1  UNL1        0.0655
     28 H          -7.0212    0.7669    1.7217 H       1  UNL1        0.2921
     29 H          -3.4533    1.4572    2.1672 H       1  UNL1        0.0666
     30 H           0.9234   -0.9415    0.9497 H       1  UNL1        0.0661
     31 H           3.1641    0.1754    3.0293 H       1  UNL1        0.2921
@<TRIPOS>BOND
     1     1     2    1
     2     2     3   ar
     3     3     4   ar
     4     4     5   ar
     5     5     6    1
     6     6     7    2
     7     6     8    1
     8     8     9   ar
     9     9    10   ar
    10    10    11   ar
    11    11    12   ar
    12    12    13   ar
    13    13    14    1
    14    13    15   ar
    15    15    16   ar
    16    16    17   ar
    17     5    18   ar
    18    18    19   ar
    19    19    20    1
    20    19     2   ar
    21    17     8   ar
    22    16    10   ar
    23     1    21    1
    24     1    22    1
    25     1    23    1
    26     3    24    1
    27     4    25    1
    28    11    26    1
    29    12    27    1
    30    14    28    1
    31    15    29    1
    32    18    30    1
    33    20    31    1
