@<TRIPOS>MOLECULE
*****
 76 79 0 0 0
SMALL
GASTEIGER

@<TRIPOS>ATOM
      1 C          -3.9107   -4.0215    3.4424 C.3     1  UNL1       -0.0497
      2 C          -3.7220   -3.4128    2.0412 C.3     1  UNL1        0.0048
      3 C          -5.0627   -3.3139    1.3392 C.3     1  UNL1       -0.0497
      4 N          -3.0617   -2.1323    2.1521 N.3     1  UNL1       -0.3000
      5 C          -3.8092   -1.2342    3.0262 C.3     1  UNL1       -0.0122
      6 C          -2.8816   -1.5642    0.8471 C.3     1  UNL1        0.0108
      7 C          -1.9956   -2.3819   -0.0040 C.3     1  UNL1       -0.0356
      8 C          -1.8534   -1.8077   -1.3594 C.3     1  UNL1       -0.0326
      9 C          -1.5655   -0.3246   -1.4446 C.3     1  UNL1        0.0305
     10 N          -0.1409   -0.1926   -1.5805 N.am    1  UNL1       -0.2965
     11 C           0.5113    0.1624   -2.8562 C.3     1  UNL1        0.0172
     12 C           1.8801   -0.5207   -2.7024 C.3     1  UNL1       -0.0101
     13 C           2.1813   -0.0517   -1.3020 C.3     1  UNL1        0.1013
     14 N           3.3085   -0.7324   -0.7149 N.am    1  UNL1       -0.3000
     15 C           4.4768   -0.1192   -0.2306 C.2     1  UNL1        0.2447
     16 O           4.5485    1.1313   -0.3145 O.2     1  UNL1       -0.2702
     17 C           5.6083   -0.8220    0.3599 C.ar    1  UNL1        0.0372
     18 C           5.6366   -2.2017    0.5052 C.ar    1  UNL1       -0.0496
     19 C           6.7490   -2.8254    1.0782 C.ar    1  UNL1       -0.0605
     20 C           7.8459   -2.1188    1.5165 C.ar    1  UNL1       -0.0501
     21 C           7.8205   -0.7375    1.3723 C.ar    1  UNL1        0.0555
     22 C           9.0008    0.0326    1.8422 C.3     1  UNL1        0.4174
     23 F          10.0392   -0.2150    0.9393 F       1  UNL1       -0.1659
     24 F           9.3564   -0.3460    3.1017 F       1  UNL1       -0.1659
     25 F           8.7346    1.3881    1.7357 F       1  UNL1       -0.1659
     26 C           6.7181   -0.1372    0.8061 C.ar    1  UNL1       -0.0380
     27 C           0.9011   -0.3755   -0.6295 C.2     1  UNL1        0.2362
     28 O           0.8288   -0.7323    0.5441 O.2     1  UNL1       -0.2736
     29 C          -2.2677    0.4687   -0.4305 C.3     1  UNL1       -0.0012
     30 C          -2.0327    1.9239   -0.3722 C.3     1  UNL1        0.0754
     31 S          -2.5412    2.7099   -1.8639 S.O2    1  UNL1       -0.0028
     32 O          -1.9530    2.1253   -3.1049 O.2     1  UNL1       -0.1693
     33 O          -4.0541    2.5482   -2.0283 O.2     1  UNL1       -0.1693
     34 C          -2.2677    4.4442   -1.7936 C.ar    1  UNL1        0.0882
     35 C          -3.2338    5.2785   -1.3100 C.ar    1  UNL1       -0.0369
     36 C          -3.0213    6.6234   -1.2564 C.ar    1  UNL1       -0.0600
     37 C          -1.8193    7.1593   -1.6934 C.ar    1  UNL1       -0.0616
     38 C          -0.8466    6.3241   -2.1797 C.ar    1  UNL1       -0.0600
     39 C          -1.0777    4.9582   -2.2279 C.ar    1  UNL1       -0.0369
     40 C          -2.3676   -0.1420    0.9387 C.3     1  UNL1       -0.0313
     41 H          -3.9221   -5.1261    3.3777 H       1  UNL1        0.0245
     42 H          -4.9013   -3.6752    3.7928 H       1  UNL1        0.0245
     43 H          -3.0732   -3.7175    4.0908 H       1  UNL1        0.0245
     44 H          -3.1317   -4.1794    1.5021 H       1  UNL1        0.0457
     45 H          -5.6032   -4.2667    1.5711 H       1  UNL1        0.0245
     46 H          -5.6403   -2.4266    1.6628 H       1  UNL1        0.0245
     47 H          -4.8669   -3.3333    0.2515 H       1  UNL1        0.0245
     48 H          -4.0927   -1.8082    3.9214 H       1  UNL1        0.0391
     49 H          -4.6996   -0.8216    2.5162 H       1  UNL1        0.0391
     50 H          -3.0977   -0.4488    3.3590 H       1  UNL1        0.0391
     51 H          -3.8741   -1.4891    0.3371 H       1  UNL1        0.0463
     52 H          -2.5139   -3.3856   -0.1653 H       1  UNL1        0.0281
     53 H          -1.0439   -2.6883    0.4834 H       1  UNL1        0.0281
     54 H          -2.7964   -2.0576   -1.9325 H       1  UNL1        0.0284
     55 H          -1.0572   -2.3683   -1.8973 H       1  UNL1        0.0284
     56 H          -2.0019   -0.0611   -2.4517 H       1  UNL1        0.0504
     57 H          -0.0312   -0.2304   -3.7140 H       1  UNL1        0.0465
     58 H           0.6461    1.2405   -2.9504 H       1  UNL1        0.0465
     59 H           2.5834   -0.1681   -3.4544 H       1  UNL1        0.0303
     60 H           1.6570   -1.6114   -2.7554 H       1  UNL1        0.0303
     61 H           2.3090    1.0342   -1.3390 H       1  UNL1        0.0595
     62 H           3.2353   -1.7700   -0.6511 H       1  UNL1        0.1498
     63 H           4.7869   -2.7691    0.1674 H       1  UNL1        0.0625
     64 H           6.7406   -3.8907    1.1759 H       1  UNL1        0.0618
     65 H           8.7202   -2.5717    1.9632 H       1  UNL1        0.0623
     66 H           6.7027    0.9472    0.6948 H       1  UNL1        0.0631
     67 H          -3.3849    0.4258   -0.7594 H       1  UNL1        0.0335
     68 H          -2.7030    2.3507    0.4374 H       1  UNL1        0.0507
     69 H          -1.0183    2.2259   -0.0507 H       1  UNL1        0.0507
     70 H          -4.1730    4.8699   -0.9674 H       1  UNL1        0.0636
     71 H          -3.7921    7.2932   -0.8702 H       1  UNL1        0.0618
     72 H          -1.6416    8.2233   -1.6552 H       1  UNL1        0.0618
     73 H           0.0946    6.7248   -2.5240 H       1  UNL1        0.0618
     74 H          -0.3310    4.2960   -2.6032 H       1  UNL1        0.0636
     75 H          -3.2150    0.4097    1.4624 H       1  UNL1        0.0284
     76 H          -1.5296    0.0080    1.6058 H       1  UNL1        0.0284
@<TRIPOS>BOND
     1     1     2    1
     2     2     3    1
     3     2     4    1
     4     4     5    1
     5     4     6    1
     6     6     7    1
     7     7     8    1
     8     8     9    1
     9     9    10    1
    10    10    11    1
    11    11    12    1
    12    12    13    1
    13    13    14    1
    14    14    15   am
    15    15    16    2
    16    15    17    1
    17    17    18   ar
    18    18    19   ar
    19    19    20   ar
    20    20    21   ar
    21    21    22    1
    22    22    23    1
    23    22    24    1
    24    22    25    1
    25    21    26   ar
    26    13    27    1
    27    27    28    2
    28     9    29    1
    29    29    30    1
    30    30    31    1
    31    31    32    2
    32    31    33    2
    33    31    34    1
    34    34    35   ar
    35    35    36   ar
    36    36    37   ar
    37    37    38   ar
    38    38    39   ar
    39    29    40    1
    40    40     6    1
    41    27    10   am
    42    39    34   ar
    43    26    17   ar
    44     1    41    1
    45     1    42    1
    46     1    43    1
    47     2    44    1
    48     3    45    1
    49     3    46    1
    50     3    47    1
    51     5    48    1
    52     5    49    1
    53     5    50    1
    54     6    51    1
    55     7    52    1
    56     7    53    1
    57     8    54    1
    58     8    55    1
    59     9    56    1
    60    11    57    1
    61    11    58    1
    62    12    59    1
    63    12    60    1
    64    13    61    1
    65    14    62    1
    66    18    63    1
    67    19    64    1
    68    20    65    1
    69    26    66    1
    70    29    67    1
    71    30    68    1
    72    30    69    1
    73    35    70    1
    74    36    71    1
    75    37    72    1
    76    38    73    1
    77    39    74    1
    78    40    75    1
    79    40    76    1
