
     RDKit          3D

 76 79  0  0  0  0  0  0  0  0999 V2000
   -3.9107   -4.0215    3.4424 C   0  0  0  0  0  0  0  0  0  0  0  0
   -3.7220   -3.4128    2.0412 C   0  0  0  0  0  0  0  0  0  0  0  0
   -5.0627   -3.3139    1.3392 C   0  0  0  0  0  0  0  0  0  0  0  0
   -3.0617   -2.1323    2.1521 N   0  0  0  0  0  0  0  0  0  0  0  0
   -3.8092   -1.2342    3.0262 C   0  0  0  0  0  0  0  0  0  0  0  0
   -2.8816   -1.5642    0.8471 C   0  0  2  0  0  0  0  0  0  0  0  0
   -1.9956   -2.3819   -0.0040 C   0  0  0  0  0  0  0  0  0  0  0  0
   -1.8534   -1.8077   -1.3594 C   0  0  0  0  0  0  0  0  0  0  0  0
   -1.5655   -0.3246   -1.4446 C   0  0  2  0  0  0  0  0  0  0  0  0
   -0.1409   -0.1926   -1.5805 N   0  0  0  0  0  0  0  0  0  0  0  0
    0.5113    0.1624   -2.8562 C   0  0  0  0  0  0  0  0  0  0  0  0
    1.8801   -0.5207   -2.7024 C   0  0  0  0  0  0  0  0  0  0  0  0
    2.1813   -0.0517   -1.3020 C   0  0  2  0  0  0  0  0  0  0  0  0
    3.3085   -0.7324   -0.7149 N   0  0  0  0  0  0  0  0  0  0  0  0
    4.4768   -0.1192   -0.2306 C   0  0  0  0  0  0  0  0  0  0  0  0
    4.5485    1.1313   -0.3145 O   0  0  0  0  0  0  0  0  0  0  0  0
    5.6083   -0.8220    0.3599 C   0  0  0  0  0  0  0  0  0  0  0  0
    5.6366   -2.2017    0.5052 C   0  0  0  0  0  0  0  0  0  0  0  0
    6.7490   -2.8254    1.0782 C   0  0  0  0  0  0  0  0  0  0  0  0
    7.8459   -2.1188    1.5165 C   0  0  0  0  0  0  0  0  0  0  0  0
    7.8205   -0.7375    1.3723 C   0  0  0  0  0  0  0  0  0  0  0  0
    9.0008    0.0326    1.8422 C   0  0  0  0  0  0  0  0  0  0  0  0
   10.0392   -0.2150    0.9393 F   0  0  0  0  0  0  0  0  0  0  0  0
    9.3564   -0.3460    3.1017 F   0  0  0  0  0  0  0  0  0  0  0  0
    8.7346    1.3881    1.7357 F   0  0  0  0  0  0  0  0  0  0  0  0
    6.7181   -0.1372    0.8061 C   0  0  0  0  0  0  0  0  0  0  0  0
    0.9011   -0.3755   -0.6295 C   0  0  0  0  0  0  0  0  0  0  0  0
    0.8288   -0.7323    0.5441 O   0  0  0  0  0  0  0  0  0  0  0  0
   -2.2677    0.4687   -0.4305 C   0  0  2  0  0  0  0  0  0  0  0  0
   -2.0327    1.9239   -0.3722 C   0  0  0  0  0  0  0  0  0  0  0  0
   -2.5412    2.7099   -1.8639 S   0  0  0  0  0  6  0  0  0  0  0  0
   -1.9530    2.1253   -3.1049 O   0  0  0  0  0  0  0  0  0  0  0  0
   -4.0541    2.5482   -2.0283 O   0  0  0  0  0  0  0  0  0  0  0  0
   -2.2677    4.4442   -1.7936 C   0  0  0  0  0  0  0  0  0  0  0  0
   -3.2338    5.2785   -1.3100 C   0  0  0  0  0  0  0  0  0  0  0  0
   -3.0213    6.6234   -1.2564 C   0  0  0  0  0  0  0  0  0  0  0  0
   -1.8193    7.1593   -1.6934 C   0  0  0  0  0  0  0  0  0  0  0  0
   -0.8466    6.3241   -2.1797 C   0  0  0  0  0  0  0  0  0  0  0  0
   -1.0777    4.9582   -2.2279 C   0  0  0  0  0  0  0  0  0  0  0  0
   -2.3676   -0.1420    0.9387 C   0  0  0  0  0  0  0  0  0  0  0  0
   -3.9221   -5.1261    3.3777 H   0  0  0  0  0  0  0  0  0  0  0  0
   -4.9013   -3.6752    3.7928 H   0  0  0  0  0  0  0  0  0  0  0  0
   -3.0732   -3.7175    4.0908 H   0  0  0  0  0  0  0  0  0  0  0  0
   -3.1317   -4.1794    1.5021 H   0  0  0  0  0  0  0  0  0  0  0  0
   -5.6032   -4.2667    1.5711 H   0  0  0  0  0  0  0  0  0  0  0  0
   -5.6403   -2.4266    1.6628 H   0  0  0  0  0  0  0  0  0  0  0  0
   -4.8669   -3.3333    0.2515 H   0  0  0  0  0  0  0  0  0  0  0  0
   -4.0927   -1.8082    3.9214 H   0  0  0  0  0  0  0  0  0  0  0  0
   -4.6996   -0.8216    2.5162 H   0  0  0  0  0  0  0  0  0  0  0  0
   -3.0977   -0.4488    3.3590 H   0  0  0  0  0  0  0  0  0  0  0  0
   -3.8741   -1.4891    0.3371 H   0  0  0  0  0  0  0  0  0  0  0  0
   -2.5139   -3.3856   -0.1653 H   0  0  0  0  0  0  0  0  0  0  0  0
   -1.0439   -2.6883    0.4834 H   0  0  0  0  0  0  0  0  0  0  0  0
   -2.7964   -2.0576   -1.9325 H   0  0  0  0  0  0  0  0  0  0  0  0
   -1.0572   -2.3683   -1.8973 H   0  0  0  0  0  0  0  0  0  0  0  0
   -2.0019   -0.0611   -2.4517 H   0  0  0  0  0  0  0  0  0  0  0  0
   -0.0312   -0.2304   -3.7140 H   0  0  0  0  0  0  0  0  0  0  0  0
    0.6461    1.2405   -2.9504 H   0  0  0  0  0  0  0  0  0  0  0  0
    2.5834   -0.1681   -3.4544 H   0  0  0  0  0  0  0  0  0  0  0  0
    1.6570   -1.6114   -2.7554 H   0  0  0  0  0  0  0  0  0  0  0  0
    2.3090    1.0342   -1.3390 H   0  0  0  0  0  0  0  0  0  0  0  0
    3.2353   -1.7700   -0.6511 H   0  0  0  0  0  0  0  0  0  0  0  0
    4.7869   -2.7691    0.1674 H   0  0  0  0  0  0  0  0  0  0  0  0
    6.7406   -3.8907    1.1759 H   0  0  0  0  0  0  0  0  0  0  0  0
    8.7202   -2.5717    1.9632 H   0  0  0  0  0  0  0  0  0  0  0  0
    6.7027    0.9472    0.6948 H   0  0  0  0  0  0  0  0  0  0  0  0
   -3.3849    0.4258   -0.7594 H   0  0  0  0  0  0  0  0  0  0  0  0
   -2.7030    2.3507    0.4374 H   0  0  0  0  0  0  0  0  0  0  0  0
   -1.0183    2.2259   -0.0507 H   0  0  0  0  0  0  0  0  0  0  0  0
   -4.1730    4.8699   -0.9674 H   0  0  0  0  0  0  0  0  0  0  0  0
   -3.7921    7.2932   -0.8702 H   0  0  0  0  0  0  0  0  0  0  0  0
   -1.6416    8.2233   -1.6552 H   0  0  0  0  0  0  0  0  0  0  0  0
    0.0946    6.7248   -2.5240 H   0  0  0  0  0  0  0  0  0  0  0  0
   -0.3310    4.2960   -2.6032 H   0  0  0  0  0  0  0  0  0  0  0  0
   -3.2150    0.4097    1.4624 H   0  0  0  0  0  0  0  0  0  0  0  0
   -1.5296    0.0080    1.6058 H   0  0  0  0  0  0  0  0  0  0  0  0
  1  2  1  0
  2  3  1  0
  2  4  1  0
  4  5  1  0
  4  6  1  0
  6  7  1  0
  7  8  1  0
  8  9  1  0
  9 10  1  0
 10 11  1  0
 11 12  1  0
 12 13  1  0
 13 14  1  0
 14 15  1  0
 15 16  2  0
 15 17  1  0
 17 18  2  0
 18 19  1  0
 19 20  2  0
 20 21  1  0
 21 22  1  0
 22 23  1  0
 22 24  1  0
 22 25  1  0
 21 26  2  0
 13 27  1  0
 27 28  2  0
  9 29  1  0
 29 30  1  0
 30 31  1  0
 31 32  2  0
 31 33  2  0
 31 34  1  0
 34 35  2  0
 35 36  1  0
 36 37  2  0
 37 38  1  0
 38 39  2  0
 29 40  1  0
 40  6  1  0
 27 10  1  0
 39 34  1  0
 26 17  1  0
  1 41  1  0
  1 42  1  0
  1 43  1  0
  2 44  1  0
  3 45  1  0
  3 46  1  0
  3 47  1  0
  5 48  1  0
  5 49  1  0
  5 50  1  0
  6 51  1  6
  7 52  1  0
  7 53  1  0
  8 54  1  0
  8 55  1  0
  9 56  1  6
 11 57  1  0
 11 58  1  0
 12 59  1  0
 12 60  1  0
 13 61  1  6
 14 62  1  0
 18 63  1  0
 19 64  1  0
 20 65  1  0
 26 66  1  0
 29 67  1  6
 30 68  1  0
 30 69  1  0
 35 70  1  0
 36 71  1  0
 37 72  1  0
 38 73  1  0
 39 74  1  0
 40 75  1  0
 40 76  1  0
M  END
$$$$
