@<TRIPOS>MOLECULE
*****
 51 53 0 0 0
SMALL
GASTEIGER

@<TRIPOS>ATOM
      1 C           6.7156    1.7872    1.1794 C.3     1  UNL1       -0.0380
      2 C           5.5105    1.1802    0.5796 C.ar    1  UNL1       -0.0293
      3 C           4.2641    1.2356    1.1727 C.ar    1  UNL1       -0.0539
      4 C           3.1709    0.6533    0.5671 C.ar    1  UNL1       -0.0213
      5 C           3.2908    0.0012   -0.6442 C.ar    1  UNL1        0.1232
      6 N           2.1994   -0.6169   -1.3203 N.pl3   1  UNL1       -0.2975
      7 C           0.9055   -0.7252   -0.7179 C.ar    1  UNL1        0.0683
      8 C          -0.1731   -0.0201   -1.2598 C.ar    1  UNL1        0.0034
      9 C          -1.4354   -0.0779   -0.7316 C.ar    1  UNL1        0.1433
     10 N          -2.4719    0.6741   -1.3468 N.pl3   1  UNL1       -0.3233
     11 C          -3.8268    0.7051   -0.8860 C.3     1  UNL1        0.0371
     12 C          -3.8546    1.2479    0.5289 C.3     1  UNL1       -0.0331
     13 C          -5.0810    0.8310    1.2756 C.3     1  UNL1       -0.0513
     14 C          -6.2686    0.6519    0.3724 C.3     1  UNL1       -0.0515
     15 C          -6.0471   -0.2714   -0.7784 C.3     1  UNL1       -0.0360
     16 C          -4.5650   -0.5985   -1.0038 C.3     1  UNL1        0.0234
     17 N          -4.2059   -1.5905   -0.0465 N.3     1  UNL1       -0.3257
     18 N          -1.6304   -0.8452    0.3474 N.ar    1  UNL1       -0.1336
     19 N          -0.6258   -1.5074    0.8564 N.ar    1  UNL1       -0.1409
     20 C           0.6462   -1.4964    0.3848 C.ar    1  UNL1        0.1685
     21 C           1.6754   -2.3322    0.9921 C.2     1  UNL1        0.2635
     22 N           1.3854   -3.0289    2.1955 N.am    1  UNL1       -0.3240
     23 O           2.7989   -2.4481    0.4805 O.2     1  UNL1       -0.2686
     24 N           4.5208   -0.0273   -1.1826 N.ar    1  UNL1       -0.2368
     25 C           5.6060    0.5216   -0.6332 C.ar    1  UNL1        0.0432
     26 C           6.9344    0.4383   -1.3085 C.3     1  UNL1       -0.0220
     27 H           6.3702    2.4258    2.0411 H       1  UNL1        0.0278
     28 H           7.3890    1.0243    1.6259 H       1  UNL1        0.0278
     29 H           7.2990    2.3755    0.4478 H       1  UNL1        0.0278
     30 H           4.1949    1.7546    2.1262 H       1  UNL1        0.0622
     31 H           2.1945    0.6965    1.0336 H       1  UNL1        0.0652
     32 H           2.3207   -1.0027   -2.2655 H       1  UNL1        0.1536
     33 H           0.0383    0.5938   -2.1444 H       1  UNL1        0.0672
     34 H          -2.2253    1.2382   -2.1895 H       1  UNL1        0.1478
     35 H          -4.3955    1.4399   -1.4920 H       1  UNL1        0.0513
     36 H          -2.9770    0.9368    1.1288 H       1  UNL1        0.0284
     37 H          -3.8219    2.3703    0.5255 H       1  UNL1        0.0284
     38 H          -5.3418    1.6384    1.9932 H       1  UNL1        0.0266
     39 H          -4.9025   -0.0682    1.9219 H       1  UNL1        0.0266
     40 H          -6.5239    1.6680   -0.0407 H       1  UNL1        0.0266
     41 H          -7.1427    0.3736    1.0023 H       1  UNL1        0.0266
     42 H          -6.5406   -1.2405   -0.5369 H       1  UNL1        0.0281
     43 H          -6.5029    0.0825   -1.7280 H       1  UNL1        0.0281
     44 H          -4.4918   -0.9298   -2.0589 H       1  UNL1        0.0476
     45 H          -5.0226   -1.9857    0.4846 H       1  UNL1        0.1185
     46 H          -3.8319   -2.4230   -0.5933 H       1  UNL1        0.1185
     47 H           2.1353   -3.5688    2.6720 H       1  UNL1        0.1453
     48 H           0.4470   -3.0387    2.6505 H       1  UNL1        0.1453
     49 H           7.0943   -0.5401   -1.7708 H       1  UNL1        0.0293
     50 H           7.0696    1.2244   -2.0669 H       1  UNL1        0.0293
     51 H           7.7294    0.6136   -0.5271 H       1  UNL1        0.0293
@<TRIPOS>BOND
     1     1     2    1
     2     2     3   ar
     3     3     4   ar
     4     4     5   ar
     5     5     6    1
     6     6     7    1
     7     7     8   ar
     8     8     9   ar
     9     9    10    1
    10    10    11    1
    11    11    12    1
    12    12    13    1
    13    13    14    1
    14    14    15    1
    15    15    16    1
    16    16    17    1
    17     9    18   ar
    18    18    19   ar
    19    19    20   ar
    20    20    21    1
    21    21    22   am
    22    21    23    2
    23     5    24   ar
    24    24    25   ar
    25    25    26    1
    26    25     2   ar
    27    20     7   ar
    28    16    11    1
    29     1    27    1
    30     1    28    1
    31     1    29    1
    32     3    30    1
    33     4    31    1
    34     6    32    1
    35     8    33    1
    36    10    34    1
    37    11    35    1
    38    12    36    1
    39    12    37    1
    40    13    38    1
    41    13    39    1
    42    14    40    1
    43    14    41    1
    44    15    42    1
    45    15    43    1
    46    16    44    1
    47    17    45    1
    48    17    46    1
    49    22    47    1
    50    22    48    1
    51    26    49    1
    52    26    50    1
    53    26    51    1
