@<TRIPOS>MOLECULE
*****
 83 86 0 0 0
SMALL
GASTEIGER

@<TRIPOS>ATOM
      1 C          -9.9185   -0.6050   -2.0406 C.3     1  UNL1       -0.0523
      2 C         -10.1671   -0.7487   -0.5604 C.3     1  UNL1       -0.0029
      3 N          -9.0666   -0.3550    0.2087 N.3     1  UNL1       -0.2921
      4 C          -8.6751    0.9911    0.2762 C.3     1  UNL1        0.0202
      5 C          -8.8036    1.6073    1.6506 C.3     1  UNL1       -0.0467
      6 C          -9.5117    1.8246   -0.6789 C.3     1  UNL1       -0.0467
      7 C          -7.2386    1.1662   -0.1775 C.3     1  UNL1        0.0023
      8 C          -6.2658    0.2955    0.5843 C.3     1  UNL1        0.1036
      9 O          -5.3840   -0.3001   -0.2976 O.3     1  UNL1       -0.4872
     10 C          -4.0151   -0.1751   -0.2751 C.ar    1  UNL1        0.1390
     11 C          -3.2764   -0.8527   -1.2678 C.ar    1  UNL1       -0.0162
     12 C          -1.9131   -0.7423   -1.2632 C.ar    1  UNL1       -0.0277
     13 C          -1.2473    0.0040   -0.3265 C.ar    1  UNL1        0.1259
     14 C           0.2322    0.1050   -0.3426 C.2     1  UNL1        0.2666
     15 O           0.8462   -0.5004   -1.2370 O.2     1  UNL1       -0.2682
     16 N           0.9394    0.8516    0.6085 N.am    1  UNL1       -0.2802
     17 C           2.3346    1.0306    0.7075 C.ar    1  UNL1        0.0338
     18 C           3.2807    0.5189   -0.1391 C.ar    1  UNL1       -0.0387
     19 C           4.6463    0.7580    0.0621 C.ar    1  UNL1       -0.0387
     20 C           5.1320    1.5082    1.1019 C.ar    1  UNL1        0.0349
     21 N           6.4982    1.7818    1.3512 N.am    1  UNL1       -0.2692
     22 C           7.5983    1.3617    0.5814 C.2     1  UNL1        0.3093
     23 O           7.4330    0.6830   -0.4341 O.2     1  UNL1       -0.2521
     24 N           8.9496    1.6965    0.9335 N.am    1  UNL1       -0.2512
     25 C          10.0634    1.2781    0.1593 C.ar    1  UNL1        0.1691
     26 C          10.7823    0.0974    0.3056 C.ar    1  UNL1        0.0230
     27 C          11.7862    0.0941   -0.6511 C.ar    1  UNL1        0.1445
     28 C          12.7842   -1.0143   -0.8228 C.3     1  UNL1        0.0230
     29 C          13.7440   -0.6972   -1.9247 C.3     1  UNL1       -0.0531
     30 C          13.4268   -1.2573    0.5045 C.3     1  UNL1       -0.0531
     31 C          11.9615   -2.2478   -1.1816 C.3     1  UNL1       -0.0531
     32 O          11.6604    1.2059   -1.3156 O.2     1  UNL1       -0.3573
     33 N          10.6651    1.9182   -0.8673 N.ar    1  UNL1       -0.0627
     34 C           4.1624    2.0306    1.9663 C.ar    1  UNL1       -0.0387
     35 C           2.8234    1.7944    1.7663 C.ar    1  UNL1       -0.0387
     36 N          -1.9739    0.6329    0.5993 N.ar    1  UNL1       -0.2467
     37 C          -3.3118    0.5621    0.6454 C.ar    1  UNL1        0.0701
     38 C          -7.0117   -0.7475    1.3904 C.3     1  UNL1        0.0023
     39 C          -8.1842   -1.3501    0.6863 C.3     1  UNL1        0.0202
     40 C          -8.8326   -2.3267    1.6478 C.3     1  UNL1       -0.0467
     41 C          -7.6800   -2.1741   -0.4790 C.3     1  UNL1       -0.0467
     42 H         -10.1773   -1.5515   -2.5998 H       1  UNL1        0.0242
     43 H         -10.5485    0.1790   -2.5230 H       1  UNL1        0.0242
     44 H          -8.8550   -0.4123   -2.2764 H       1  UNL1        0.0242
     45 H         -11.1398   -0.2908   -0.2706 H       1  UNL1        0.0424
     46 H         -10.3446   -1.8559   -0.3918 H       1  UNL1        0.0424
     47 H          -9.3095    0.9266    2.3669 H       1  UNL1        0.0247
     48 H          -9.4546    2.4983    1.5684 H       1  UNL1        0.0247
     49 H          -7.8265    1.9816    1.9989 H       1  UNL1        0.0247
     50 H         -10.5827    1.6251   -0.6246 H       1  UNL1        0.0247
     51 H          -9.0822    1.8799   -1.6983 H       1  UNL1        0.0247
     52 H          -9.4027    2.8874   -0.2933 H       1  UNL1        0.0247
     53 H          -7.1356    0.9204   -1.2555 H       1  UNL1        0.0319
     54 H          -6.9381    2.2304   -0.0941 H       1  UNL1        0.0319
     55 H          -5.7921    0.9639    1.3400 H       1  UNL1        0.0734
     56 H          -3.8202   -1.4326   -1.9927 H       1  UNL1        0.0655
     57 H          -1.3207   -1.2546   -2.0181 H       1  UNL1        0.0641
     58 H           0.3331    1.3376    1.3370 H       1  UNL1        0.1552
     59 H           2.9570   -0.0777   -0.9740 H       1  UNL1        0.0637
     60 H           5.3028    0.3197   -0.6461 H       1  UNL1        0.0637
     61 H           6.7121    2.3719    2.2211 H       1  UNL1        0.1564
     62 H           9.0895    2.2628    1.7818 H       1  UNL1        0.1579
     63 H          10.5874   -0.6702    1.0345 H       1  UNL1        0.0688
     64 H          13.2204   -0.6580   -2.8780 H       1  UNL1        0.0239
     65 H          14.2995    0.2248   -1.6691 H       1  UNL1        0.0239
     66 H          14.5054   -1.5128   -1.9501 H       1  UNL1        0.0239
     67 H          12.6096   -1.5697    1.2082 H       1  UNL1        0.0239
     68 H          14.1304   -2.1220    0.4291 H       1  UNL1        0.0239
     69 H          13.8867   -0.3702    0.9454 H       1  UNL1        0.0239
     70 H          11.0339   -1.9343   -1.7089 H       1  UNL1        0.0239
     71 H          12.4995   -2.9139   -1.8866 H       1  UNL1        0.0239
     72 H          11.6478   -2.7433   -0.2489 H       1  UNL1        0.0239
     73 H           4.5122    2.6278    2.7975 H       1  UNL1        0.0637
     74 H           2.0997    2.2281    2.4750 H       1  UNL1        0.0637
     75 H          -3.8643    1.1049    1.4380 H       1  UNL1        0.0867
     76 H          -7.2638   -0.3106    2.3733 H       1  UNL1        0.0319
     77 H          -6.2545   -1.5589    1.6023 H       1  UNL1        0.0319
     78 H          -8.5375   -2.0838    2.7090 H       1  UNL1        0.0247
     79 H          -8.4511   -3.3521    1.4729 H       1  UNL1        0.0247
     80 H          -9.9302   -2.3665    1.5395 H       1  UNL1        0.0247
     81 H          -7.0337   -3.0058   -0.0910 H       1  UNL1        0.0247
     82 H          -8.5439   -2.6335   -1.0427 H       1  UNL1        0.0247
     83 H          -7.0911   -1.5921   -1.2016 H       1  UNL1        0.0247
@<TRIPOS>BOND
     1     1     2    1
     2     2     3    1
     3     3     4    1
     4     4     5    1
     5     4     6    1
     6     4     7    1
     7     7     8    1
     8     8     9    1
     9     9    10    1
    10    10    11   ar
    11    11    12   ar
    12    12    13   ar
    13    13    14    1
    14    14    15    2
    15    14    16   am
    16    16    17    1
    17    17    18   ar
    18    18    19   ar
    19    19    20   ar
    20    20    21    1
    21    21    22   am
    22    22    23    2
    23    22    24   am
    24    24    25    1
    25    25    26   ar
    26    26    27   ar
    27    27    28    1
    28    28    29    1
    29    28    30    1
    30    28    31    1
    31    27    32   ar
    32    32    33   ar
    33    20    34   ar
    34    34    35   ar
    35    13    36   ar
    36    36    37   ar
    37     8    38    1
    38    38    39    1
    39    39    40    1
    40    39    41    1
    41    39     3    1
    42    37    10   ar
    43    35    17   ar
    44    33    25   ar
    45     1    42    1
    46     1    43    1
    47     1    44    1
    48     2    45    1
    49     2    46    1
    50     5    47    1
    51     5    48    1
    52     5    49    1
    53     6    50    1
    54     6    51    1
    55     6    52    1
    56     7    53    1
    57     7    54    1
    58     8    55    1
    59    11    56    1
    60    12    57    1
    61    16    58    1
    62    18    59    1
    63    19    60    1
    64    21    61    1
    65    24    62    1
    66    26    63    1
    67    29    64    1
    68    29    65    1
    69    29    66    1
    70    30    67    1
    71    30    68    1
    72    30    69    1
    73    31    70    1
    74    31    71    1
    75    31    72    1
    76    34    73    1
    77    35    74    1
    78    37    75    1
    79    38    76    1
    80    38    77    1
    81    40    78    1
    82    40    79    1
    83    40    80    1
    84    41    81    1
    85    41    82    1
    86    41    83    1
