@<TRIPOS>MOLECULE
*****
 40 40 0 0 0
SMALL
GASTEIGER

@<TRIPOS>ATOM
      1 C           0.0022   -3.5182   -0.9602 C.3     1  UNL1        0.0788
      2 O          -0.4848   -2.3460   -0.3354 O.3     1  UNL1       -0.4946
      3 C           0.4490   -1.4079    0.0855 C.ar    1  UNL1        0.1292
      4 C           1.8037   -1.5950   -0.0905 C.ar    1  UNL1        0.0225
      5 C           2.7425   -0.6463    0.3354 C.ar    1  UNL1        0.1275
      6 O           4.0847   -1.0043    0.0982 O.3     1  UNL1       -0.5061
      7 C           2.3533    0.5117    0.9416 C.ar    1  UNL1        0.0172
      8 C           3.2273    1.6088    1.2940 C.2     1  UNL1       -0.0444
      9 C           4.1277    2.1984    0.5888 C.2     1  UNL1        0.0230
     10 C           4.4232    1.8607   -0.7692 C.2     1  UNL1        0.3296
     11 O           3.8987    1.0484   -1.5403 O.2     1  UNL1       -0.2458
     12 O           5.5055    2.5712   -1.3503 O.3     1  UNL1       -0.4775
     13 C           0.9595    0.6745    1.1105 C.ar    1  UNL1       -0.0420
     14 C           0.0372   -0.2424    0.7024 C.ar    1  UNL1        0.0233
     15 C          -1.4311   -0.0643    0.8838 C.3     1  UNL1        0.0838
     16 O          -1.7332    0.6559    2.0335 O.3     1  UNL1       -0.3871
     17 C          -2.0669    0.6310   -0.2840 C.3     1  UNL1       -0.0202
     18 C          -3.5431    0.7612   -0.0032 C.3     1  UNL1       -0.0441
     19 C          -4.2653    1.4612   -1.1486 C.3     1  UNL1       -0.0626
     20 C          -4.2196   -0.5823    0.1710 C.3     1  UNL1       -0.0626
     21 H          -0.8003   -4.1721   -1.3293 H       1  UNL1        0.0660
     22 H           0.6882   -4.0898   -0.2877 H       1  UNL1        0.0660
     23 H           0.6428   -3.1815   -1.8108 H       1  UNL1        0.0660
     24 H           2.1269   -2.5103   -0.5749 H       1  UNL1        0.0691
     25 H           4.4217   -1.8547    0.5411 H       1  UNL1        0.2922
     26 H           3.1155    2.0203    2.3383 H       1  UNL1        0.0627
     27 H           4.6868    3.0191    1.1104 H       1  UNL1        0.0689
     28 H           6.0251    2.1235   -2.1181 H       1  UNL1        0.2954
     29 H           0.6278    1.5736    1.5873 H       1  UNL1        0.0629
     30 H          -1.9278   -1.0715    0.9688 H       1  UNL1        0.0645
     31 H          -1.5224    0.1245    2.8622 H       1  UNL1        0.2102
     32 H          -1.6724    1.6460   -0.4403 H       1  UNL1        0.0296
     33 H          -1.9711    0.0647   -1.2349 H       1  UNL1        0.0296
     34 H          -3.7518    1.3639    0.9078 H       1  UNL1        0.0296
     35 H          -4.5159    2.5130   -0.8996 H       1  UNL1        0.0232
     36 H          -5.2244    0.9616   -1.4001 H       1  UNL1        0.0232
     37 H          -3.5936    1.5242   -2.0537 H       1  UNL1        0.0232
     38 H          -5.3187   -0.3772    0.1571 H       1  UNL1        0.0232
     39 H          -3.9487   -1.2603   -0.6830 H       1  UNL1        0.0232
     40 H          -3.9583   -0.9933    1.1488 H       1  UNL1        0.0232
@<TRIPOS>BOND
     1     1     2    1
     2     2     3    1
     3     3     4   ar
     4     4     5   ar
     5     5     6    1
     6     5     7   ar
     7     7     8    1
     8     8     9    2
     9     9    10    1
    10    10    11    2
    11    10    12    1
    12     7    13   ar
    13    13    14   ar
    14    14    15    1
    15    15    16    1
    16    15    17    1
    17    17    18    1
    18    18    19    1
    19    18    20    1
    20    14     3   ar
    21     1    21    1
    22     1    22    1
    23     1    23    1
    24     4    24    1
    25     6    25    1
    26     8    26    1
    27     9    27    1
    28    12    28    1
    29    13    29    1
    30    15    30    1
    31    16    31    1
    32    17    32    1
    33    17    33    1
    34    18    34    1
    35    19    35    1
    36    19    36    1
    37    19    37    1
    38    20    38    1
    39    20    39    1
    40    20    40    1
