@<TRIPOS>MOLECULE
*****
 45 46 0 0 0
SMALL
GASTEIGER

@<TRIPOS>ATOM
      1 N           7.5752   -0.1126    0.6316 N.3     1  UNL1       -0.3265
      2 C           7.5680   -0.2149   -0.7676 C.3     1  UNL1        0.0143
      3 C           6.5040    0.2783   -1.5840 C.2     1  UNL1       -0.0360
      4 C           5.3955    0.8870   -1.2624 C.2     1  UNL1        0.1351
      5 F           4.5215    1.2616   -2.2950 F       1  UNL1       -0.2069
      6 C           5.0462    1.2000    0.1352 C.3     1  UNL1        0.1403
      7 O           3.8763    0.6041    0.5302 O.3     1  UNL1       -0.4851
      8 C           2.5680    0.6447    0.2778 C.ar    1  UNL1        0.1211
      9 C           1.9787    1.5143   -0.6046 C.ar    1  UNL1       -0.0192
     10 C           0.5951    1.4990   -0.8288 C.ar    1  UNL1       -0.0462
     11 C          -0.2363    0.6063   -0.1679 C.ar    1  UNL1        0.0369
     12 C          -1.6670    0.6279   -0.4333 C.2     1  UNL1        0.2443
     13 O          -2.1891    1.4341   -1.2485 O.2     1  UNL1       -0.2702
     14 N          -2.5576   -0.2518    0.2052 N.am    1  UNL1       -0.3085
     15 C          -3.9792   -0.2695   -0.0232 C.3     1  UNL1        0.0234
     16 C          -4.6247    0.0943    1.2985 C.3     1  UNL1       -0.0345
     17 C          -5.9540   -0.5686    1.5033 C.3     1  UNL1       -0.0514
     18 C          -6.7687   -0.6917    0.2554 C.3     1  UNL1       -0.0529
     19 C          -5.9904   -1.3529   -0.8490 C.3     1  UNL1       -0.0514
     20 C          -4.5361   -1.5692   -0.4750 C.3     1  UNL1       -0.0345
     21 C           0.3828   -0.2456    0.7058 C.ar    1  UNL1       -0.0462
     22 C           1.7177   -0.2674    0.9540 C.ar    1  UNL1       -0.0192
     23 H           7.4771   -1.0206    1.1355 H       1  UNL1        0.1185
     24 H           8.3860    0.4321    1.0167 H       1  UNL1        0.1185
     25 H           7.6677   -1.3383   -1.0177 H       1  UNL1        0.0466
     26 H           8.5781    0.1503   -1.1812 H       1  UNL1        0.0466
     27 H           6.6393    0.1169   -2.7010 H       1  UNL1        0.0611
     28 H           4.8918    2.3471    0.2205 H       1  UNL1        0.0771
     29 H           5.8195    0.9391    0.8784 H       1  UNL1        0.0771
     30 H           2.5680    2.2661   -1.1355 H       1  UNL1        0.0654
     31 H           0.1385    2.1856   -1.5255 H       1  UNL1        0.0626
     32 H          -2.2151   -0.9545    0.8964 H       1  UNL1        0.1493
     33 H          -4.2231    0.5030   -0.7597 H       1  UNL1        0.0498
     34 H          -4.6824    1.2059    1.3570 H       1  UNL1        0.0283
     35 H          -3.9671   -0.2199    2.1474 H       1  UNL1        0.0283
     36 H          -5.8725   -1.5401    2.0302 H       1  UNL1        0.0266
     37 H          -6.5354    0.0939    2.2103 H       1  UNL1        0.0266
     38 H          -7.6367   -1.3542    0.4909 H       1  UNL1        0.0265
     39 H          -7.1851    0.2953   -0.0271 H       1  UNL1        0.0265
     40 H          -5.9795   -0.6681   -1.7313 H       1  UNL1        0.0266
     41 H          -6.4547   -2.3004   -1.2017 H       1  UNL1        0.0266
     42 H          -4.4966   -2.3514    0.3007 H       1  UNL1        0.0283
     43 H          -4.0727   -1.9884   -1.3814 H       1  UNL1        0.0283
     44 H          -0.2585   -0.9587    1.2384 H       1  UNL1        0.0626
     45 H           2.1873   -0.9485    1.6482 H       1  UNL1        0.0654
@<TRIPOS>BOND
     1     1     2    1
     2     2     3    1
     3     3     4    2
     4     4     5    1
     5     4     6    1
     6     6     7    1
     7     7     8    1
     8     8     9   ar
     9     9    10   ar
    10    10    11   ar
    11    11    12    1
    12    12    13    2
    13    12    14   am
    14    14    15    1
    15    15    16    1
    16    16    17    1
    17    17    18    1
    18    18    19    1
    19    19    20    1
    20    11    21   ar
    21    21    22   ar
    22    22     8   ar
    23    20    15    1
    24     1    23    1
    25     1    24    1
    26     2    25    1
    27     2    26    1
    28     3    27    1
    29     6    28    1
    30     6    29    1
    31     9    30    1
    32    10    31    1
    33    14    32    1
    34    15    33    1
    35    16    34    1
    36    16    35    1
    37    17    36    1
    38    17    37    1
    39    18    38    1
    40    18    39    1
    41    19    40    1
    42    19    41    1
    43    20    42    1
    44    20    43    1
    45    21    44    1
    46    22    45    1
