
     RDKit          3D

 45 46  0  0  0  0  0  0  0  0999 V2000
    7.5752   -0.1126    0.6316 N   0  0  0  0  0  0  0  0  0  0  0  0
    7.5680   -0.2149   -0.7676 C   0  0  0  0  0  0  0  0  0  0  0  0
    6.5040    0.2783   -1.5840 C   0  0  0  0  0  0  0  0  0  0  0  0
    5.3955    0.8870   -1.2624 C   0  0  0  0  0  0  0  0  0  0  0  0
    4.5215    1.2616   -2.2950 F   0  0  0  0  0  0  0  0  0  0  0  0
    5.0462    1.2000    0.1352 C   0  0  0  0  0  0  0  0  0  0  0  0
    3.8763    0.6041    0.5302 O   0  0  0  0  0  0  0  0  0  0  0  0
    2.5680    0.6447    0.2778 C   0  0  0  0  0  0  0  0  0  0  0  0
    1.9787    1.5143   -0.6046 C   0  0  0  0  0  0  0  0  0  0  0  0
    0.5951    1.4990   -0.8288 C   0  0  0  0  0  0  0  0  0  0  0  0
   -0.2363    0.6063   -0.1679 C   0  0  0  0  0  0  0  0  0  0  0  0
   -1.6670    0.6279   -0.4333 C   0  0  0  0  0  0  0  0  0  0  0  0
   -2.1891    1.4341   -1.2485 O   0  0  0  0  0  0  0  0  0  0  0  0
   -2.5576   -0.2518    0.2052 N   0  0  0  0  0  0  0  0  0  0  0  0
   -3.9792   -0.2695   -0.0232 C   0  0  0  0  0  0  0  0  0  0  0  0
   -4.6247    0.0943    1.2985 C   0  0  0  0  0  0  0  0  0  0  0  0
   -5.9540   -0.5686    1.5033 C   0  0  0  0  0  0  0  0  0  0  0  0
   -6.7687   -0.6917    0.2554 C   0  0  0  0  0  0  0  0  0  0  0  0
   -5.9904   -1.3529   -0.8490 C   0  0  0  0  0  0  0  0  0  0  0  0
   -4.5361   -1.5692   -0.4750 C   0  0  0  0  0  0  0  0  0  0  0  0
    0.3828   -0.2456    0.7058 C   0  0  0  0  0  0  0  0  0  0  0  0
    1.7177   -0.2674    0.9540 C   0  0  0  0  0  0  0  0  0  0  0  0
    7.4771   -1.0206    1.1355 H   0  0  0  0  0  0  0  0  0  0  0  0
    8.3860    0.4321    1.0167 H   0  0  0  0  0  0  0  0  0  0  0  0
    7.6677   -1.3383   -1.0177 H   0  0  0  0  0  0  0  0  0  0  0  0
    8.5781    0.1503   -1.1812 H   0  0  0  0  0  0  0  0  0  0  0  0
    6.6393    0.1169   -2.7010 H   0  0  0  0  0  0  0  0  0  0  0  0
    4.8918    2.3471    0.2205 H   0  0  0  0  0  0  0  0  0  0  0  0
    5.8195    0.9391    0.8784 H   0  0  0  0  0  0  0  0  0  0  0  0
    2.5680    2.2661   -1.1355 H   0  0  0  0  0  0  0  0  0  0  0  0
    0.1385    2.1856   -1.5255 H   0  0  0  0  0  0  0  0  0  0  0  0
   -2.2151   -0.9545    0.8964 H   0  0  0  0  0  0  0  0  0  0  0  0
   -4.2231    0.5030   -0.7597 H   0  0  0  0  0  0  0  0  0  0  0  0
   -4.6824    1.2059    1.3570 H   0  0  0  0  0  0  0  0  0  0  0  0
   -3.9671   -0.2199    2.1474 H   0  0  0  0  0  0  0  0  0  0  0  0
   -5.8725   -1.5401    2.0302 H   0  0  0  0  0  0  0  0  0  0  0  0
   -6.5354    0.0939    2.2103 H   0  0  0  0  0  0  0  0  0  0  0  0
   -7.6367   -1.3542    0.4909 H   0  0  0  0  0  0  0  0  0  0  0  0
   -7.1851    0.2953   -0.0271 H   0  0  0  0  0  0  0  0  0  0  0  0
   -5.9795   -0.6681   -1.7313 H   0  0  0  0  0  0  0  0  0  0  0  0
   -6.4547   -2.3004   -1.2017 H   0  0  0  0  0  0  0  0  0  0  0  0
   -4.4966   -2.3514    0.3007 H   0  0  0  0  0  0  0  0  0  0  0  0
   -4.0727   -1.9884   -1.3814 H   0  0  0  0  0  0  0  0  0  0  0  0
   -0.2585   -0.9587    1.2384 H   0  0  0  0  0  0  0  0  0  0  0  0
    2.1873   -0.9485    1.6482 H   0  0  0  0  0  0  0  0  0  0  0  0
  1  2  1  0
  2  3  1  0
  3  4  2  0
  4  5  1  0
  4  6  1  0
  6  7  1  0
  7  8  1  0
  8  9  2  0
  9 10  1  0
 10 11  2  0
 11 12  1  0
 12 13  2  0
 12 14  1  0
 14 15  1  0
 15 16  1  0
 16 17  1  0
 17 18  1  0
 18 19  1  0
 19 20  1  0
 11 21  1  0
 21 22  2  0
 22  8  1  0
 20 15  1  0
  1 23  1  0
  1 24  1  0
  2 25  1  0
  2 26  1  0
  3 27  1  0
  6 28  1  0
  6 29  1  0
  9 30  1  0
 10 31  1  0
 14 32  1  0
 15 33  1  0
 16 34  1  0
 16 35  1  0
 17 36  1  0
 17 37  1  0
 18 38  1  0
 18 39  1  0
 19 40  1  0
 19 41  1  0
 20 42  1  0
 20 43  1  0
 21 44  1  0
 22 45  1  0
M  END
$$$$
