@<TRIPOS>MOLECULE
*****
 55 58 0 0 0
SMALL
GASTEIGER

@<TRIPOS>ATOM
      1 C           6.3005    0.7885   -1.2023 C.3     1  UNL1        0.0790
      2 O           5.1577    1.4941   -0.7896 O.3     1  UNL1       -0.4915
      3 C           3.9728    0.8761   -0.4201 C.ar    1  UNL1        0.1615
      4 C           3.9133   -0.4901   -0.4590 C.ar    1  UNL1       -0.0160
      5 C           2.7014   -1.0542   -0.0785 C.ar    1  UNL1       -0.0546
      6 C           1.6201   -0.2992    0.3151 C.ar    1  UNL1       -0.0385
      7 C           0.4032   -1.0315    0.7138 C.3     1  UNL1        0.0067
      8 C          -0.2162   -1.8780   -0.3537 C.3     1  UNL1        0.0178
      9 C          -0.0645   -3.3832   -0.0497 C.3     1  UNL1       -0.0353
     10 C          -1.1177   -3.5731    1.0464 C.3     1  UNL1       -0.0359
     11 C          -1.9491   -2.2825    1.0363 C.3     1  UNL1        0.0110
     12 C          -1.5184   -1.3410    2.0907 C.3     1  UNL1       -0.0299
     13 C          -0.6298   -0.2534    1.4343 C.3     1  UNL1       -0.0062
     14 C          -1.5046    0.6128    0.6523 C.ar    1  UNL1       -0.0436
     15 C          -1.4206    0.9002   -0.6877 C.ar    1  UNL1       -0.0580
     16 C          -2.3508    1.7344   -1.3063 C.ar    1  UNL1       -0.0586
     17 C          -3.3852    2.2991   -0.5930 C.ar    1  UNL1       -0.0504
     18 C          -4.4050    3.1905   -1.1818 C.3     1  UNL1       -0.0397
     19 C          -3.4875    2.0214    0.7654 C.ar    1  UNL1       -0.0586
     20 C          -2.5676    1.1981    1.3689 C.ar    1  UNL1       -0.0580
     21 N          -1.6863   -1.8156   -0.3091 N.3     1  UNL1       -0.2989
     22 C          -2.2470   -2.6874   -1.2902 C.3     1  UNL1       -0.0122
     23 C           1.7440    1.0624    0.3329 C.ar    1  UNL1       -0.0128
     24 C           2.9207    1.6685   -0.0343 C.ar    1  UNL1        0.1617
     25 O           3.0571    3.0744   -0.0195 O.3     1  UNL1       -0.4914
     26 C           1.9248    3.8113    0.3904 C.3     1  UNL1        0.0790
     27 H           6.0782   -0.0466   -1.9009 H       1  UNL1        0.0660
     28 H           6.9954    1.4601   -1.7726 H       1  UNL1        0.0660
     29 H           6.8922    0.3689   -0.3673 H       1  UNL1        0.0660
     30 H           4.7541   -1.0991   -0.7657 H       1  UNL1        0.0655
     31 H           2.6863   -2.1461   -0.1204 H       1  UNL1        0.0622
     32 H           0.7908   -1.7955    1.4801 H       1  UNL1        0.0370
     33 H           0.1921   -1.7557   -1.3566 H       1  UNL1        0.0469
     34 H          -0.3314   -3.9586   -0.9400 H       1  UNL1        0.0281
     35 H           0.9089   -3.6155    0.3932 H       1  UNL1        0.0281
     36 H          -0.6381   -3.6527    2.0431 H       1  UNL1        0.0281
     37 H          -1.7291   -4.4585    0.8424 H       1  UNL1        0.0281
     38 H          -3.0012   -2.6358    1.1495 H       1  UNL1        0.0463
     39 H          -2.2793   -0.9355    2.7382 H       1  UNL1        0.0286
     40 H          -0.7906   -1.8851    2.7638 H       1  UNL1        0.0286
     41 H          -0.2278    0.2728    2.3508 H       1  UNL1        0.0356
     42 H          -0.6033    0.4759   -1.2475 H       1  UNL1        0.0620
     43 H          -2.2729    1.9510   -2.3598 H       1  UNL1        0.0620
     44 H          -5.4207    2.8178   -0.8682 H       1  UNL1        0.0278
     45 H          -4.4012    3.2192   -2.2730 H       1  UNL1        0.0278
     46 H          -4.3209    4.2120   -0.7149 H       1  UNL1        0.0278
     47 H          -4.3035    2.4591    1.3597 H       1  UNL1        0.0620
     48 H          -2.6989    1.0225    2.4220 H       1  UNL1        0.0620
     49 H          -1.5482   -2.7726   -2.1418 H       1  UNL1        0.0391
     50 H          -3.1726   -2.1995   -1.7001 H       1  UNL1        0.0391
     51 H          -2.5333   -3.6727   -0.8696 H       1  UNL1        0.0391
     52 H           0.9246    1.6929    0.6473 H       1  UNL1        0.0658
     53 H           1.6692    3.4632    1.4088 H       1  UNL1        0.0660
     54 H           2.1405    4.8955    0.4003 H       1  UNL1        0.0660
     55 H           1.0756    3.6757   -0.3258 H       1  UNL1        0.0660
@<TRIPOS>BOND
     1     1     2    1
     2     2     3    1
     3     3     4   ar
     4     4     5   ar
     5     5     6   ar
     6     6     7    1
     7     7     8    1
     8     8     9    1
     9     9    10    1
    10    10    11    1
    11    11    12    1
    12    12    13    1
    13    13    14    1
    14    14    15   ar
    15    15    16   ar
    16    16    17   ar
    17    17    18    1
    18    17    19   ar
    19    19    20   ar
    20    11    21    1
    21    21    22    1
    22     6    23   ar
    23    23    24   ar
    24    24    25    1
    25    25    26    1
    26    24     3   ar
    27    13     7    1
    28    20    14   ar
    29    21     8    1
    30     1    27    1
    31     1    28    1
    32     1    29    1
    33     4    30    1
    34     5    31    1
    35     7    32    1
    36     8    33    1
    37     9    34    1
    38     9    35    1
    39    10    36    1
    40    10    37    1
    41    11    38    1
    42    12    39    1
    43    12    40    1
    44    13    41    1
    45    15    42    1
    46    16    43    1
    47    18    44    1
    48    18    45    1
    49    18    46    1
    50    19    47    1
    51    20    48    1
    52    22    49    1
    53    22    50    1
    54    22    51    1
    55    23    52    1
    56    26    53    1
    57    26    54    1
    58    26    55    1
