
     RDKit          3D

 55 58  0  0  0  0  0  0  0  0999 V2000
    6.3005    0.7885   -1.2023 C   0  0  0  0  0  0  0  0  0  0  0  0
    5.1577    1.4941   -0.7896 O   0  0  0  0  0  0  0  0  0  0  0  0
    3.9728    0.8761   -0.4201 C   0  0  0  0  0  0  0  0  0  0  0  0
    3.9133   -0.4901   -0.4590 C   0  0  0  0  0  0  0  0  0  0  0  0
    2.7014   -1.0542   -0.0785 C   0  0  0  0  0  0  0  0  0  0  0  0
    1.6201   -0.2992    0.3151 C   0  0  0  0  0  0  0  0  0  0  0  0
    0.4032   -1.0315    0.7138 C   0  0  2  0  0  0  0  0  0  0  0  0
   -0.2162   -1.8780   -0.3537 C   0  0  0  0  0  0  0  0  0  0  0  0
   -0.0645   -3.3832   -0.0497 C   0  0  0  0  0  0  0  0  0  0  0  0
   -1.1177   -3.5731    1.0464 C   0  0  0  0  0  0  0  0  0  0  0  0
   -1.9491   -2.2825    1.0363 C   0  0  0  0  0  0  0  0  0  0  0  0
   -1.5184   -1.3410    2.0907 C   0  0  0  0  0  0  0  0  0  0  0  0
   -0.6298   -0.2534    1.4343 C   0  0  2  0  0  0  0  0  0  0  0  0
   -1.5046    0.6128    0.6523 C   0  0  0  0  0  0  0  0  0  0  0  0
   -1.4206    0.9002   -0.6877 C   0  0  0  0  0  0  0  0  0  0  0  0
   -2.3508    1.7344   -1.3063 C   0  0  0  0  0  0  0  0  0  0  0  0
   -3.3852    2.2991   -0.5930 C   0  0  0  0  0  0  0  0  0  0  0  0
   -4.4050    3.1905   -1.1818 C   0  0  0  0  0  0  0  0  0  0  0  0
   -3.4875    2.0214    0.7654 C   0  0  0  0  0  0  0  0  0  0  0  0
   -2.5676    1.1981    1.3689 C   0  0  0  0  0  0  0  0  0  0  0  0
   -1.6863   -1.8156   -0.3091 N   0  0  0  0  0  0  0  0  0  0  0  0
   -2.2470   -2.6874   -1.2902 C   0  0  0  0  0  0  0  0  0  0  0  0
    1.7440    1.0624    0.3329 C   0  0  0  0  0  0  0  0  0  0  0  0
    2.9207    1.6685   -0.0343 C   0  0  0  0  0  0  0  0  0  0  0  0
    3.0571    3.0744   -0.0195 O   0  0  0  0  0  0  0  0  0  0  0  0
    1.9248    3.8113    0.3904 C   0  0  0  0  0  0  0  0  0  0  0  0
    6.0782   -0.0466   -1.9009 H   0  0  0  0  0  0  0  0  0  0  0  0
    6.9954    1.4601   -1.7726 H   0  0  0  0  0  0  0  0  0  0  0  0
    6.8922    0.3689   -0.3673 H   0  0  0  0  0  0  0  0  0  0  0  0
    4.7541   -1.0991   -0.7657 H   0  0  0  0  0  0  0  0  0  0  0  0
    2.6863   -2.1461   -0.1204 H   0  0  0  0  0  0  0  0  0  0  0  0
    0.7908   -1.7955    1.4801 H   0  0  0  0  0  0  0  0  0  0  0  0
    0.1921   -1.7557   -1.3566 H   0  0  0  0  0  0  0  0  0  0  0  0
   -0.3314   -3.9586   -0.9400 H   0  0  0  0  0  0  0  0  0  0  0  0
    0.9089   -3.6155    0.3932 H   0  0  0  0  0  0  0  0  0  0  0  0
   -0.6381   -3.6527    2.0431 H   0  0  0  0  0  0  0  0  0  0  0  0
   -1.7291   -4.4585    0.8424 H   0  0  0  0  0  0  0  0  0  0  0  0
   -3.0012   -2.6358    1.1495 H   0  0  0  0  0  0  0  0  0  0  0  0
   -2.2793   -0.9355    2.7382 H   0  0  0  0  0  0  0  0  0  0  0  0
   -0.7906   -1.8851    2.7638 H   0  0  0  0  0  0  0  0  0  0  0  0
   -0.2278    0.2728    2.3508 H   0  0  0  0  0  0  0  0  0  0  0  0
   -0.6033    0.4759   -1.2475 H   0  0  0  0  0  0  0  0  0  0  0  0
   -2.2729    1.9510   -2.3598 H   0  0  0  0  0  0  0  0  0  0  0  0
   -5.4207    2.8178   -0.8682 H   0  0  0  0  0  0  0  0  0  0  0  0
   -4.4012    3.2192   -2.2730 H   0  0  0  0  0  0  0  0  0  0  0  0
   -4.3209    4.2120   -0.7149 H   0  0  0  0  0  0  0  0  0  0  0  0
   -4.3035    2.4591    1.3597 H   0  0  0  0  0  0  0  0  0  0  0  0
   -2.6989    1.0225    2.4220 H   0  0  0  0  0  0  0  0  0  0  0  0
   -1.5482   -2.7726   -2.1418 H   0  0  0  0  0  0  0  0  0  0  0  0
   -3.1726   -2.1995   -1.7001 H   0  0  0  0  0  0  0  0  0  0  0  0
   -2.5333   -3.6727   -0.8696 H   0  0  0  0  0  0  0  0  0  0  0  0
    0.9246    1.6929    0.6473 H   0  0  0  0  0  0  0  0  0  0  0  0
    1.6692    3.4632    1.4088 H   0  0  0  0  0  0  0  0  0  0  0  0
    2.1405    4.8955    0.4003 H   0  0  0  0  0  0  0  0  0  0  0  0
    1.0756    3.6757   -0.3258 H   0  0  0  0  0  0  0  0  0  0  0  0
  1  2  1  0
  2  3  1  0
  3  4  2  0
  4  5  1  0
  5  6  2  0
  6  7  1  0
  7  8  1  0
  8  9  1  0
  9 10  1  0
 10 11  1  0
 11 12  1  0
 12 13  1  0
 13 14  1  0
 14 15  2  0
 15 16  1  0
 16 17  2  0
 17 18  1  0
 17 19  1  0
 19 20  2  0
 11 21  1  0
 21 22  1  0
  6 23  1  0
 23 24  2  0
 24 25  1  0
 25 26  1  0
 24  3  1  0
 13  7  1  0
 20 14  1  0
 21  8  1  0
  1 27  1  0
  1 28  1  0
  1 29  1  0
  4 30  1  0
  5 31  1  0
  7 32  1  1
  8 33  1  0
  9 34  1  0
  9 35  1  0
 10 36  1  0
 10 37  1  0
 11 38  1  0
 12 39  1  0
 12 40  1  0
 13 41  1  1
 15 42  1  0
 16 43  1  0
 18 44  1  0
 18 45  1  0
 18 46  1  0
 19 47  1  0
 20 48  1  0
 22 49  1  0
 22 50  1  0
 22 51  1  0
 23 52  1  0
 26 53  1  0
 26 54  1  0
 26 55  1  0
M  END
$$$$
