
     RDKit          3D

 67 71  0  0  0  0  0  0  0  0999 V2000
    0.1432    0.3532    2.3264 C   0  0  0  0  0  0  0  0  0  0  0  0
   -0.3347   -0.8807    1.6251 C   0  0  0  0  0  0  0  0  0  0  0  0
    0.3178   -2.1771    1.9638 C   0  0  0  0  0  0  0  0  0  0  0  0
   -0.7451   -0.7013    0.2132 C   0  0  0  0  0  0  0  0  0  0  0  0
   -2.0449   -0.6306   -0.2549 C   0  0  0  0  0  0  0  0  0  0  0  0
   -3.2973   -0.7186    0.5038 C   0  0  0  0  0  0  0  0  0  0  0  0
   -3.5202   -0.8743    1.7932 N   0  0  0  0  0  0  0  0  0  0  0  0
   -4.8109   -0.9031    2.0552 N   0  0  0  0  0  0  0  0  0  0  0  0
   -5.4461   -0.7563    0.8589 C   0  0  0  0  0  0  0  0  0  0  0  0
   -6.8544   -0.7292    0.6620 N   0  0  0  0  0  0  0  0  0  0  0  0
   -7.3756   -0.5662   -0.6636 C   0  0  0  0  0  0  0  0  0  0  0  0
   -8.8720   -0.5926   -0.6986 C   0  0  0  0  0  0  0  0  0  0  0  0
   -9.4410    0.5170    0.1471 C   0  0  0  0  0  0  0  0  0  0  0  0
   -8.9594    1.8496   -0.3941 C   0  0  0  0  0  0  0  0  0  0  0  0
   -9.5393    2.9139    0.4442 N   0  0  0  0  0  0  0  0  0  0  0  0
   -4.5154   -0.6502   -0.0323 O   0  0  0  0  0  0  0  0  0  0  0  0
   -1.9547   -0.4641   -1.6163 C   0  0  0  0  0  0  0  0  0  0  0  0
   -0.6718   -0.4269   -2.0173 N   0  0  0  0  0  0  0  0  0  0  0  0
   -0.1662   -0.2852   -3.2526 N   0  0  0  0  0  0  0  0  0  0  0  0
    1.1644   -0.2863   -3.3845 C   0  0  0  0  0  0  0  0  0  0  0  0
    1.9987   -0.4182   -2.3684 N   0  0  0  0  0  0  0  0  0  0  0  0
    1.4522   -0.5617   -1.1101 C   0  0  0  0  0  0  0  0  0  0  0  0
    2.3322   -0.6932   -0.0217 N   0  0  0  0  0  0  0  0  0  0  0  0
    3.7348   -0.8331   -0.2818 C   0  0  0  0  0  0  0  0  0  0  0  0
    4.6928    0.0305    0.1594 C   0  0  0  0  0  0  0  0  0  0  0  0
    6.0611   -0.1245   -0.1054 C   0  0  0  0  0  0  0  0  0  0  0  0
    6.9861    0.8816    0.4154 C   0  0  0  0  0  0  0  0  0  0  0  0
    6.5745    1.7793    1.2125 O   0  0  0  0  0  0  0  0  0  0  0  0
    8.3454    0.9377    0.0912 N   0  0  0  0  0  0  0  0  0  0  0  0
    9.2500    1.9476    0.6250 C   0  0  0  0  0  0  0  0  0  0  0  0
   10.2024    2.5084   -0.4178 C   0  0  0  0  0  0  0  0  0  0  0  0
   10.6948    1.6690    0.7786 C   0  0  0  0  0  0  0  0  0  0  0  0
    6.4262   -1.2103   -0.8487 C   0  0  0  0  0  0  0  0  0  0  0  0
    7.7321   -1.4498   -1.1473 F   0  0  0  0  0  0  0  0  0  0  0  0
    5.4725   -2.1287   -1.3259 C   0  0  0  0  0  0  0  0  0  0  0  0
    4.1481   -1.9057   -1.0231 C   0  0  0  0  0  0  0  0  0  0  0  0
    3.2376   -2.7857   -1.4793 F   0  0  0  0  0  0  0  0  0  0  0  0
    0.0933   -0.5699   -0.9112 C   0  0  0  0  0  0  0  0  0  0  0  0
    0.6101    1.0764    1.5912 H   0  0  0  0  0  0  0  0  0  0  0  0
    0.8631    0.0978    3.1313 H   0  0  0  0  0  0  0  0  0  0  0  0
   -0.6487    0.9622    2.8085 H   0  0  0  0  0  0  0  0  0  0  0  0
   -1.3614   -1.0249    2.1657 H   0  0  0  0  0  0  0  0  0  0  0  0
    1.0881   -1.9665    2.7641 H   0  0  0  0  0  0  0  0  0  0  0  0
    0.7632   -2.7117    1.0972 H   0  0  0  0  0  0  0  0  0  0  0  0
   -0.3578   -2.9382    2.4408 H   0  0  0  0  0  0  0  0  0  0  0  0
   -7.4798   -0.8272    1.4681 H   0  0  0  0  0  0  0  0  0  0  0  0
   -6.9768    0.3657   -1.1374 H   0  0  0  0  0  0  0  0  0  0  0  0
   -6.9912   -1.3946   -1.3374 H   0  0  0  0  0  0  0  0  0  0  0  0
   -9.2259   -1.5723   -0.3111 H   0  0  0  0  0  0  0  0  0  0  0  0
   -9.2318   -0.5016   -1.7457 H   0  0  0  0  0  0  0  0  0  0  0  0
  -10.5539    0.5029    0.1464 H   0  0  0  0  0  0  0  0  0  0  0  0
   -9.0410    0.4370    1.1693 H   0  0  0  0  0  0  0  0  0  0  0  0
   -7.8696    1.9122   -0.2240 H   0  0  0  0  0  0  0  0  0  0  0  0
   -9.2455    2.0197   -1.4399 H   0  0  0  0  0  0  0  0  0  0  0  0
   -8.9783    3.7713    0.3740 H   0  0  0  0  0  0  0  0  0  0  0  0
   -9.5262    2.5907    1.4499 H   0  0  0  0  0  0  0  0  0  0  0  0
   -2.8029   -0.3745   -2.2718 H   0  0  0  0  0  0  0  0  0  0  0  0
    1.6074   -0.1714   -4.3915 H   0  0  0  0  0  0  0  0  0  0  0  0
    2.0888   -0.6793    0.9343 H   0  0  0  0  0  0  0  0  0  0  0  0
    4.4076    0.8766    0.7400 H   0  0  0  0  0  0  0  0  0  0  0  0
    8.7782    0.2598   -0.5569 H   0  0  0  0  0  0  0  0  0  0  0  0
    8.7746    2.6632    1.2952 H   0  0  0  0  0  0  0  0  0  0  0  0
   10.2363    2.0183   -1.4204 H   0  0  0  0  0  0  0  0  0  0  0  0
   10.3843    3.6014   -0.3904 H   0  0  0  0  0  0  0  0  0  0  0  0
   11.2473    2.2403    1.5283 H   0  0  0  0  0  0  0  0  0  0  0  0
   11.1241    0.6790    0.5214 H   0  0  0  0  0  0  0  0  0  0  0  0
    5.8067   -2.9765   -1.9133 H   0  0  0  0  0  0  0  0  0  0  0  0
  1  2  1  0
  2  3  1  0
  2  4  1  0
  4  5  1  0
  5  6  1  0
  6  7  2  0
  7  8  1  0
  8  9  2  0
  9 10  1  0
 10 11  1  0
 11 12  1  0
 12 13  1  0
 13 14  1  0
 14 15  1  0
  9 16  1  0
  5 17  2  0
 17 18  1  0
 18 19  1  0
 19 20  2  0
 20 21  1  0
 21 22  2  0
 22 23  1  0
 23 24  1  0
 24 25  2  0
 25 26  1  0
 26 27  1  0
 27 28  2  0
 27 29  1  0
 29 30  1  0
 30 31  1  0
 31 32  1  0
 26 33  2  0
 33 34  1  0
 33 35  1  0
 35 36  2  0
 36 37  1  0
 22 38  1  0
 38  4  2  0
 16  6  1  0
 38 18  1  0
 36 24  1  0
 32 30  1  0
  1 39  1  0
  1 40  1  0
  1 41  1  0
  2 42  1  0
  3 43  1  0
  3 44  1  0
  3 45  1  0
 10 46  1  0
 11 47  1  0
 11 48  1  0
 12 49  1  0
 12 50  1  0
 13 51  1  0
 13 52  1  0
 14 53  1  0
 14 54  1  0
 15 55  1  0
 15 56  1  0
 17 57  1  0
 20 58  1  0
 23 59  1  0
 25 60  1  0
 29 61  1  0
 30 62  1  0
 31 63  1  0
 31 64  1  0
 32 65  1  0
 32 66  1  0
 35 67  1  0
M  END
$$$$
