@<TRIPOS>MOLECULE
*****
 67 71 0 0 0
SMALL
GASTEIGER

@<TRIPOS>ATOM
      1 C           0.1432    0.3532    2.3264 C.3     1  UNL1       -0.0586
      2 C          -0.3347   -0.8807    1.6251 C.3     1  UNL1       -0.0186
      3 C           0.3178   -2.1771    1.9638 C.3     1  UNL1       -0.0586
      4 C          -0.7451   -0.7013    0.2132 C.ar    1  UNL1       -0.0023
      5 C          -2.0449   -0.6306   -0.2549 C.ar    1  UNL1        0.0621
      6 C          -3.2973   -0.7186    0.5038 C.ar    1  UNL1        0.2518
      7 N          -3.5202   -0.8743    1.7932 N.ar    1  UNL1       -0.1058
      8 N          -4.8109   -0.9031    2.0552 N.ar    1  UNL1       -0.0924
      9 C          -5.4461   -0.7563    0.8589 C.ar    1  UNL1        0.3081
     10 N          -6.8544   -0.7292    0.6620 N.pl3   1  UNL1       -0.2976
     11 C          -7.3756   -0.5662   -0.6636 C.3     1  UNL1        0.0133
     12 C          -8.8720   -0.5926   -0.6986 C.3     1  UNL1       -0.0362
     13 C          -9.4410    0.5170    0.1471 C.3     1  UNL1       -0.0392
     14 C          -8.9594    1.8496   -0.3941 C.3     1  UNL1       -0.0069
     15 N          -9.5393    2.9139    0.4442 N.3     1  UNL1       -0.3300
     16 O          -4.5154   -0.6502   -0.0323 O.2     1  UNL1       -0.4048
     17 C          -1.9547   -0.4641   -1.6163 C.ar    1  UNL1        0.0425
     18 N          -0.6718   -0.4269   -2.0173 N.ar    1  UNL1       -0.2341
     19 N          -0.1662   -0.2852   -3.2526 N.ar    1  UNL1       -0.1548
     20 C           1.1644   -0.2863   -3.3845 C.ar    1  UNL1        0.1388
     21 N           1.9987   -0.4182   -2.3684 N.ar    1  UNL1       -0.2167
     22 C           1.4522   -0.5617   -1.1101 C.ar    1  UNL1        0.1507
     23 N           2.3322   -0.6932   -0.0217 N.pl3   1  UNL1       -0.2954
     24 C           3.7348   -0.8331   -0.2818 C.ar    1  UNL1        0.0690
     25 C           4.6928    0.0305    0.1594 C.ar    1  UNL1       -0.0228
     26 C           6.0611   -0.1245   -0.1054 C.ar    1  UNL1        0.0737
     27 C           6.9861    0.8816    0.4154 C.2     1  UNL1        0.2471
     28 O           6.5745    1.7793    1.2125 O.2     1  UNL1       -0.2701
     29 N           8.3454    0.9377    0.0912 N.am    1  UNL1       -0.3084
     30 C           9.2500    1.9476    0.6250 C.3     1  UNL1        0.0235
     31 C          10.2024    2.5084   -0.4178 C.3     1  UNL1       -0.0328
     32 C          10.6948    1.6690    0.7786 C.3     1  UNL1       -0.0328
     33 C           6.4262   -1.2103   -0.8487 C.ar    1  UNL1        0.1383
     34 F           7.7321   -1.4498   -1.1473 F       1  UNL1       -0.2046
     35 C           5.4725   -2.1287   -1.3259 C.ar    1  UNL1        0.0114
     36 C           4.1481   -1.9057   -1.0231 C.ar    1  UNL1        0.1472
     37 F           3.2376   -2.7857   -1.4793 F       1  UNL1       -0.2035
     38 C           0.0933   -0.5699   -0.9112 C.ar    1  UNL1        0.1095
     39 H           0.6101    1.0764    1.5912 H       1  UNL1        0.0235
     40 H           0.8631    0.0978    3.1313 H       1  UNL1        0.0235
     41 H          -0.6487    0.9622    2.8085 H       1  UNL1        0.0235
     42 H          -1.3614   -1.0249    2.1657 H       1  UNL1        0.0344
     43 H           1.0881   -1.9665    2.7641 H       1  UNL1        0.0235
     44 H           0.7632   -2.7117    1.0972 H       1  UNL1        0.0235
     45 H          -0.3578   -2.9382    2.4408 H       1  UNL1        0.0235
     46 H          -7.4798   -0.8272    1.4681 H       1  UNL1        0.1504
     47 H          -6.9768    0.3657   -1.1374 H       1  UNL1        0.0462
     48 H          -6.9912   -1.3946   -1.3374 H       1  UNL1        0.0462
     49 H          -9.2259   -1.5723   -0.3111 H       1  UNL1        0.0281
     50 H          -9.2318   -0.5016   -1.7457 H       1  UNL1        0.0281
     51 H         -10.5539    0.5029    0.1464 H       1  UNL1        0.0278
     52 H          -9.0410    0.4370    1.1693 H       1  UNL1        0.0278
     53 H          -7.8696    1.9122   -0.2240 H       1  UNL1        0.0422
     54 H          -9.2455    2.0197   -1.4399 H       1  UNL1        0.0422
     55 H          -8.9783    3.7713    0.3740 H       1  UNL1        0.1182
     56 H          -9.5262    2.5907    1.4499 H       1  UNL1        0.1182
     57 H          -2.8029   -0.3745   -2.2718 H       1  UNL1        0.0838
     58 H           1.6074   -0.1714   -4.3915 H       1  UNL1        0.1066
     59 H           2.0888   -0.6793    0.9343 H       1  UNL1        0.1537
     60 H           4.4076    0.8766    0.7400 H       1  UNL1        0.0645
     61 H           8.7782    0.2598   -0.5569 H       1  UNL1        0.1493
     62 H           8.7746    2.6632    1.2952 H       1  UNL1        0.0498
     63 H          10.2363    2.0183   -1.4204 H       1  UNL1        0.0284
     64 H          10.3843    3.6014   -0.3904 H       1  UNL1        0.0284
     65 H          11.2473    2.2403    1.5283 H       1  UNL1        0.0284
     66 H          11.1241    0.6790    0.5214 H       1  UNL1        0.0284
     67 H           5.8067   -2.9765   -1.9133 H       1  UNL1        0.0676
@<TRIPOS>BOND
     1     1     2    1
     2     2     3    1
     3     2     4    1
     4     4     5   ar
     5     5     6    1
     6     6     7   ar
     7     7     8   ar
     8     8     9   ar
     9     9    10    1
    10    10    11    1
    11    11    12    1
    12    12    13    1
    13    13    14    1
    14    14    15    1
    15     9    16   ar
    16     5    17   ar
    17    17    18   ar
    18    18    19   ar
    19    19    20   ar
    20    20    21   ar
    21    21    22   ar
    22    22    23    1
    23    23    24    1
    24    24    25   ar
    25    25    26   ar
    26    26    27    1
    27    27    28    2
    28    27    29   am
    29    29    30    1
    30    30    31    1
    31    31    32    1
    32    26    33   ar
    33    33    34    1
    34    33    35   ar
    35    35    36   ar
    36    36    37    1
    37    22    38   ar
    38    38     4   ar
    39    16     6   ar
    40    38    18   ar
    41    36    24   ar
    42    32    30    1
    43     1    39    1
    44     1    40    1
    45     1    41    1
    46     2    42    1
    47     3    43    1
    48     3    44    1
    49     3    45    1
    50    10    46    1
    51    11    47    1
    52    11    48    1
    53    12    49    1
    54    12    50    1
    55    13    51    1
    56    13    52    1
    57    14    53    1
    58    14    54    1
    59    15    55    1
    60    15    56    1
    61    17    57    1
    62    20    58    1
    63    23    59    1
    64    25    60    1
    65    29    61    1
    66    30    62    1
    67    31    63    1
    68    31    64    1
    69    32    65    1
    70    32    66    1
    71    35    67    1
