
     RDKit          3D

 98101  0  0  0  0  0  0  0  0999 V2000
   -4.4445   -1.5765    0.9105 C   0  0  0  0  0  0  0  0  0  0  0  0
   -3.0074   -1.9393    0.7526 C   0  0  0  0  0  0  0  0  0  0  0  0
   -2.8191   -3.2662    0.0146 C   0  0  0  0  0  0  0  0  0  0  0  0
   -2.2211   -0.8565   -0.0503 C   0  0  2  0  0  0  0  0  0  0  0  0
   -2.8250   -0.7344   -1.3614 N   0  0  0  0  0  0  0  0  0  0  0  0
   -3.5762    0.4366   -1.5907 C   0  0  0  0  0  0  0  0  0  0  0  0
   -3.6291    1.2343   -0.6008 O   0  0  0  0  0  0  0  0  0  0  0  0
   -4.2801    0.8333   -2.7897 N   0  0  0  0  0  0  0  0  0  0  0  0
   -4.3600    0.1403   -4.0843 C   0  0  0  0  0  0  0  0  0  0  0  0
   -5.0507    2.0624   -2.7388 C   0  0  0  0  0  0  0  0  0  0  0  0
   -6.4797    1.7868   -2.4142 C   0  0  0  0  0  0  0  0  0  0  0  0
   -7.4758    1.6369   -3.4175 C   0  0  0  0  0  0  0  0  0  0  0  0
   -8.9792    1.2837   -2.3502 S   0  0  0  0  0  0  0  0  0  0  0  0
   -7.9812    1.4052   -0.7932 C   0  0  0  0  0  0  0  0  0  0  0  0
   -6.8952    1.6426   -1.1842 N   0  0  0  0  0  0  0  0  0  0  0  0
   -8.7058    1.1780    0.4867 C   0  0  0  0  0  0  0  0  0  0  0  0
   -8.2066   -0.1686    0.9958 C   0  0  0  0  0  0  0  0  0  0  0  0
   -8.5428    2.2664    1.4955 C   0  0  0  0  0  0  0  0  0  0  0  0
   -0.8954   -1.4906   -0.2479 C   0  0  0  0  0  0  0  0  0  0  0  0
   -0.5325   -1.9840   -1.3166 O   0  0  0  0  0  0  0  0  0  0  0  0
    0.1384   -1.6485    0.6706 N   0  0  0  0  0  0  0  0  0  0  0  0
    1.3645   -2.0197    1.2322 C   0  0  2  0  0  0  0  0  0  0  0  0
    1.8678   -1.1191    2.3042 C   0  0  0  0  0  0  0  0  0  0  0  0
    2.0934    0.3062    1.9796 C   0  0  2  0  0  0  0  0  0  0  0  0
    0.8627    0.8206    1.5348 O   0  0  0  0  0  0  0  0  0  0  0  0
    3.1960    0.6816    1.0548 C   0  0  2  0  0  0  0  0  0  0  0  0
    4.5707    0.1864    1.4872 C   0  0  0  0  0  0  0  0  0  0  0  0
    5.5577    0.5176    0.4601 C   0  0  0  0  0  0  0  0  0  0  0  0
    6.4444    1.4875    0.1101 C   0  0  0  0  0  0  0  0  0  0  0  0
    7.2942    1.5806   -0.9549 C   0  0  0  0  0  0  0  0  0  0  0  0
    7.2927    0.5401   -1.8585 C   0  0  0  0  0  0  0  0  0  0  0  0
    6.4433   -0.5181   -1.6323 C   0  0  0  0  0  0  0  0  0  0  0  0
    5.6234   -0.5077   -0.5188 C   0  0  0  0  0  0  0  0  0  0  0  0
    3.2311    2.1657    0.9788 N   0  0  0  0  0  0  0  0  0  0  0  0
    3.9277    3.1251    1.6958 C   0  0  0  0  0  0  0  0  0  0  0  0
    4.7418    2.9311    2.6527 O   0  0  0  0  0  0  0  0  0  0  0  0
    3.8908    4.4785    1.5308 O   0  0  0  0  0  0  0  0  0  0  0  0
    4.6558    5.3519    2.3226 C   0  0  0  0  0  0  0  0  0  0  0  0
    6.0993    5.1547    2.2039 C   0  0  0  0  0  0  0  0  0  0  0  0
    6.8409    5.8357    1.2908 C   0  0  0  0  0  0  0  0  0  0  0  0
    8.1665    5.7172    1.1199 N   0  0  0  0  0  0  0  0  0  0  0  0
    8.7567    4.8740    1.9092 C   0  0  0  0  0  0  0  0  0  0  0  0
    7.3347    4.1994    2.9712 S   0  0  0  0  0  0  0  0  0  0  0  0
    2.4536   -2.5709    0.3467 C   0  0  0  0  0  0  0  0  0  0  0  0
    2.1207   -3.8545   -0.3342 C   0  0  0  0  0  0  0  0  0  0  0  0
    1.7027   -4.1909   -1.5930 C   0  0  0  0  0  0  0  0  0  0  0  0
    1.4426   -5.4859   -1.9580 C   0  0  0  0  0  0  0  0  0  0  0  0
    1.5787   -6.5417   -1.0992 C   0  0  0  0  0  0  0  0  0  0  0  0
    1.9964   -6.2669    0.1818 C   0  0  0  0  0  0  0  0  0  0  0  0
    2.2555   -4.9520    0.5356 C   0  0  0  0  0  0  0  0  0  0  0  0
   -4.9447   -2.1876    1.7181 H   0  0  0  0  0  0  0  0  0  0  0  0
   -5.0035   -1.8511   -0.0121 H   0  0  0  0  0  0  0  0  0  0  0  0
   -4.5825   -0.5347    1.2300 H   0  0  0  0  0  0  0  0  0  0  0  0
   -2.5523   -2.0603    1.7518 H   0  0  0  0  0  0  0  0  0  0  0  0
   -2.7873   -3.0956   -1.0928 H   0  0  0  0  0  0  0  0  0  0  0  0
   -1.8433   -3.7236    0.2830 H   0  0  0  0  0  0  0  0  0  0  0  0
   -3.5882   -3.9977    0.2882 H   0  0  0  0  0  0  0  0  0  0  0  0
   -2.2404    0.0412    0.5527 H   0  0  0  0  0  0  0  0  0  0  0  0
   -2.7859   -1.3875   -2.1639 H   0  0  0  0  0  0  0  0  0  0  0  0
   -5.3782   -0.2490   -4.1648 H   0  0  0  0  0  0  0  0  0  0  0  0
   -3.6882   -0.7395   -4.0865 H   0  0  0  0  0  0  0  0  0  0  0  0
   -4.0382    0.7725   -4.9227 H   0  0  0  0  0  0  0  0  0  0  0  0
   -4.5668    2.7213   -1.9965 H   0  0  0  0  0  0  0  0  0  0  0  0
   -4.9472    2.5766   -3.7109 H   0  0  0  0  0  0  0  0  0  0  0  0
   -7.1987    1.7474   -4.5343 H   0  0  0  0  0  0  0  0  0  0  0  0
   -9.7854    1.0212    0.2683 H   0  0  0  0  0  0  0  0  0  0  0  0
   -9.0105   -0.6326    1.5999 H   0  0  0  0  0  0  0  0  0  0  0  0
   -7.2530   -0.0261    1.5276 H   0  0  0  0  0  0  0  0  0  0  0  0
   -8.0516   -0.8125    0.1027 H   0  0  0  0  0  0  0  0  0  0  0  0
   -7.7816    1.9882    2.2645 H   0  0  0  0  0  0  0  0  0  0  0  0
   -9.5414    2.4066    1.9929 H   0  0  0  0  0  0  0  0  0  0  0  0
   -8.2534    3.1985    0.9732 H   0  0  0  0  0  0  0  0  0  0  0  0
   -0.2966   -1.1878    1.5534 H   0  0  0  0  0  0  0  0  0  0  0  0
    1.1494   -3.0298    1.8456 H   0  0  0  0  0  0  0  0  0  0  0  0
    2.8877   -1.5466    2.5729 H   0  0  0  0  0  0  0  0  0  0  0  0
    1.2738   -1.2487    3.2479 H   0  0  0  0  0  0  0  0  0  0  0  0
    2.2702    0.8212    2.9911 H   0  0  0  0  0  0  0  0  0  0  0  0
    0.6752    1.7187    1.9406 H   0  0  0  0  0  0  0  0  0  0  0  0
    3.0677    0.3567    0.0430 H   0  0  0  0  0  0  0  0  0  0  0  0
    4.5237   -0.8807    1.6499 H   0  0  0  0  0  0  0  0  0  0  0  0
    4.8351    0.6236    2.4888 H   0  0  0  0  0  0  0  0  0  0  0  0
    6.4737    2.3022    0.8139 H   0  0  0  0  0  0  0  0  0  0  0  0
    7.9191    2.4509   -1.0398 H   0  0  0  0  0  0  0  0  0  0  0  0
    7.9451    0.5681   -2.7146 H   0  0  0  0  0  0  0  0  0  0  0  0
    6.4774   -1.3080   -2.3688 H   0  0  0  0  0  0  0  0  0  0  0  0
    5.0340   -1.4269   -0.4921 H   0  0  0  0  0  0  0  0  0  0  0  0
    2.6197    2.6282    0.2472 H   0  0  0  0  0  0  0  0  0  0  0  0
    4.3782    6.3978    2.0968 H   0  0  0  0  0  0  0  0  0  0  0  0
    4.4253    5.2343    3.4110 H   0  0  0  0  0  0  0  0  0  0  0  0
    6.4914    6.5821    0.5541 H   0  0  0  0  0  0  0  0  0  0  0  0
    9.7525    4.5001    2.0947 H   0  0  0  0  0  0  0  0  0  0  0  0
    2.7615   -1.8176   -0.4326 H   0  0  0  0  0  0  0  0  0  0  0  0
    3.3410   -2.7484    0.9656 H   0  0  0  0  0  0  0  0  0  0  0  0
    1.6317   -3.3051   -2.2085 H   0  0  0  0  0  0  0  0  0  0  0  0
    1.1187   -5.5324   -3.0098 H   0  0  0  0  0  0  0  0  0  0  0  0
    1.3470   -7.5227   -1.4961 H   0  0  0  0  0  0  0  0  0  0  0  0
    2.1059   -7.0993    0.8618 H   0  0  0  0  0  0  0  0  0  0  0  0
    2.5768   -4.8737    1.5789 H   0  0  0  0  0  0  0  0  0  0  0  0
  1  2  1  0
  2  3  1  0
  2  4  1  0
  4  5  1  0
  5  6  1  0
  6  7  2  0
  6  8  1  0
  8  9  1  0
  8 10  1  0
 10 11  1  0
 11 12  2  0
 12 13  1  0
 13 14  1  0
 14 15  2  0
 14 16  1  0
 16 17  1  0
 16 18  1  0
  4 19  1  0
 19 20  2  0
 19 21  1  0
 21 22  1  0
 22 23  1  0
 23 24  1  0
 24 25  1  0
 24 26  1  0
 26 27  1  0
 27 28  1  0
 28 29  2  0
 29 30  1  0
 30 31  2  0
 31 32  1  0
 32 33  2  0
 26 34  1  0
 34 35  1  0
 35 36  2  0
 35 37  1  0
 37 38  1  0
 38 39  1  0
 39 40  2  0
 40 41  1  0
 41 42  2  0
 42 43  1  0
 22 44  1  0
 44 45  1  0
 45 46  2  0
 46 47  1  0
 47 48  2  0
 48 49  1  0
 49 50  2  0
 15 11  1  0
 33 28  1  0
 43 39  1  0
 50 45  1  0
  1 51  1  0
  1 52  1  0
  1 53  1  0
  2 54  1  0
  3 55  1  0
  3 56  1  0
  3 57  1  0
  4 58  1  1
  5 59  1  0
  9 60  1  0
  9 61  1  0
  9 62  1  0
 10 63  1  0
 10 64  1  0
 12 65  1  0
 16 66  1  0
 17 67  1  0
 17 68  1  0
 17 69  1  0
 18 70  1  0
 18 71  1  0
 18 72  1  0
 21 73  1  0
 22 74  1  1
 23 75  1  0
 23 76  1  0
 24 77  1  1
 25 78  1  0
 26 79  1  6
 27 80  1  0
 27 81  1  0
 29 82  1  0
 30 83  1  0
 31 84  1  0
 32 85  1  0
 33 86  1  0
 34 87  1  0
 38 88  1  0
 38 89  1  0
 40 90  1  0
 42 91  1  0
 44 92  1  0
 44 93  1  0
 46 94  1  0
 47 95  1  0
 48 96  1  0
 49 97  1  0
 50 98  1  0
M  END
$$$$
