@<TRIPOS>MOLECULE
*****
 98 101 0 0 0
SMALL
GASTEIGER

@<TRIPOS>ATOM
      1 C          -4.4445   -1.5765    0.9105 C.3     1  UNL1       -0.0605
      2 C          -3.0074   -1.9393    0.7526 C.3     1  UNL1       -0.0197
      3 C          -2.8191   -3.2662    0.0146 C.3     1  UNL1       -0.0605
      4 C          -2.2211   -0.8565   -0.0503 C.3     1  UNL1        0.1031
      5 N          -2.8250   -0.7344   -1.3614 N.am    1  UNL1       -0.2877
      6 C          -3.5762    0.4366   -1.5907 C.2     1  UNL1        0.3029
      7 O          -3.6291    1.2343   -0.6008 O.2     1  UNL1       -0.2526
      8 N          -4.2801    0.8333   -2.7897 N.am    1  UNL1       -0.2829
      9 C          -4.3600    0.1403   -4.0843 C.3     1  UNL1        0.0050
     10 C          -5.0507    2.0624   -2.7388 C.3     1  UNL1        0.0585
     11 C          -6.4797    1.7868   -2.4142 C.ar    1  UNL1        0.0660
     12 C          -7.4758    1.6369   -3.4175 C.ar    1  UNL1        0.0002
     13 S          -8.9792    1.2837   -2.3502 S.2     1  UNL1       -0.0800
     14 C          -7.9812    1.4052   -0.7932 C.ar    1  UNL1        0.0812
     15 N          -6.8952    1.6426   -1.1842 N.ar    1  UNL1       -0.2471
     16 C          -8.7058    1.1780    0.4867 C.3     1  UNL1        0.0021
     17 C          -8.2066   -0.1686    0.9958 C.3     1  UNL1       -0.0567
     18 C          -8.5428    2.2664    1.4955 C.3     1  UNL1       -0.0567
     19 C          -0.8954   -1.4906   -0.2479 C.2     1  UNL1        0.2339
     20 O          -0.5325   -1.9840   -1.3166 O.2     1  UNL1       -0.2738
     21 N           0.1384   -1.6485    0.6706 N.am    1  UNL1       -0.3105
     22 C           1.3645   -2.0197    1.2322 C.3     1  UNL1        0.0295
     23 C           1.8678   -1.1191    2.3042 C.3     1  UNL1       -0.0063
     24 C           2.0934    0.3062    1.9796 C.3     1  UNL1        0.0756
     25 O           0.8627    0.8206    1.5348 O.3     1  UNL1       -0.3899
     26 C           3.1960    0.6816    1.0548 C.3     1  UNL1        0.0561
     27 C           4.5707    0.1864    1.4872 C.3     1  UNL1       -0.0067
     28 C           5.5577    0.5176    0.4601 C.ar    1  UNL1       -0.0455
     29 C           6.4444    1.4875    0.1101 C.ar    1  UNL1       -0.0585
     30 C           7.2942    1.5806   -0.9549 C.ar    1  UNL1       -0.0615
     31 C           7.2927    0.5401   -1.8585 C.ar    1  UNL1       -0.0617
     32 C           6.4433   -0.5181   -1.6323 C.ar    1  UNL1       -0.0615
     33 C           5.6234   -0.5077   -0.5188 C.ar    1  UNL1       -0.0585
     34 N           3.2311    2.1657    0.9788 N.am    1  UNL1       -0.2755
     35 C           3.9277    3.1251    1.6958 C.2     1  UNL1        0.4009
     36 O           4.7418    2.9311    2.6527 O.2     1  UNL1       -0.2265
     37 O           3.8908    4.4785    1.5308 O.3     1  UNL1       -0.4451
     38 C           4.6558    5.3519    2.3226 C.3     1  UNL1        0.1266
     39 C           6.0993    5.1547    2.2039 C.ar    1  UNL1        0.0464
     40 C           6.8409    5.8357    1.2908 C.ar    1  UNL1        0.0412
     41 N           8.1665    5.7172    1.1199 N.ar    1  UNL1       -0.2553
     42 C           8.7567    4.8740    1.9092 C.ar    1  UNL1        0.0650
     43 S           7.3347    4.1994    2.9712 S.2     1  UNL1       -0.0770
     44 C           2.4536   -2.5709    0.3467 C.3     1  UNL1       -0.0091
     45 C           2.1207   -3.8545   -0.3342 C.ar    1  UNL1       -0.0456
     46 C           1.7027   -4.1909   -1.5930 C.ar    1  UNL1       -0.0585
     47 C           1.4426   -5.4859   -1.9580 C.ar    1  UNL1       -0.0615
     48 C           1.5787   -6.5417   -1.0992 C.ar    1  UNL1       -0.0617
     49 C           1.9964   -6.2669    0.1818 C.ar    1  UNL1       -0.0615
     50 C           2.2555   -4.9520    0.5356 C.ar    1  UNL1       -0.0585
     51 H          -4.9447   -2.1876    1.7181 H       1  UNL1        0.0233
     52 H          -5.0035   -1.8511   -0.0121 H       1  UNL1        0.0233
     53 H          -4.5825   -0.5347    1.2300 H       1  UNL1        0.0233
     54 H          -2.5523   -2.0603    1.7518 H       1  UNL1        0.0318
     55 H          -2.7873   -3.0956   -1.0928 H       1  UNL1        0.0233
     56 H          -1.8433   -3.7236    0.2830 H       1  UNL1        0.0233
     57 H          -3.5882   -3.9977    0.2882 H       1  UNL1        0.0233
     58 H          -2.2404    0.0412    0.5527 H       1  UNL1        0.0598
     59 H          -2.7859   -1.3875   -2.1639 H       1  UNL1        0.1510
     60 H          -5.3782   -0.2490   -4.1648 H       1  UNL1        0.0429
     61 H          -3.6882   -0.7395   -4.0865 H       1  UNL1        0.0429
     62 H          -4.0382    0.7725   -4.9227 H       1  UNL1        0.0429
     63 H          -4.5668    2.7213   -1.9965 H       1  UNL1        0.0530
     64 H          -4.9472    2.5766   -3.7109 H       1  UNL1        0.0530
     65 H          -7.1987    1.7474   -4.5343 H       1  UNL1        0.0712
     66 H          -9.7854    1.0212    0.2683 H       1  UNL1        0.0364
     67 H          -9.0105   -0.6326    1.5999 H       1  UNL1        0.0236
     68 H          -7.2530   -0.0261    1.5276 H       1  UNL1        0.0236
     69 H          -8.0516   -0.8125    0.1027 H       1  UNL1        0.0236
     70 H          -7.7816    1.9882    2.2645 H       1  UNL1        0.0236
     71 H          -9.5414    2.4066    1.9929 H       1  UNL1        0.0236
     72 H          -8.2534    3.1985    0.9732 H       1  UNL1        0.0236
     73 H          -0.2966   -1.1878    1.5534 H       1  UNL1        0.1490
     74 H           1.1494   -3.0298    1.8456 H       1  UNL1        0.0502
     75 H           2.8877   -1.5466    2.5729 H       1  UNL1        0.0309
     76 H           1.2738   -1.2487    3.2479 H       1  UNL1        0.0309
     77 H           2.2702    0.8212    2.9911 H       1  UNL1        0.0612
     78 H           0.6752    1.7187    1.9406 H       1  UNL1        0.2099
     79 H           3.0677    0.3567    0.0430 H       1  UNL1        0.0528
     80 H           4.5237   -0.8807    1.6499 H       1  UNL1        0.0332
     81 H           4.8351    0.6236    2.4888 H       1  UNL1        0.0332
     82 H           6.4737    2.3022    0.8139 H       1  UNL1        0.0620
     83 H           7.9191    2.4509   -1.0398 H       1  UNL1        0.0618
     84 H           7.9451    0.5681   -2.7146 H       1  UNL1        0.0618
     85 H           6.4774   -1.3080   -2.3688 H       1  UNL1        0.0618
     86 H           5.0340   -1.4269   -0.4921 H       1  UNL1        0.0620
     87 H           2.6197    2.6282    0.2472 H       1  UNL1        0.1524
     88 H           4.3782    6.3978    2.0968 H       1  UNL1        0.0755
     89 H           4.4253    5.2343    3.4110 H       1  UNL1        0.0755
     90 H           6.4914    6.5821    0.5541 H       1  UNL1        0.0839
     91 H           9.7525    4.5001    2.0947 H       1  UNL1        0.0907
     92 H           2.7615   -1.8176   -0.4326 H       1  UNL1        0.0331
     93 H           3.3410   -2.7484    0.9656 H       1  UNL1        0.0331
     94 H           1.6317   -3.3051   -2.2085 H       1  UNL1        0.0620
     95 H           1.1187   -5.5324   -3.0098 H       1  UNL1        0.0618
     96 H           1.3470   -7.5227   -1.4961 H       1  UNL1        0.0618
     97 H           2.1059   -7.0993    0.8618 H       1  UNL1        0.0618
     98 H           2.5768   -4.8737    1.5789 H       1  UNL1        0.0620
@<TRIPOS>BOND
     1     1     2    1
     2     2     3    1
     3     2     4    1
     4     4     5    1
     5     5     6   am
     6     6     7    2
     7     6     8   am
     8     8     9    1
     9     8    10    1
    10    10    11    1
    11    11    12   ar
    12    12    13   ar
    13    13    14   ar
    14    14    15   ar
    15    14    16    1
    16    16    17    1
    17    16    18    1
    18     4    19    1
    19    19    20    2
    20    19    21   am
    21    21    22    1
    22    22    23    1
    23    23    24    1
    24    24    25    1
    25    24    26    1
    26    26    27    1
    27    27    28    1
    28    28    29   ar
    29    29    30   ar
    30    30    31   ar
    31    31    32   ar
    32    32    33   ar
    33    26    34    1
    34    34    35   am
    35    35    36    2
    36    35    37    1
    37    37    38    1
    38    38    39    1
    39    39    40   ar
    40    40    41   ar
    41    41    42   ar
    42    42    43   ar
    43    22    44    1
    44    44    45    1
    45    45    46   ar
    46    46    47   ar
    47    47    48   ar
    48    48    49   ar
    49    49    50   ar
    50    15    11   ar
    51    33    28   ar
    52    43    39   ar
    53    50    45   ar
    54     1    51    1
    55     1    52    1
    56     1    53    1
    57     2    54    1
    58     3    55    1
    59     3    56    1
    60     3    57    1
    61     4    58    1
    62     5    59    1
    63     9    60    1
    64     9    61    1
    65     9    62    1
    66    10    63    1
    67    10    64    1
    68    12    65    1
    69    16    66    1
    70    17    67    1
    71    17    68    1
    72    17    69    1
    73    18    70    1
    74    18    71    1
    75    18    72    1
    76    21    73    1
    77    22    74    1
    78    23    75    1
    79    23    76    1
    80    24    77    1
    81    25    78    1
    82    26    79    1
    83    27    80    1
    84    27    81    1
    85    29    82    1
    86    30    83    1
    87    31    84    1
    88    32    85    1
    89    33    86    1
    90    34    87    1
    91    38    88    1
    92    38    89    1
    93    40    90    1
    94    42    91    1
    95    44    92    1
    96    44    93    1
    97    46    94    1
    98    47    95    1
    99    48    96    1
   100    49    97    1
   101    50    98    1
