@<TRIPOS>MOLECULE
*****
 86 92 0 0 0
SMALL
GASTEIGER

@<TRIPOS>ATOM
      1 O           8.4307   -0.4103   -2.4704 O.2     1  UNL1       -0.2525
      2 C           7.7620   -0.8782   -1.4924 C.2     1  UNL1        0.3045
      3 N           8.4619   -1.3790   -0.3725 N.am    1  UNL1       -0.2691
      4 C           7.7118   -1.9018    0.7260 C.ar    1  UNL1        0.0400
      5 C           8.4166   -2.4077    1.8307 C.ar    1  UNL1       -0.0401
      6 C           7.7034   -2.9215    2.8921 C.ar    1  UNL1       -0.0600
      7 C           6.3293   -2.9397    2.8725 C.ar    1  UNL1       -0.0613
      8 C           5.6394   -2.4504    1.8042 C.ar    1  UNL1       -0.0548
      9 C           6.3460   -1.9200    0.7071 C.ar    1  UNL1       -0.0028
     10 C           5.5698   -1.3863   -0.4171 C.3     1  UNL1        0.0657
     11 C           4.6112   -2.4740   -0.9183 C.3     1  UNL1       -0.0114
     12 C           3.6976   -1.8760   -1.9413 C.3     1  UNL1        0.0184
     13 N           3.0366   -0.6536   -1.4881 N.am    1  UNL1       -0.2855
     14 C           1.6302   -0.5050   -1.6151 C.2     1  UNL1        0.3028
     15 O           0.9405   -1.4713   -2.1307 O.2     1  UNL1       -0.2526
     16 N           0.9769    0.6497   -1.2018 N.am    1  UNL1       -0.2876
     17 C          -0.5075    0.8223   -1.3310 C.3     1  UNL1        0.1050
     18 C          -0.7491    1.8880   -2.3539 C.3     1  UNL1        0.0005
     19 C          -0.1033    3.2185   -1.9556 C.ar    1  UNL1       -0.0304
     20 C           1.1574    3.4504   -2.4028 C.ar    1  UNL1       -0.0199
     21 S           1.5813    5.0934   -1.6288 S.2     1  UNL1       -0.0964
     22 C           0.0250    5.2393   -0.8238 C.ar    1  UNL1        0.0196
     23 C          -0.4488    6.2927   -0.0043 C.ar    1  UNL1       -0.0474
     24 C          -1.7187    6.2303    0.5201 C.ar    1  UNL1       -0.0607
     25 C          -2.4501    5.1097    0.1930 C.ar    1  UNL1       -0.0611
     26 C          -1.9809    4.0935   -0.6022 C.ar    1  UNL1       -0.0533
     27 C          -0.6703    4.1512   -1.1448 C.ar    1  UNL1       -0.0076
     28 C          -1.1174    0.9642   -0.0261 C.2     1  UNL1        0.2363
     29 O          -0.2700    1.2045    0.9317 O.2     1  UNL1       -0.2736
     30 N          -2.4846    0.8695    0.3278 N.am    1  UNL1       -0.2998
     31 C          -2.8608    1.0708    1.7420 C.3     1  UNL1        0.0161
     32 C          -3.7043   -0.1359    2.1748 C.3     1  UNL1       -0.0214
     33 C          -5.0352   -0.0091    1.4771 C.3     1  UNL1        0.0133
     34 N          -5.7331   -1.2378    1.3255 N.3     1  UNL1       -0.2993
     35 C          -7.0323   -0.9468    0.6954 C.3     1  UNL1       -0.0008
     36 C          -7.9126   -2.1754    0.9659 C.3     1  UNL1       -0.0402
     37 C          -7.2635   -3.4342    0.4384 C.3     1  UNL1       -0.0507
     38 C          -5.8195   -3.5719    0.8544 C.3     1  UNL1       -0.0402
     39 C          -5.1228   -2.2421    0.5212 C.3     1  UNL1       -0.0008
     40 C          -4.8845    0.8273    0.2549 C.3     1  UNL1       -0.0214
     41 C          -3.5941    0.5713   -0.5236 C.3     1  UNL1        0.0161
     42 C           3.8906    0.3547   -0.9275 C.3     1  UNL1        0.0184
     43 C           4.7291   -0.2487    0.1635 C.3     1  UNL1       -0.0114
     44 N           6.3553   -0.9115   -1.4924 N.am    1  UNL1       -0.2895
     45 H           9.5062   -1.3913   -0.2963 H       1  UNL1        0.1564
     46 H           9.5001   -2.3856    1.8304 H       1  UNL1        0.0636
     47 H           8.2352   -3.3136    3.7479 H       1  UNL1        0.0618
     48 H           5.7460   -3.3437    3.7067 H       1  UNL1        0.0618
     49 H           4.5757   -2.4580    1.7856 H       1  UNL1        0.0622
     50 H           4.0195   -2.8367   -0.0840 H       1  UNL1        0.0304
     51 H           5.2293   -3.2469   -1.3752 H       1  UNL1        0.0304
     52 H           2.9461   -2.6431   -2.2327 H       1  UNL1        0.0466
     53 H           4.2806   -1.6614   -2.8554 H       1  UNL1        0.0466
     54 H           1.4292    1.4724   -0.7825 H       1  UNL1        0.1510
     55 H          -0.8351   -0.1307   -1.7896 H       1  UNL1        0.0598
     56 H          -1.8230    2.0183   -2.4894 H       1  UNL1        0.0336
     57 H          -0.3484    1.5416   -3.3236 H       1  UNL1        0.0336
     58 H           1.8353    2.9317   -3.0233 H       1  UNL1        0.0696
     59 H           0.2452    7.0945    0.1539 H       1  UNL1        0.0629
     60 H          -2.0594    7.0263    1.1321 H       1  UNL1        0.0618
     61 H          -3.4709    5.0630    0.6154 H       1  UNL1        0.0618
     62 H          -2.6562    3.2945   -0.7932 H       1  UNL1        0.0624
     63 H          -3.4056    2.0002    1.8948 H       1  UNL1        0.0465
     64 H          -1.9408    1.0230    2.3573 H       1  UNL1        0.0465
     65 H          -3.1892   -1.0664    1.9587 H       1  UNL1        0.0295
     66 H          -3.8037   -0.0472    3.2868 H       1  UNL1        0.0295
     67 H          -5.6700    0.6042    2.2016 H       1  UNL1        0.0463
     68 H          -6.9329   -0.9107   -0.4018 H       1  UNL1        0.0427
     69 H          -7.5263   -0.0815    1.1462 H       1  UNL1        0.0427
     70 H          -8.1666   -2.2504    2.0316 H       1  UNL1        0.0278
     71 H          -8.8694   -2.0457    0.3915 H       1  UNL1        0.0278
     72 H          -7.8253   -4.2867    0.8758 H       1  UNL1        0.0266
     73 H          -7.3871   -3.5014   -0.6659 H       1  UNL1        0.0266
     74 H          -5.3556   -4.3359    0.2150 H       1  UNL1        0.0278
     75 H          -5.7475   -3.7660    1.9227 H       1  UNL1        0.0278
     76 H          -4.0473   -2.3423    0.6549 H       1  UNL1        0.0427
     77 H          -5.3398   -2.1113   -0.5745 H       1  UNL1        0.0427
     78 H          -4.9467    1.9287    0.5076 H       1  UNL1        0.0295
     79 H          -5.6975    0.6954   -0.5018 H       1  UNL1        0.0295
     80 H          -3.6025   -0.5044   -0.8191 H       1  UNL1        0.0465
     81 H          -3.6939    1.1919   -1.4276 H       1  UNL1        0.0465
     82 H           3.3157    1.2238   -0.5098 H       1  UNL1        0.0466
     83 H           4.5607    0.7277   -1.7527 H       1  UNL1        0.0466
     84 H           4.0463   -0.7088    0.8973 H       1  UNL1        0.0304
     85 H           5.4245    0.4750    0.6133 H       1  UNL1        0.0304
     86 H           5.9057   -0.5552   -2.3830 H       1  UNL1        0.1511
@<TRIPOS>BOND
     1     1     2    2
     2     2     3   am
     3     3     4    1
     4     4     5   ar
     5     5     6   ar
     6     6     7   ar
     7     7     8   ar
     8     8     9   ar
     9     9    10    1
    10    10    11    1
    11    11    12    1
    12    12    13    1
    13    13    14   am
    14    14    15    2
    15    14    16   am
    16    16    17    1
    17    17    18    1
    18    18    19    1
    19    19    20   ar
    20    20    21   ar
    21    21    22   ar
    22    22    23   ar
    23    23    24   ar
    24    24    25   ar
    25    25    26   ar
    26    26    27   ar
    27    17    28    1
    28    28    29    2
    29    28    30   am
    30    30    31    1
    31    31    32    1
    32    32    33    1
    33    33    34    1
    34    34    35    1
    35    35    36    1
    36    36    37    1
    37    37    38    1
    38    38    39    1
    39    33    40    1
    40    40    41    1
    41    13    42    1
    42    42    43    1
    43    10    44    1
    44    44     2   am
    45     9     4   ar
    46    43    10    1
    47    27    19   ar
    48    41    30    1
    49    27    22   ar
    50    39    34    1
    51     3    45    1
    52     5    46    1
    53     6    47    1
    54     7    48    1
    55     8    49    1
    56    11    50    1
    57    11    51    1
    58    12    52    1
    59    12    53    1
    60    16    54    1
    61    17    55    1
    62    18    56    1
    63    18    57    1
    64    20    58    1
    65    23    59    1
    66    24    60    1
    67    25    61    1
    68    26    62    1
    69    31    63    1
    70    31    64    1
    71    32    65    1
    72    32    66    1
    73    33    67    1
    74    35    68    1
    75    35    69    1
    76    36    70    1
    77    36    71    1
    78    37    72    1
    79    37    73    1
    80    38    74    1
    81    38    75    1
    82    39    76    1
    83    39    77    1
    84    40    78    1
    85    40    79    1
    86    41    80    1
    87    41    81    1
    88    42    82    1
    89    42    83    1
    90    43    84    1
    91    43    85    1
    92    44    86    1
