
     RDKit          3D

 86 92  0  0  0  0  0  0  0  0999 V2000
    8.4307   -0.4103   -2.4704 O   0  0  0  0  0  0  0  0  0  0  0  0
    7.7620   -0.8782   -1.4924 C   0  0  0  0  0  0  0  0  0  0  0  0
    8.4619   -1.3790   -0.3725 N   0  0  0  0  0  0  0  0  0  0  0  0
    7.7118   -1.9018    0.7260 C   0  0  0  0  0  0  0  0  0  0  0  0
    8.4166   -2.4077    1.8307 C   0  0  0  0  0  0  0  0  0  0  0  0
    7.7034   -2.9215    2.8921 C   0  0  0  0  0  0  0  0  0  0  0  0
    6.3293   -2.9397    2.8725 C   0  0  0  0  0  0  0  0  0  0  0  0
    5.6394   -2.4504    1.8042 C   0  0  0  0  0  0  0  0  0  0  0  0
    6.3460   -1.9200    0.7071 C   0  0  0  0  0  0  0  0  0  0  0  0
    5.5698   -1.3863   -0.4171 C   0  0  0  0  0  0  0  0  0  0  0  0
    4.6112   -2.4740   -0.9183 C   0  0  0  0  0  0  0  0  0  0  0  0
    3.6976   -1.8760   -1.9413 C   0  0  0  0  0  0  0  0  0  0  0  0
    3.0366   -0.6536   -1.4881 N   0  0  0  0  0  0  0  0  0  0  0  0
    1.6302   -0.5050   -1.6151 C   0  0  0  0  0  0  0  0  0  0  0  0
    0.9405   -1.4713   -2.1307 O   0  0  0  0  0  0  0  0  0  0  0  0
    0.9769    0.6497   -1.2018 N   0  0  0  0  0  0  0  0  0  0  0  0
   -0.5075    0.8223   -1.3310 C   0  0  2  0  0  0  0  0  0  0  0  0
   -0.7491    1.8880   -2.3539 C   0  0  0  0  0  0  0  0  0  0  0  0
   -0.1033    3.2185   -1.9556 C   0  0  0  0  0  0  0  0  0  0  0  0
    1.1574    3.4504   -2.4028 C   0  0  0  0  0  0  0  0  0  0  0  0
    1.5813    5.0934   -1.6288 S   0  0  0  0  0  0  0  0  0  0  0  0
    0.0250    5.2393   -0.8238 C   0  0  0  0  0  0  0  0  0  0  0  0
   -0.4488    6.2927   -0.0043 C   0  0  0  0  0  0  0  0  0  0  0  0
   -1.7187    6.2303    0.5201 C   0  0  0  0  0  0  0  0  0  0  0  0
   -2.4501    5.1097    0.1930 C   0  0  0  0  0  0  0  0  0  0  0  0
   -1.9809    4.0935   -0.6022 C   0  0  0  0  0  0  0  0  0  0  0  0
   -0.6703    4.1512   -1.1448 C   0  0  0  0  0  0  0  0  0  0  0  0
   -1.1174    0.9642   -0.0261 C   0  0  0  0  0  0  0  0  0  0  0  0
   -0.2700    1.2045    0.9317 O   0  0  0  0  0  0  0  0  0  0  0  0
   -2.4846    0.8695    0.3278 N   0  0  0  0  0  0  0  0  0  0  0  0
   -2.8608    1.0708    1.7420 C   0  0  0  0  0  0  0  0  0  0  0  0
   -3.7043   -0.1359    2.1748 C   0  0  0  0  0  0  0  0  0  0  0  0
   -5.0352   -0.0091    1.4771 C   0  0  0  0  0  0  0  0  0  0  0  0
   -5.7331   -1.2378    1.3255 N   0  0  0  0  0  0  0  0  0  0  0  0
   -7.0323   -0.9468    0.6954 C   0  0  0  0  0  0  0  0  0  0  0  0
   -7.9126   -2.1754    0.9659 C   0  0  0  0  0  0  0  0  0  0  0  0
   -7.2635   -3.4342    0.4384 C   0  0  0  0  0  0  0  0  0  0  0  0
   -5.8195   -3.5719    0.8544 C   0  0  0  0  0  0  0  0  0  0  0  0
   -5.1228   -2.2421    0.5212 C   0  0  0  0  0  0  0  0  0  0  0  0
   -4.8845    0.8273    0.2549 C   0  0  0  0  0  0  0  0  0  0  0  0
   -3.5941    0.5713   -0.5236 C   0  0  0  0  0  0  0  0  0  0  0  0
    3.8906    0.3547   -0.9275 C   0  0  0  0  0  0  0  0  0  0  0  0
    4.7291   -0.2487    0.1635 C   0  0  0  0  0  0  0  0  0  0  0  0
    6.3553   -0.9115   -1.4924 N   0  0  0  0  0  0  0  0  0  0  0  0
    9.5062   -1.3913   -0.2963 H   0  0  0  0  0  0  0  0  0  0  0  0
    9.5001   -2.3856    1.8304 H   0  0  0  0  0  0  0  0  0  0  0  0
    8.2352   -3.3136    3.7479 H   0  0  0  0  0  0  0  0  0  0  0  0
    5.7460   -3.3437    3.7067 H   0  0  0  0  0  0  0  0  0  0  0  0
    4.5757   -2.4580    1.7856 H   0  0  0  0  0  0  0  0  0  0  0  0
    4.0195   -2.8367   -0.0840 H   0  0  0  0  0  0  0  0  0  0  0  0
    5.2293   -3.2469   -1.3752 H   0  0  0  0  0  0  0  0  0  0  0  0
    2.9461   -2.6431   -2.2327 H   0  0  0  0  0  0  0  0  0  0  0  0
    4.2806   -1.6614   -2.8554 H   0  0  0  0  0  0  0  0  0  0  0  0
    1.4292    1.4724   -0.7825 H   0  0  0  0  0  0  0  0  0  0  0  0
   -0.8351   -0.1307   -1.7896 H   0  0  0  0  0  0  0  0  0  0  0  0
   -1.8230    2.0183   -2.4894 H   0  0  0  0  0  0  0  0  0  0  0  0
   -0.3484    1.5416   -3.3236 H   0  0  0  0  0  0  0  0  0  0  0  0
    1.8353    2.9317   -3.0233 H   0  0  0  0  0  0  0  0  0  0  0  0
    0.2452    7.0945    0.1539 H   0  0  0  0  0  0  0  0  0  0  0  0
   -2.0594    7.0263    1.1321 H   0  0  0  0  0  0  0  0  0  0  0  0
   -3.4709    5.0630    0.6154 H   0  0  0  0  0  0  0  0  0  0  0  0
   -2.6562    3.2945   -0.7932 H   0  0  0  0  0  0  0  0  0  0  0  0
   -3.4056    2.0002    1.8948 H   0  0  0  0  0  0  0  0  0  0  0  0
   -1.9408    1.0230    2.3573 H   0  0  0  0  0  0  0  0  0  0  0  0
   -3.1892   -1.0664    1.9587 H   0  0  0  0  0  0  0  0  0  0  0  0
   -3.8037   -0.0472    3.2868 H   0  0  0  0  0  0  0  0  0  0  0  0
   -5.6700    0.6042    2.2016 H   0  0  0  0  0  0  0  0  0  0  0  0
   -6.9329   -0.9107   -0.4018 H   0  0  0  0  0  0  0  0  0  0  0  0
   -7.5263   -0.0815    1.1462 H   0  0  0  0  0  0  0  0  0  0  0  0
   -8.1666   -2.2504    2.0316 H   0  0  0  0  0  0  0  0  0  0  0  0
   -8.8694   -2.0457    0.3915 H   0  0  0  0  0  0  0  0  0  0  0  0
   -7.8253   -4.2867    0.8758 H   0  0  0  0  0  0  0  0  0  0  0  0
   -7.3871   -3.5014   -0.6659 H   0  0  0  0  0  0  0  0  0  0  0  0
   -5.3556   -4.3359    0.2150 H   0  0  0  0  0  0  0  0  0  0  0  0
   -5.7475   -3.7660    1.9227 H   0  0  0  0  0  0  0  0  0  0  0  0
   -4.0473   -2.3423    0.6549 H   0  0  0  0  0  0  0  0  0  0  0  0
   -5.3398   -2.1113   -0.5745 H   0  0  0  0  0  0  0  0  0  0  0  0
   -4.9467    1.9287    0.5076 H   0  0  0  0  0  0  0  0  0  0  0  0
   -5.6975    0.6954   -0.5018 H   0  0  0  0  0  0  0  0  0  0  0  0
   -3.6025   -0.5044   -0.8191 H   0  0  0  0  0  0  0  0  0  0  0  0
   -3.6939    1.1919   -1.4276 H   0  0  0  0  0  0  0  0  0  0  0  0
    3.3157    1.2238   -0.5098 H   0  0  0  0  0  0  0  0  0  0  0  0
    4.5607    0.7277   -1.7527 H   0  0  0  0  0  0  0  0  0  0  0  0
    4.0463   -0.7088    0.8973 H   0  0  0  0  0  0  0  0  0  0  0  0
    5.4245    0.4750    0.6133 H   0  0  0  0  0  0  0  0  0  0  0  0
    5.9057   -0.5552   -2.3830 H   0  0  0  0  0  0  0  0  0  0  0  0
  1  2  2  0
  2  3  1  0
  3  4  1  0
  4  5  2  0
  5  6  1  0
  6  7  2  0
  7  8  1  0
  8  9  2  0
  9 10  1  0
 10 11  1  0
 11 12  1  0
 12 13  1  0
 13 14  1  0
 14 15  2  0
 14 16  1  0
 16 17  1  0
 17 18  1  0
 18 19  1  0
 19 20  2  0
 20 21  1  0
 21 22  1  0
 22 23  2  0
 23 24  1  0
 24 25  2  0
 25 26  1  0
 26 27  2  0
 17 28  1  0
 28 29  2  0
 28 30  1  0
 30 31  1  0
 31 32  1  0
 32 33  1  0
 33 34  1  0
 34 35  1  0
 35 36  1  0
 36 37  1  0
 37 38  1  0
 38 39  1  0
 33 40  1  0
 40 41  1  0
 13 42  1  0
 42 43  1  0
 10 44  1  0
 44  2  1  0
  9  4  1  0
 43 10  1  0
 27 19  1  0
 41 30  1  0
 27 22  1  0
 39 34  1  0
  3 45  1  0
  5 46  1  0
  6 47  1  0
  7 48  1  0
  8 49  1  0
 11 50  1  0
 11 51  1  0
 12 52  1  0
 12 53  1  0
 16 54  1  0
 17 55  1  6
 18 56  1  0
 18 57  1  0
 20 58  1  0
 23 59  1  0
 24 60  1  0
 25 61  1  0
 26 62  1  0
 31 63  1  0
 31 64  1  0
 32 65  1  0
 32 66  1  0
 33 67  1  0
 35 68  1  0
 35 69  1  0
 36 70  1  0
 36 71  1  0
 37 72  1  0
 37 73  1  0
 38 74  1  0
 38 75  1  0
 39 76  1  0
 39 77  1  0
 40 78  1  0
 40 79  1  0
 41 80  1  0
 41 81  1  0
 42 82  1  0
 42 83  1  0
 43 84  1  0
 43 85  1  0
 44 86  1  0
M  END
$$$$
