
     RDKit          3D

 35 37  0  0  0  0  0  0  0  0999 V2000
    0.5637   -3.0987    0.0753 N   0  0  0  0  0  0  0  0  0  0  0  0
   -0.5168   -2.1823    0.0363 C   0  0  0  0  0  0  0  0  0  0  0  0
   -1.7954   -2.6675    0.3157 C   0  0  0  0  0  0  0  0  0  0  0  0
   -2.8465   -1.7745    0.2774 C   0  0  0  0  0  0  0  0  0  0  0  0
   -2.6520   -0.4664   -0.0210 C   0  0  0  0  0  0  0  0  0  0  0  0
   -3.7753    0.4238   -0.0486 C   0  0  0  0  0  0  0  0  0  0  0  0
   -5.1205    0.2569    0.1741 C   0  0  0  0  0  0  0  0  0  0  0  0
   -5.9535    1.2820    0.0780 C   0  0  0  0  0  0  0  0  0  0  0  0
   -5.4541    2.5276   -0.2501 C   0  0  0  0  0  0  0  0  0  0  0  0
   -3.6736    2.1685   -0.4245 S   0  0  0  0  0  0  0  0  0  0  0  0
   -1.3863    0.0097   -0.2967 C   0  0  0  0  0  0  0  0  0  0  0  0
   -0.3174   -0.8532   -0.2672 C   0  0  0  0  0  0  0  0  0  0  0  0
    1.0118   -0.3716   -0.5529 N   0  0  0  0  0  0  0  0  0  0  0  0
    1.7800    0.0979    0.5388 C   0  0  0  0  0  0  0  0  0  0  0  0
    1.2465    0.0627    1.6926 O   0  0  0  0  0  0  0  0  0  0  0  0
    3.1216    0.5977    0.3408 C   0  0  0  0  0  0  0  0  0  0  0  0
    3.6768    0.6267   -0.9084 C   0  0  0  0  0  0  0  0  0  0  0  0
    4.9817    1.1141   -1.0922 C   0  0  0  0  0  0  0  0  0  0  0  0
    5.6886    1.5584   -0.0084 C   0  0  0  0  0  0  0  0  0  0  0  0
    5.1499    1.5382    1.2551 C   0  0  0  0  0  0  0  0  0  0  0  0
    3.8778    1.0599    1.4141 C   0  0  0  0  0  0  0  0  0  0  0  0
    1.0762   -3.3442   -0.7968 H   0  0  0  0  0  0  0  0  0  0  0  0
    0.8515   -3.5348    0.9897 H   0  0  0  0  0  0  0  0  0  0  0  0
   -1.9096   -3.7152    0.5489 H   0  0  0  0  0  0  0  0  0  0  0  0
   -3.8386   -2.1605    0.4962 H   0  0  0  0  0  0  0  0  0  0  0  0
   -5.4597   -0.7852    0.4376 H   0  0  0  0  0  0  0  0  0  0  0  0
   -7.0602    1.2160    0.2464 H   0  0  0  0  0  0  0  0  0  0  0  0
   -5.9076    3.4600   -0.3800 H   0  0  0  0  0  0  0  0  0  0  0  0
   -1.1836    1.0452   -0.5397 H   0  0  0  0  0  0  0  0  0  0  0  0
    1.3613   -0.3839   -1.5415 H   0  0  0  0  0  0  0  0  0  0  0  0
    3.1900    0.2971   -1.8095 H   0  0  0  0  0  0  0  0  0  0  0  0
    5.4070    1.1307   -2.0864 H   0  0  0  0  0  0  0  0  0  0  0  0
    6.7097    1.9437   -0.1271 H   0  0  0  0  0  0  0  0  0  0  0  0
    5.7394    1.8966    2.0794 H   0  0  0  0  0  0  0  0  0  0  0  0
    3.4171    1.0250    2.3792 H   0  0  0  0  0  0  0  0  0  0  0  0
  1  2  1  0
  2  3  2  0
  3  4  1  0
  4  5  2  0
  5  6  1  0
  6  7  2  0
  7  8  1  0
  8  9  2  0
  9 10  1  0
  5 11  1  0
 11 12  2  0
 12 13  1  0
 13 14  1  0
 14 15  2  0
 14 16  1  0
 16 17  2  0
 17 18  1  0
 18 19  2  0
 19 20  1  0
 20 21  2  0
 12  2  1  0
 21 16  1  0
 10  6  1  0
  1 22  1  0
  1 23  1  0
  3 24  1  0
  4 25  1  0
  7 26  1  0
  8 27  1  0
  9 28  1  0
 11 29  1  0
 13 30  1  0
 17 31  1  0
 18 32  1  0
 19 33  1  0
 20 34  1  0
 21 35  1  0
M  END
$$$$
