@<TRIPOS>MOLECULE
*****
 35 37 0 0 0
SMALL
GASTEIGER

@<TRIPOS>ATOM
      1 N           0.5637   -3.0987    0.0753 N.pl3   1  UNL1       -0.3565
      2 C          -0.5168   -2.1823    0.0363 C.ar    1  UNL1        0.0461
      3 C          -1.7954   -2.6675    0.3157 C.ar    1  UNL1       -0.0386
      4 C          -2.8465   -1.7745    0.2774 C.ar    1  UNL1       -0.0517
      5 C          -2.6520   -0.4664   -0.0210 C.ar    1  UNL1       -0.0094
      6 C          -3.7753    0.4238   -0.0486 C.ar    1  UNL1        0.0194
      7 C          -5.1205    0.2569    0.1741 C.ar    1  UNL1       -0.0469
      8 C          -5.9535    1.2820    0.0780 C.ar    1  UNL1       -0.0541
      9 C          -5.4541    2.5276   -0.2501 C.ar    1  UNL1       -0.0237
     10 S          -3.6736    2.1685   -0.4245 S.2     1  UNL1       -0.0967
     11 C          -1.3863    0.0097   -0.2967 C.ar    1  UNL1       -0.0305
     12 C          -0.3174   -0.8532   -0.2672 C.ar    1  UNL1        0.0551
     13 N           1.0118   -0.3716   -0.5529 N.am    1  UNL1       -0.2799
     14 C           1.7800    0.0979    0.5388 C.2     1  UNL1        0.2483
     15 O           1.2465    0.0627    1.6926 O.2     1  UNL1       -0.2699
     16 C           3.1216    0.5977    0.3408 C.ar    1  UNL1        0.0370
     17 C           3.6768    0.6267   -0.9084 C.ar    1  UNL1       -0.0496
     18 C           4.9817    1.1141   -1.0922 C.ar    1  UNL1       -0.0610
     19 C           5.6886    1.5584   -0.0084 C.ar    1  UNL1       -0.0617
     20 C           5.1499    1.5382    1.2551 C.ar    1  UNL1       -0.0610
     21 C           3.8778    1.0599    1.4141 C.ar    1  UNL1       -0.0496
     22 H           1.0762   -3.3442   -0.7968 H       1  UNL1        0.1424
     23 H           0.8515   -3.5348    0.9897 H       1  UNL1        0.1424
     24 H          -1.9096   -3.7152    0.5489 H       1  UNL1        0.0637
     25 H          -3.8386   -2.1605    0.4962 H       1  UNL1        0.0624
     26 H          -5.4597   -0.7852    0.4376 H       1  UNL1        0.0629
     27 H          -7.0602    1.2160    0.2464 H       1  UNL1        0.0623
     28 H          -5.9076    3.4600   -0.3800 H       1  UNL1        0.0693
     29 H          -1.1836    1.0452   -0.5397 H       1  UNL1        0.0643
     30 H           1.3613   -0.3839   -1.5415 H       1  UNL1        0.1552
     31 H           3.1900    0.2971   -1.8095 H       1  UNL1        0.0625
     32 H           5.4070    1.1307   -2.0864 H       1  UNL1        0.0618
     33 H           6.7097    1.9437   -0.1271 H       1  UNL1        0.0618
     34 H           5.7394    1.8966    2.0794 H       1  UNL1        0.0618
     35 H           3.4171    1.0250    2.3792 H       1  UNL1        0.0625
@<TRIPOS>BOND
     1     1     2    1
     2     2     3   ar
     3     3     4   ar
     4     4     5   ar
     5     5     6    1
     6     6     7   ar
     7     7     8   ar
     8     8     9   ar
     9     9    10   ar
    10     5    11   ar
    11    11    12   ar
    12    12    13    1
    13    13    14   am
    14    14    15    2
    15    14    16    1
    16    16    17   ar
    17    17    18   ar
    18    18    19   ar
    19    19    20   ar
    20    20    21   ar
    21    12     2   ar
    22    21    16   ar
    23    10     6   ar
    24     1    22    1
    25     1    23    1
    26     3    24    1
    27     4    25    1
    28     7    26    1
    29     8    27    1
    30     9    28    1
    31    11    29    1
    32    13    30    1
    33    17    31    1
    34    18    32    1
    35    19    33    1
    36    20    34    1
    37    21    35    1
