@<TRIPOS>MOLECULE
*****
 53 55 0 0 0
SMALL
GASTEIGER

@<TRIPOS>ATOM
      1 C          -3.6511    2.3324    0.7458 C.3     1  UNL1       -0.0122
      2 N          -3.1620    1.8746   -0.5145 N.3     1  UNL1       -0.2954
      3 C          -2.1203    0.9063   -0.4586 C.3     1  UNL1        0.0028
      4 C          -2.5538   -0.4301    0.0775 C.3     1  UNL1        0.0013
      5 C          -1.3155   -1.3509    0.0716 C.3     1  UNL1        0.1263
      6 O          -0.3704   -0.7445    0.8924 O.3     1  UNL1       -0.4842
      7 C           0.8910   -0.3471    0.5789 C.ar    1  UNL1        0.1214
      8 C           1.4006   -0.5145   -0.6709 C.ar    1  UNL1       -0.0193
      9 C           2.6863   -0.1043   -0.9723 C.ar    1  UNL1       -0.0506
     10 C           3.4674    0.4793   -0.0096 C.ar    1  UNL1       -0.0177
     11 C           4.8192    0.9151   -0.3002 C.ar    1  UNL1       -0.0179
     12 C           5.5975    0.2366   -1.2354 C.ar    1  UNL1       -0.0540
     13 C           6.8792    0.6238   -1.5307 C.ar    1  UNL1       -0.0612
     14 C           7.4480    1.7086   -0.9066 C.ar    1  UNL1       -0.0617
     15 C           6.6947    2.4100    0.0355 C.ar    1  UNL1       -0.0612
     16 C           5.4061    1.9978    0.3135 C.ar    1  UNL1       -0.0540
     17 C           2.9652    0.6574    1.2674 C.ar    1  UNL1       -0.0506
     18 C           1.6909    0.2467    1.5513 C.ar    1  UNL1       -0.0193
     19 C          -1.7488   -2.6133    0.7295 C.ar    1  UNL1       -0.0071
     20 C          -1.8567   -3.7543   -0.0128 C.ar    1  UNL1       -0.0524
     21 C          -2.2613   -4.9378    0.6018 C.ar    1  UNL1       -0.0261
     22 C          -2.5470   -4.9428    1.9477 C.ar    1  UNL1        0.1234
     23 F          -2.9414   -6.1076    2.5351 F       1  UNL1       -0.2055
     24 C          -2.4388   -3.7884    2.7035 C.ar    1  UNL1       -0.0261
     25 C          -2.0310   -2.6113    2.0663 C.ar    1  UNL1       -0.0524
     26 C          -4.1702    1.6275   -1.4962 C.3     1  UNL1        0.0965
     27 C          -4.7792    2.9120   -1.8965 C.2     1  UNL1        0.3189
     28 O          -5.6984    2.9330   -2.7452 O.2     1  UNL1       -0.2496
     29 O          -4.3510    4.1025   -1.3484 O.3     1  UNL1       -0.4797
     30 H          -4.7461    2.1043    0.8919 H       1  UNL1        0.0391
     31 H          -3.1024    1.9694    1.6157 H       1  UNL1        0.0391
     32 H          -3.5868    3.4463    0.7599 H       1  UNL1        0.0391
     33 H          -1.6898    0.7862   -1.4704 H       1  UNL1        0.0428
     34 H          -1.3017    1.3204    0.1773 H       1  UNL1        0.0428
     35 H          -2.9010   -0.3630    1.1072 H       1  UNL1        0.0317
     36 H          -3.2865   -0.8844   -0.6240 H       1  UNL1        0.0317
     37 H          -0.9919   -1.5311   -0.9709 H       1  UNL1        0.0785
     38 H           0.8281   -0.9701   -1.4720 H       1  UNL1        0.0654
     39 H           3.0971   -0.2340   -1.9611 H       1  UNL1        0.0625
     40 H           5.1522   -0.6264   -1.7361 H       1  UNL1        0.0624
     41 H           7.4723    0.0905   -2.2559 H       1  UNL1        0.0618
     42 H           8.4588    2.0336   -1.1230 H       1  UNL1        0.0618
     43 H           7.1434    3.2477    0.5124 H       1  UNL1        0.0618
     44 H           4.8151    2.5374    1.0433 H       1  UNL1        0.0624
     45 H           3.5843    1.1152    2.0129 H       1  UNL1        0.0625
     46 H           1.2684    0.3724    2.5439 H       1  UNL1        0.0654
     47 H          -1.6377   -3.7744   -1.0701 H       1  UNL1        0.0622
     48 H          -2.3376   -5.8246   -0.0128 H       1  UNL1        0.0646
     49 H          -2.6702   -3.8282    3.7552 H       1  UNL1        0.0646
     50 H          -1.9468   -1.7091    2.6562 H       1  UNL1        0.0622
     51 H          -3.6639    1.2133   -2.3946 H       1  UNL1        0.0541
     52 H          -4.9287    0.8768   -1.1958 H       1  UNL1        0.0541
     53 H          -4.9779    4.9151   -1.2385 H       1  UNL1        0.2951
@<TRIPOS>BOND
     1     1     2    1
     2     2     3    1
     3     3     4    1
     4     4     5    1
     5     5     6    1
     6     6     7    1
     7     7     8   ar
     8     8     9   ar
     9     9    10   ar
    10    10    11    1
    11    11    12   ar
    12    12    13   ar
    13    13    14   ar
    14    14    15   ar
    15    15    16   ar
    16    10    17   ar
    17    17    18   ar
    18     5    19    1
    19    19    20   ar
    20    20    21   ar
    21    21    22   ar
    22    22    23    1
    23    22    24   ar
    24    24    25   ar
    25     2    26    1
    26    26    27    1
    27    27    28    2
    28    27    29    1
    29    18     7   ar
    30    25    19   ar
    31    16    11   ar
    32     1    30    1
    33     1    31    1
    34     1    32    1
    35     3    33    1
    36     3    34    1
    37     4    35    1
    38     4    36    1
    39     5    37    1
    40     8    38    1
    41     9    39    1
    42    12    40    1
    43    13    41    1
    44    14    42    1
    45    15    43    1
    46    16    44    1
    47    17    45    1
    48    18    46    1
    49    20    47    1
    50    21    48    1
    51    24    49    1
    52    25    50    1
    53    26    51    1
    54    26    52    1
    55    29    53    1
