
     RDKit          3D

 68 72  0  0  0  0  0  0  0  0999 V2000
    7.6398   -1.2994   -1.4204 C   0  0  0  0  0  0  0  0  0  0  0  0
    7.0977   -0.6306   -0.1558 C   0  0  0  0  0  0  0  0  0  0  0  0
    7.4066   -1.4683    1.0649 C   0  0  0  0  0  0  0  0  0  0  0  0
    7.7838    0.7266   -0.0801 C   0  0  0  0  0  0  0  0  0  0  0  0
    5.7062   -0.4857   -0.3555 O   0  0  0  0  0  0  0  0  0  0  0  0
    4.8322    0.0687    0.5347 C   0  0  0  0  0  0  0  0  0  0  0  0
    5.3025    0.4894    1.6315 O   0  0  0  0  0  0  0  0  0  0  0  0
    3.4513    0.1595    0.2203 N   0  0  0  0  0  0  0  0  0  0  0  0
    2.9897   -0.3430   -1.0521 C   0  0  0  0  0  0  0  0  0  0  0  0
    2.0907    0.6994   -1.6516 C   0  0  0  0  0  0  0  0  0  0  0  0
    0.9645    1.0575   -0.7164 C   0  0  0  0  0  0  0  0  0  0  0  0
   -0.0114   -0.0143   -0.6882 N   0  0  0  0  0  0  0  0  0  0  0  0
    0.1390   -1.2942   -0.8990 N   0  0  0  0  0  0  0  0  0  0  0  0
   -1.0255   -1.9623   -0.7779 C   0  0  0  0  0  0  0  0  0  0  0  0
   -1.9839   -1.0317   -0.4667 C   0  0  0  0  0  0  0  0  0  0  0  0
   -3.3386   -1.1128   -0.2264 C   0  0  0  0  0  0  0  0  0  0  0  0
   -4.0372   -2.3672   -0.2758 N   0  0  0  0  0  0  0  0  0  0  0  0
   -3.7023   -3.4802    0.5888 C   0  0  0  0  0  0  0  0  0  0  0  0
   -3.6554   -4.7253   -0.2700 C   0  0  0  0  0  0  0  0  0  0  0  0
   -4.9330   -4.9137   -0.8011 O   0  0  0  0  0  0  0  0  0  0  0  0
   -5.2199   -3.9415   -1.7550 C   0  0  0  0  0  0  0  0  0  0  0  0
   -5.1226   -2.5494   -1.2183 C   0  0  0  0  0  0  0  0  0  0  0  0
   -4.0039    0.0290    0.0603 N   0  0  0  0  0  0  0  0  0  0  0  0
   -3.3699    1.2310    0.1141 C   0  0  0  0  0  0  0  0  0  0  0  0
   -4.1048    2.4455    0.4237 C   0  0  0  0  0  0  0  0  0  0  0  0
   -3.4172    3.6370    0.4666 C   0  0  0  0  0  0  0  0  0  0  0  0
   -4.1126    4.8038    0.7621 C   0  0  0  0  0  0  0  0  0  0  0  0
   -5.4686    4.7757    1.0091 C   0  0  0  0  0  0  0  0  0  0  0  0
   -6.1671    5.9725    1.3094 N   0  0  0  0  0  0  0  0  0  0  0  0
   -6.1488    3.5668    0.9623 C   0  0  0  0  0  0  0  0  0  0  0  0
   -5.4592    2.3977    0.6676 C   0  0  0  0  0  0  0  0  0  0  0  0
   -2.0530    1.2609   -0.1264 N   0  0  0  0  0  0  0  0  0  0  0  0
   -1.3141    0.1821   -0.4179 C   0  0  0  0  0  0  0  0  0  0  0  0
    1.4078    1.4718    0.6375 C   0  0  0  0  0  0  0  0  0  0  0  0
    2.5722    0.7533    1.1947 C   0  0  0  0  0  0  0  0  0  0  0  0
    7.5246   -0.5991   -2.2573 H   0  0  0  0  0  0  0  0  0  0  0  0
    6.9463   -2.1739   -1.5928 H   0  0  0  0  0  0  0  0  0  0  0  0
    8.6444   -1.7002   -1.2889 H   0  0  0  0  0  0  0  0  0  0  0  0
    6.6525   -2.2620    1.1303 H   0  0  0  0  0  0  0  0  0  0  0  0
    8.4432   -1.8522    0.9255 H   0  0  0  0  0  0  0  0  0  0  0  0
    7.4251   -0.8562    1.9792 H   0  0  0  0  0  0  0  0  0  0  0  0
    7.0814    1.4829   -0.5160 H   0  0  0  0  0  0  0  0  0  0  0  0
    7.9737    0.9518    0.9843 H   0  0  0  0  0  0  0  0  0  0  0  0
    8.7388    0.7222   -0.6706 H   0  0  0  0  0  0  0  0  0  0  0  0
    3.8602   -0.4522   -1.7505 H   0  0  0  0  0  0  0  0  0  0  0  0
    2.5192   -1.3351   -0.9623 H   0  0  0  0  0  0  0  0  0  0  0  0
    2.7137    1.6107   -1.8217 H   0  0  0  0  0  0  0  0  0  0  0  0
    1.6301    0.3620   -2.6004 H   0  0  0  0  0  0  0  0  0  0  0  0
    0.4461    1.9394   -1.1866 H   0  0  0  0  0  0  0  0  0  0  0  0
   -1.1845   -3.0166   -0.8990 H   0  0  0  0  0  0  0  0  0  0  0  0
   -4.5838   -3.5977    1.2822 H   0  0  0  0  0  0  0  0  0  0  0  0
   -2.7586   -3.3204    1.1457 H   0  0  0  0  0  0  0  0  0  0  0  0
   -2.9777   -4.5939   -1.1428 H   0  0  0  0  0  0  0  0  0  0  0  0
   -3.3688   -5.6236    0.3141 H   0  0  0  0  0  0  0  0  0  0  0  0
   -4.5933   -4.0888   -2.6769 H   0  0  0  0  0  0  0  0  0  0  0  0
   -6.2675   -4.1160   -2.0813 H   0  0  0  0  0  0  0  0  0  0  0  0
   -6.0662   -2.3241   -0.6601 H   0  0  0  0  0  0  0  0  0  0  0  0
   -4.9993   -1.8614   -2.0885 H   0  0  0  0  0  0  0  0  0  0  0  0
   -2.3578    3.7221    0.2827 H   0  0  0  0  0  0  0  0  0  0  0  0
   -3.5883    5.7475    0.8000 H   0  0  0  0  0  0  0  0  0  0  0  0
   -5.8740    6.8915    0.9346 H   0  0  0  0  0  0  0  0  0  0  0  0
   -7.0025    5.9455    1.9238 H   0  0  0  0  0  0  0  0  0  0  0  0
   -7.2124    3.5166    1.1521 H   0  0  0  0  0  0  0  0  0  0  0  0
   -6.0388    1.4860    0.6446 H   0  0  0  0  0  0  0  0  0  0  0  0
    0.5366    1.3203    1.3383 H   0  0  0  0  0  0  0  0  0  0  0  0
    1.5783    2.5885    0.6566 H   0  0  0  0  0  0  0  0  0  0  0  0
    3.1556    1.4558    1.8246 H   0  0  0  0  0  0  0  0  0  0  0  0
    2.2689   -0.0778    1.8967 H   0  0  0  0  0  0  0  0  0  0  0  0
  1  2  1  0
  2  3  1  0
  2  4  1  0
  2  5  1  0
  5  6  1  0
  6  7  2  0
  6  8  1  0
  8  9  1  0
  9 10  1  0
 10 11  1  0
 11 12  1  0
 12 13  1  0
 13 14  2  0
 14 15  1  0
 15 16  2  0
 16 17  1  0
 17 18  1  0
 18 19  1  0
 19 20  1  0
 20 21  1  0
 21 22  1  0
 16 23  1  0
 23 24  2  0
 24 25  1  0
 25 26  2  0
 26 27  1  0
 27 28  2  0
 28 29  1  0
 28 30  1  0
 30 31  2  0
 24 32  1  0
 32 33  2  0
 11 34  1  0
 34 35  1  0
 35  8  1  0
 33 12  1  0
 33 15  1  0
 22 17  1  0
 31 25  1  0
  1 36  1  0
  1 37  1  0
  1 38  1  0
  3 39  1  0
  3 40  1  0
  3 41  1  0
  4 42  1  0
  4 43  1  0
  4 44  1  0
  9 45  1  0
  9 46  1  0
 10 47  1  0
 10 48  1  0
 11 49  1  0
 14 50  1  0
 18 51  1  0
 18 52  1  0
 19 53  1  0
 19 54  1  0
 21 55  1  0
 21 56  1  0
 22 57  1  0
 22 58  1  0
 26 59  1  0
 27 60  1  0
 29 61  1  0
 29 62  1  0
 30 63  1  0
 31 64  1  0
 34 65  1  0
 34 66  1  0
 35 67  1  0
 35 68  1  0
M  END
$$$$
