@<TRIPOS>MOLECULE
*****
 68 72 0 0 0
SMALL
GASTEIGER

@<TRIPOS>ATOM
      1 C           7.6398   -1.2994   -1.4204 C.3     1  UNL1       -0.0253
      2 C           7.0977   -0.6306   -0.1558 C.3     1  UNL1        0.1068
      3 C           7.4066   -1.4683    1.0649 C.3     1  UNL1       -0.0253
      4 C           7.7838    0.7266   -0.0801 C.3     1  UNL1       -0.0253
      5 O           5.7062   -0.4857   -0.3555 O.3     1  UNL1       -0.4445
      6 C           4.8322    0.0687    0.5347 C.2     1  UNL1        0.4034
      7 O           5.3025    0.4894    1.6315 O.2     1  UNL1       -0.2262
      8 N           3.4513    0.1595    0.2203 N.am    1  UNL1       -0.2673
      9 C           2.9897   -0.3430   -1.0521 C.3     1  UNL1        0.0197
     10 C           2.0907    0.6994   -1.6516 C.3     1  UNL1       -0.0144
     11 C           0.9645    1.0575   -0.7164 C.3     1  UNL1        0.0578
     12 N          -0.0114   -0.0143   -0.6882 N.ar    1  UNL1       -0.2431
     13 N           0.1390   -1.2942   -0.8990 N.ar    1  UNL1       -0.1768
     14 C          -1.0255   -1.9623   -0.7779 C.ar    1  UNL1        0.0620
     15 C          -1.9839   -1.0317   -0.4667 C.ar    1  UNL1        0.0785
     16 C          -3.3386   -1.1128   -0.2264 C.ar    1  UNL1        0.1361
     17 N          -4.0372   -2.3672   -0.2758 N.pl3   1  UNL1       -0.3101
     18 C          -3.7023   -3.4802    0.5888 C.3     1  UNL1        0.0370
     19 C          -3.6554   -4.7253   -0.2700 C.3     1  UNL1        0.0634
     20 O          -4.9330   -4.9137   -0.8011 O.3     1  UNL1       -0.3767
     21 C          -5.2199   -3.9415   -1.7550 C.3     1  UNL1        0.0634
     22 C          -5.1226   -2.5494   -1.2183 C.3     1  UNL1        0.0370
     23 N          -4.0039    0.0290    0.0603 N.ar    1  UNL1       -0.2118
     24 C          -3.3699    1.2310    0.1141 C.ar    1  UNL1        0.1641
     25 C          -4.1048    2.4455    0.4237 C.ar    1  UNL1        0.0194
     26 C          -3.4172    3.6370    0.4666 C.ar    1  UNL1       -0.0493
     27 C          -4.1126    4.8038    0.7621 C.ar    1  UNL1       -0.0404
     28 C          -5.4686    4.7757    1.0091 C.ar    1  UNL1        0.0246
     29 N          -6.1671    5.9725    1.3094 N.pl3   1  UNL1       -0.3580
     30 C          -6.1488    3.5668    0.9623 C.ar    1  UNL1       -0.0404
     31 C          -5.4592    2.3977    0.6676 C.ar    1  UNL1       -0.0493
     32 N          -2.0530    1.2609   -0.1264 N.ar    1  UNL1       -0.2080
     33 C          -1.3141    0.1821   -0.4179 C.ar    1  UNL1        0.1642
     34 C           1.4078    1.4718    0.6375 C.3     1  UNL1       -0.0144
     35 C           2.5722    0.7533    1.1947 C.3     1  UNL1        0.0197
     36 H           7.5246   -0.5991   -2.2573 H       1  UNL1        0.0268
     37 H           6.9463   -2.1739   -1.5928 H       1  UNL1        0.0268
     38 H           8.6444   -1.7002   -1.2889 H       1  UNL1        0.0268
     39 H           6.6525   -2.2620    1.1303 H       1  UNL1        0.0268
     40 H           8.4432   -1.8522    0.9255 H       1  UNL1        0.0268
     41 H           7.4251   -0.8562    1.9792 H       1  UNL1        0.0268
     42 H           7.0814    1.4829   -0.5160 H       1  UNL1        0.0268
     43 H           7.9737    0.9518    0.9843 H       1  UNL1        0.0268
     44 H           8.7388    0.7222   -0.6706 H       1  UNL1        0.0268
     45 H           3.8602   -0.4522   -1.7505 H       1  UNL1        0.0466
     46 H           2.5192   -1.3351   -0.9623 H       1  UNL1        0.0466
     47 H           2.7137    1.6107   -1.8217 H       1  UNL1        0.0301
     48 H           1.6301    0.3620   -2.6004 H       1  UNL1        0.0301
     49 H           0.4461    1.9394   -1.1866 H       1  UNL1        0.0546
     50 H          -1.1845   -3.0166   -0.8990 H       1  UNL1        0.0856
     51 H          -4.5838   -3.5977    1.2822 H       1  UNL1        0.0487
     52 H          -2.7586   -3.3204    1.1457 H       1  UNL1        0.0487
     53 H          -2.9777   -4.5939   -1.1428 H       1  UNL1        0.0575
     54 H          -3.3688   -5.6236    0.3141 H       1  UNL1        0.0575
     55 H          -4.5933   -4.0888   -2.6769 H       1  UNL1        0.0575
     56 H          -6.2675   -4.1160   -2.0813 H       1  UNL1        0.0575
     57 H          -6.0662   -2.3241   -0.6601 H       1  UNL1        0.0487
     58 H          -4.9993   -1.8614   -2.0885 H       1  UNL1        0.0487
     59 H          -2.3578    3.7221    0.2827 H       1  UNL1        0.0625
     60 H          -3.5883    5.7475    0.8000 H       1  UNL1        0.0636
     61 H          -5.8740    6.8915    0.9346 H       1  UNL1        0.1423
     62 H          -7.0025    5.9455    1.9238 H       1  UNL1        0.1423
     63 H          -7.2124    3.5166    1.1521 H       1  UNL1        0.0636
     64 H          -6.0388    1.4860    0.6446 H       1  UNL1        0.0625
     65 H           0.5366    1.3203    1.3383 H       1  UNL1        0.0301
     66 H           1.5783    2.5885    0.6566 H       1  UNL1        0.0301
     67 H           3.1556    1.4558    1.8246 H       1  UNL1        0.0466
     68 H           2.2689   -0.0778    1.8967 H       1  UNL1        0.0466
@<TRIPOS>BOND
     1     1     2    1
     2     2     3    1
     3     2     4    1
     4     2     5    1
     5     5     6    1
     6     6     7    2
     7     6     8   am
     8     8     9    1
     9     9    10    1
    10    10    11    1
    11    11    12    1
    12    12    13   ar
    13    13    14   ar
    14    14    15   ar
    15    15    16   ar
    16    16    17    1
    17    17    18    1
    18    18    19    1
    19    19    20    1
    20    20    21    1
    21    21    22    1
    22    16    23   ar
    23    23    24   ar
    24    24    25    1
    25    25    26   ar
    26    26    27   ar
    27    27    28   ar
    28    28    29    1
    29    28    30   ar
    30    30    31   ar
    31    24    32   ar
    32    32    33   ar
    33    11    34    1
    34    34    35    1
    35    35     8    1
    36    33    12   ar
    37    33    15   ar
    38    22    17    1
    39    31    25   ar
    40     1    36    1
    41     1    37    1
    42     1    38    1
    43     3    39    1
    44     3    40    1
    45     3    41    1
    46     4    42    1
    47     4    43    1
    48     4    44    1
    49     9    45    1
    50     9    46    1
    51    10    47    1
    52    10    48    1
    53    11    49    1
    54    14    50    1
    55    18    51    1
    56    18    52    1
    57    19    53    1
    58    19    54    1
    59    21    55    1
    60    21    56    1
    61    22    57    1
    62    22    58    1
    63    26    59    1
    64    27    60    1
    65    29    61    1
    66    29    62    1
    67    30    63    1
    68    31    64    1
    69    34    65    1
    70    34    66    1
    71    35    67    1
    72    35    68    1
