@<TRIPOS>MOLECULE
*****
 55 59 0 0 0
SMALL
GASTEIGER

@<TRIPOS>ATOM
      1 N1          5.5053   -4.3016    0.6019 N.3     1  <1>        -0.2035
      2 S1          6.0685   -3.2452   -0.6716 S.O2    1  <1>         0.0559
      3 O1          7.1534   -2.3421   -0.1107 O.2     1  <1>        -0.1533
      4 O2          6.6127   -4.0379   -1.8242 O.2     1  <1>        -0.1533
      5 C1          4.7224   -2.2618   -1.1543 C.ar    1  <1>         0.1051
      6 C2          4.4940   -1.0571   -0.5327 C.ar    1  <1>        -0.0336
      7 C3          3.4246   -0.2824   -0.9204 C.ar    1  <1>        -0.0387
      8 C4          2.5522   -0.6471   -1.9121 C.ar    1  <1>         0.0315
      9 N2          1.4529    0.1401   -2.3167 N.pl3   1  <1>        -0.3116
     10 C5          0.7947    1.0458   -1.4531 C.ar    1  <1>         0.0778
     11 C6          0.8602    2.4127   -1.6756 C.ar    1  <1>         0.0552
     12 N3          0.1077    2.9985   -0.7501 N.ar    1  <1>        -0.2134
     13 C7         -0.1317    4.3875   -0.5738 C.ar    1  <1>         0.1945
     14 N4         -0.6046    5.0622    0.5383 N.ar    1  <1>        -0.2145
     15 C8         -0.7579    6.3060    0.5311 C.ar    1  <1>         0.1568
     16 C9         -1.2675    7.0725    1.7140 C.2     1  <1>         0.3559
     17 O3         -1.4087    8.3060    1.6791 O.2     1  <1>        -0.2434
     18 O4         -1.6043    6.4381    2.9006 O.3     1  <1>        -0.4761
     19 C10        -0.4489    7.0753   -0.6299 C.ar    1  <1>         0.0116
     20 S2          0.0932    5.6931   -1.6868 S.2     1  <1>        -0.0554
     21 N5         -0.4190    2.1000    0.0280 N.ar    1  <1>        -0.1627
     22 C11        -0.0131    0.8514   -0.3793 C.ar    1  <1>         0.1143
     23 C12        -0.4498   -0.4019    0.2010 C.ar    1  <1>         0.0045
     24 C13         0.3262   -1.4375    0.6215 C.ar    1  <1>        -0.0524
     25 C14        -0.2205   -2.6143    1.1520 C.ar    1  <1>        -0.0606
     26 C15        -1.5823   -2.7712    1.2709 C.ar    1  <1>        -0.0540
     27 C16        -2.3839   -1.7437    0.8557 C.ar    1  <1>        -0.0173
     28 C17        -3.8345   -1.8937    0.9768 C.ar    1  <1>        -0.0179
     29 C18        -4.3090   -2.6459    2.0277 C.ar    1  <1>        -0.0540
     30 C19        -5.6754   -2.8075    2.1685 C.ar    1  <1>        -0.0612
     31 C20        -6.5066   -2.2158    1.2606 C.ar    1  <1>        -0.0617
     32 C21        -6.0226   -1.4699    0.2192 C.ar    1  <1>        -0.0612
     33 C22        -4.6450   -1.2980    0.0645 C.ar    1  <1>        -0.0540
     34 C23        -1.8374   -0.5960    0.3374 C.ar    1  <1>        -0.0447
     35 C24         2.8023   -1.8763   -2.5319 C.ar    1  <1>        -0.0387
     36 C25         3.8693   -2.6624   -2.1541 C.ar    1  <1>        -0.0336
     37 H1          4.6516   -4.7815    0.1982 H       1  <1>         0.1442
     38 H2          5.1460   -3.6417    1.3492 H       1  <1>         0.1442
     39 H3          5.1718   -0.7295    0.2678 H       1  <1>         0.0638
     40 H4          3.2716    0.6609   -0.4119 H       1  <1>         0.0637
     41 H5          1.1278    0.0258   -3.3186 H       1  <1>         0.1523
     42 H6          1.4050    2.9334   -2.4400 H       1  <1>         0.0850
     43 H7         -2.1767    6.8670    3.6137 H       1  <1>         0.2955
     44 H8         -0.4990    8.0672   -0.8422 H       1  <1>         0.0718
     45 H9          1.3798   -1.3894    0.5780 H       1  <1>         0.0624
     46 H10         0.4110   -3.4226    1.4784 H       1  <1>         0.0618
     47 H11        -2.0066   -3.6779    1.6787 H       1  <1>         0.0624
     48 H12        -3.6392   -3.1125    2.7466 H       1  <1>         0.0624
     49 H13        -6.0283   -3.4047    3.0047 H       1  <1>         0.0618
     50 H14        -7.5894   -2.3546    1.3873 H       1  <1>         0.0618
     51 H15        -6.7233   -1.0270   -0.4654 H       1  <1>         0.0618
     52 H16        -4.2675   -0.7139   -0.7514 H       1  <1>         0.0624
     53 H17        -2.5116    0.1988    0.0180 H       1  <1>         0.0630
     54 H18         2.1126   -2.1629   -3.3150 H       1  <1>         0.0637
     55 H19         4.0477   -3.6147   -2.6474 H       1  <1>         0.0638
@<TRIPOS>BOND
     1     1     2    1
     2     2     3    2
     3     2     4    2
     4     2     5    1
     5     5     6   ar
     6     6     7   ar
     7     7     8   ar
     8     8     9    1
     9     9    10    1
    10    10    11   ar
    11    11    12   ar
    12    12    13    1
    13    13    14   ar
    14    14    15   ar
    15    15    16    1
    16    16    17    2
    17    16    18    1
    18    15    19   ar
    19    19    20   ar
    20    12    21   ar
    21    21    22   ar
    22    22    23    1
    23    23    24   ar
    24    24    25   ar
    25    25    26   ar
    26    26    27   ar
    27    27    28    1
    28    28    29   ar
    29    29    30   ar
    30    30    31   ar
    31    31    32   ar
    32    32    33   ar
    33    27    34   ar
    34     8    35   ar
    35    35    36   ar
    36    36     5   ar
    37    22    10   ar
    38    34    23   ar
    39    20    13   ar
    40    33    28   ar
    41     1    37    1
    42     1    38    1
    43     6    39    1
    44     7    40    1
    45     9    41    1
    46    11    42    1
    47    18    43    1
    48    19    44    1
    49    24    45    1
    50    25    46    1
    51    26    47    1
    52    29    48    1
    53    30    49    1
    54    31    50    1
    55    32    51    1
    56    33    52    1
    57    34    53    1
    58    35    54    1
    59    36    55    1
