
     RDKit          3D

 55 59  0  0  0  0  0  0  0  0999 V2000
    5.5053   -4.3016    0.6019 N   0  0  0  0  0  0  0  0  0  0  0  0
    6.0685   -3.2452   -0.6716 S   0  0  0  0  0  6  0  0  0  0  0  0
    7.1534   -2.3421   -0.1107 O   0  0  0  0  0  0  0  0  0  0  0  0
    6.6127   -4.0379   -1.8242 O   0  0  0  0  0  0  0  0  0  0  0  0
    4.7224   -2.2618   -1.1543 C   0  0  0  0  0  0  0  0  0  0  0  0
    4.4940   -1.0571   -0.5327 C   0  0  0  0  0  0  0  0  0  0  0  0
    3.4246   -0.2824   -0.9204 C   0  0  0  0  0  0  0  0  0  0  0  0
    2.5522   -0.6471   -1.9121 C   0  0  0  0  0  0  0  0  0  0  0  0
    1.4529    0.1401   -2.3167 N   0  0  0  0  0  0  0  0  0  0  0  0
    0.7947    1.0458   -1.4531 C   0  0  0  0  0  0  0  0  0  0  0  0
    0.8602    2.4127   -1.6756 C   0  0  0  0  0  0  0  0  0  0  0  0
    0.1077    2.9985   -0.7501 N   0  0  0  0  0  0  0  0  0  0  0  0
   -0.1317    4.3875   -0.5738 C   0  0  0  0  0  0  0  0  0  0  0  0
   -0.6046    5.0622    0.5383 N   0  0  0  0  0  0  0  0  0  0  0  0
   -0.7579    6.3060    0.5311 C   0  0  0  0  0  0  0  0  0  0  0  0
   -1.2675    7.0725    1.7140 C   0  0  0  0  0  0  0  0  0  0  0  0
   -1.4087    8.3060    1.6791 O   0  0  0  0  0  0  0  0  0  0  0  0
   -1.6043    6.4381    2.9006 O   0  0  0  0  0  0  0  0  0  0  0  0
   -0.4489    7.0753   -0.6299 C   0  0  0  0  0  0  0  0  0  0  0  0
    0.0932    5.6931   -1.6868 S   0  0  0  0  0  0  0  0  0  0  0  0
   -0.4190    2.1000    0.0280 N   0  0  0  0  0  0  0  0  0  0  0  0
   -0.0131    0.8514   -0.3793 C   0  0  0  0  0  0  0  0  0  0  0  0
   -0.4498   -0.4019    0.2010 C   0  0  0  0  0  0  0  0  0  0  0  0
    0.3262   -1.4375    0.6215 C   0  0  0  0  0  0  0  0  0  0  0  0
   -0.2205   -2.6143    1.1520 C   0  0  0  0  0  0  0  0  0  0  0  0
   -1.5823   -2.7712    1.2709 C   0  0  0  0  0  0  0  0  0  0  0  0
   -2.3839   -1.7437    0.8557 C   0  0  0  0  0  0  0  0  0  0  0  0
   -3.8345   -1.8937    0.9768 C   0  0  0  0  0  0  0  0  0  0  0  0
   -4.3090   -2.6459    2.0277 C   0  0  0  0  0  0  0  0  0  0  0  0
   -5.6754   -2.8075    2.1685 C   0  0  0  0  0  0  0  0  0  0  0  0
   -6.5066   -2.2158    1.2606 C   0  0  0  0  0  0  0  0  0  0  0  0
   -6.0226   -1.4699    0.2192 C   0  0  0  0  0  0  0  0  0  0  0  0
   -4.6450   -1.2980    0.0645 C   0  0  0  0  0  0  0  0  0  0  0  0
   -1.8374   -0.5960    0.3374 C   0  0  0  0  0  0  0  0  0  0  0  0
    2.8023   -1.8763   -2.5319 C   0  0  0  0  0  0  0  0  0  0  0  0
    3.8693   -2.6624   -2.1541 C   0  0  0  0  0  0  0  0  0  0  0  0
    4.6516   -4.7815    0.1982 H   0  0  0  0  0  0  0  0  0  0  0  0
    5.1460   -3.6417    1.3492 H   0  0  0  0  0  0  0  0  0  0  0  0
    5.1718   -0.7295    0.2678 H   0  0  0  0  0  0  0  0  0  0  0  0
    3.2716    0.6609   -0.4119 H   0  0  0  0  0  0  0  0  0  0  0  0
    1.1278    0.0258   -3.3186 H   0  0  0  0  0  0  0  0  0  0  0  0
    1.4050    2.9334   -2.4400 H   0  0  0  0  0  0  0  0  0  0  0  0
   -2.1767    6.8670    3.6137 H   0  0  0  0  0  0  0  0  0  0  0  0
   -0.4990    8.0672   -0.8422 H   0  0  0  0  0  0  0  0  0  0  0  0
    1.3798   -1.3894    0.5780 H   0  0  0  0  0  0  0  0  0  0  0  0
    0.4110   -3.4226    1.4784 H   0  0  0  0  0  0  0  0  0  0  0  0
   -2.0066   -3.6779    1.6787 H   0  0  0  0  0  0  0  0  0  0  0  0
   -3.6392   -3.1125    2.7466 H   0  0  0  0  0  0  0  0  0  0  0  0
   -6.0283   -3.4047    3.0047 H   0  0  0  0  0  0  0  0  0  0  0  0
   -7.5894   -2.3546    1.3873 H   0  0  0  0  0  0  0  0  0  0  0  0
   -6.7233   -1.0270   -0.4654 H   0  0  0  0  0  0  0  0  0  0  0  0
   -4.2675   -0.7139   -0.7514 H   0  0  0  0  0  0  0  0  0  0  0  0
   -2.5116    0.1988    0.0180 H   0  0  0  0  0  0  0  0  0  0  0  0
    2.1126   -2.1629   -3.3150 H   0  0  0  0  0  0  0  0  0  0  0  0
    4.0477   -3.6147   -2.6474 H   0  0  0  0  0  0  0  0  0  0  0  0
  1  2  1  0
  2  3  2  0
  2  4  2  0
  2  5  1  0
  5  6  2  0
  6  7  1  0
  7  8  2  0
  8  9  1  0
  9 10  1  0
 10 11  2  0
 11 12  1  0
 12 13  1  0
 13 14  2  0
 14 15  1  0
 15 16  1  0
 16 17  2  0
 16 18  1  0
 15 19  2  0
 19 20  1  0
 12 21  1  0
 21 22  2  0
 22 23  1  0
 23 24  2  0
 24 25  1  0
 25 26  2  0
 26 27  1  0
 27 28  1  0
 28 29  2  0
 29 30  1  0
 30 31  2  0
 31 32  1  0
 32 33  2  0
 27 34  2  0
  8 35  1  0
 35 36  2  0
 36  5  1  0
 22 10  1  0
 34 23  1  0
 20 13  1  0
 33 28  1  0
  1 37  1  0
  1 38  1  0
  6 39  1  0
  7 40  1  0
  9 41  1  0
 11 42  1  0
 18 43  1  0
 19 44  1  0
 24 45  1  0
 25 46  1  0
 26 47  1  0
 29 48  1  0
 30 49  1  0
 31 50  1  0
 32 51  1  0
 33 52  1  0
 34 53  1  0
 35 54  1  0
 36 55  1  0
M  END
$$$$
