@<TRIPOS>MOLECULE
*****
 56 59 0 0 0
SMALL
GASTEIGER

@<TRIPOS>ATOM
      1 C           5.9520   -1.1609   -1.5272 C.3     1  UNL1       -0.0518
      2 C           5.0347   -0.7921   -0.3865 C.3     1  UNL1        0.0386
      3 C           4.3394   -2.0575    0.0683 C.3     1  UNL1       -0.0518
      4 C           5.8825   -0.2904    0.7587 C.3     1  UNL1       -0.0518
      5 C           4.0585    0.2314   -0.8462 C.2     1  UNL1        0.2187
      6 O           4.1052    0.6497   -2.0415 O.2     1  UNL1       -0.2752
      7 N           3.0696    0.7575    0.0195 N.am    1  UNL1       -0.3092
      8 C           2.1562    1.7468   -0.4912 C.3     1  UNL1        0.0556
      9 C           1.1732    2.2091    0.5097 C.ar    1  UNL1        0.0802
     10 C           1.3427    3.2680    1.3646 C.ar    1  UNL1        0.0529
     11 N           0.2199    3.3443    2.0965 N.ar    1  UNL1       -0.2343
     12 C          -0.6108    2.3644    1.7037 C.ar    1  UNL1        0.1544
     13 C          -1.8801    2.0047    2.1268 C.ar    1  UNL1       -0.0153
     14 C          -2.4988    0.9132    1.5054 C.ar    1  UNL1       -0.0290
     15 C          -1.8775    0.2080    0.5021 C.ar    1  UNL1        0.1103
     16 C          -2.5182   -0.9340   -0.1645 C.ar    1  UNL1        0.0968
     17 C          -3.5905   -0.8424   -1.0303 C.ar    1  UNL1        0.0982
     18 C          -4.3361    0.3356   -1.4856 C.ar    1  UNL1        0.0027
     19 C          -5.2174    0.9688   -0.6464 C.ar    1  UNL1       -0.0498
     20 C          -5.9023    2.0678   -1.0710 C.ar    1  UNL1       -0.0258
     21 C          -5.7104    2.5435   -2.3432 C.ar    1  UNL1        0.1234
     22 F          -6.4078    3.6496   -2.7496 F       1  UNL1       -0.2055
     23 C          -4.8378    1.9473   -3.2292 C.ar    1  UNL1       -0.0258
     24 C          -4.1615    0.8310   -2.7546 C.ar    1  UNL1       -0.0498
     25 N          -3.8341   -2.1374   -1.3992 N.ar    1  UNL1       -0.2351
     26 C          -2.9519   -2.9372   -0.7819 C.ar    1  UNL1        0.0973
     27 N          -2.1219   -2.2154   -0.0077 N.ar    1  UNL1       -0.3229
     28 C          -1.0404   -2.7247    0.8136 C.3     1  UNL1        0.0852
     29 C          -1.5426   -3.0720    2.2093 C.3     1  UNL1        0.2569
     30 F          -2.0649   -1.9545    2.8256 F       1  UNL1       -0.2073
     31 F          -0.5480   -3.5589    3.0043 F       1  UNL1       -0.2073
     32 N          -0.6457    0.6115    0.1409 N.ar    1  UNL1       -0.1632
     33 N          -0.0334    1.6547    0.7226 N.ar    1  UNL1       -0.2151
     34 H           5.4700   -1.9248   -2.1957 H       1  UNL1        0.0239
     35 H           6.2450   -0.2847   -2.1329 H       1  UNL1        0.0239
     36 H           6.8851   -1.5763   -1.0716 H       1  UNL1        0.0239
     37 H           3.8991   -2.6098   -0.7967 H       1  UNL1        0.0239
     38 H           3.5287   -1.8769    0.7818 H       1  UNL1        0.0239
     39 H           5.1063   -2.6941    0.5562 H       1  UNL1        0.0239
     40 H           6.2349    0.7287    0.4738 H       1  UNL1        0.0239
     41 H           5.3226   -0.2496    1.7106 H       1  UNL1        0.0239
     42 H           6.7707   -0.9587    0.8071 H       1  UNL1        0.0239
     43 H           3.0546    0.3957    0.9950 H       1  UNL1        0.1491
     44 H           2.7083    2.6251   -0.9141 H       1  UNL1        0.0527
     45 H           1.5693    1.3437   -1.3578 H       1  UNL1        0.0527
     46 H           2.2007    3.9438    1.4666 H       1  UNL1        0.0849
     47 H          -2.3889    2.5428    2.9144 H       1  UNL1        0.0655
     48 H          -3.4813    0.5928    1.8029 H       1  UNL1        0.0641
     49 H          -5.3669    0.5711    0.3775 H       1  UNL1        0.0625
     50 H          -6.5861    2.5294   -0.3621 H       1  UNL1        0.0646
     51 H          -4.6899    2.3282   -4.2343 H       1  UNL1        0.0646
     52 H          -3.4757    0.3730   -3.4679 H       1  UNL1        0.0625
     53 H          -2.8574   -4.0282   -0.8475 H       1  UNL1        0.1029
     54 H          -0.5625   -3.6196    0.3667 H       1  UNL1        0.0548
     55 H          -0.2670   -1.9245    0.9622 H       1  UNL1        0.0548
     56 H          -2.3216   -3.8563    2.0907 H       1  UNL1        0.1037
@<TRIPOS>BOND
     1     1     2    1
     2     2     3    1
     3     2     4    1
     4     2     5    1
     5     5     6    2
     6     5     7   am
     7     7     8    1
     8     8     9    1
     9     9    10   ar
    10    10    11   ar
    11    11    12   ar
    12    12    13   ar
    13    13    14   ar
    14    14    15   ar
    15    15    16    1
    16    16    17   ar
    17    17    18    1
    18    18    19   ar
    19    19    20   ar
    20    20    21   ar
    21    21    22    1
    22    21    23   ar
    23    23    24   ar
    24    17    25   ar
    25    25    26   ar
    26    26    27   ar
    27    27    28    1
    28    28    29    1
    29    29    30    1
    30    29    31    1
    31    15    32   ar
    32    32    33   ar
    33    33     9   ar
    34    33    12   ar
    35    27    16   ar
    36    24    18   ar
    37     1    34    1
    38     1    35    1
    39     1    36    1
    40     3    37    1
    41     3    38    1
    42     3    39    1
    43     4    40    1
    44     4    41    1
    45     4    42    1
    46     7    43    1
    47     8    44    1
    48     8    45    1
    49    10    46    1
    50    13    47    1
    51    14    48    1
    52    19    49    1
    53    20    50    1
    54    23    51    1
    55    24    52    1
    56    26    53    1
    57    28    54    1
    58    28    55    1
    59    29    56    1
