@<TRIPOS>MOLECULE
*****
 30 30 0 0 0
SMALL
GASTEIGER

@<TRIPOS>ATOM
      1 C          -3.7396    1.1583    0.4423 C.3     1  UNL1       -0.0544
      2 C          -3.1756    0.4581   -0.7380 C.3     1  UNL1        0.0303
      3 C          -3.8583   -0.8604   -1.0004 C.3     1  UNL1       -0.0544
      4 C          -1.6991    0.3472   -0.7523 C.2     1  UNL1        0.2198
      5 O          -0.8825    0.7918   -1.6061 O.2     1  UNL1       -0.2752
      6 N          -1.0445   -0.3499    0.3246 N.am    1  UNL1       -0.2853
      7 C           0.3683   -0.3797    0.1831 C.ar    1  UNL1        0.0343
      8 C           1.2136    0.5764    0.6860 C.ar    1  UNL1       -0.0223
      9 C           2.5763    0.4721    0.5040 C.ar    1  UNL1        0.1333
     10 C           3.0114   -0.6317   -0.1999 C.ar    1  UNL1        0.2849
     11 C           2.1888   -1.6183   -0.7230 C.ar    1  UNL1        0.0179
     12 C           0.8322   -1.4730   -0.5172 C.ar    1  UNL1       -0.0340
     13 N           4.4049   -0.8231   -0.4371 N.pl3   1  UNL1        0.0802
     14 O           4.8877   -2.1127   -0.5126 O.co2   1  UNL1       -0.5760
     15 O           5.4225   -0.1325   -0.6148 O.2     1  UNL1        0.0415
     16 C           3.5315    1.4843    1.0306 C.3     1  UNL1        0.4237
     17 F           4.4385    0.9330    1.9171 F       1  UNL1       -0.1656
     18 F           2.7861    2.4676    1.6535 F       1  UNL1       -0.1656
     19 F           4.1948    2.1340   -0.0148 F       1  UNL1       -0.1656
     20 H          -4.2556    2.1280    0.1960 H       1  UNL1        0.0237
     21 H          -3.0053    1.4150    1.2272 H       1  UNL1        0.0237
     22 H          -4.5048    0.5238    0.9441 H       1  UNL1        0.0237
     23 H          -3.4242    1.0987   -1.6342 H       1  UNL1        0.0389
     24 H          -3.8671   -1.1236   -2.0805 H       1  UNL1        0.0237
     25 H          -3.3894   -1.6782   -0.4074 H       1  UNL1        0.0237
     26 H          -4.9312   -0.7502   -0.7011 H       1  UNL1        0.0237
     27 H          -1.6314   -0.7565    1.0831 H       1  UNL1        0.1548
     28 H           0.7920    1.4227    1.2340 H       1  UNL1        0.0644
     29 H           2.5847   -2.4651   -1.2676 H       1  UNL1        0.0686
     30 H           0.1753   -2.2558   -0.9329 H       1  UNL1        0.0638
@<TRIPOS>UNITY_ATOM_ATTR
13 1
charge 1
14 1
charge -1
@<TRIPOS>BOND
     1     1     2    1
     2     2     3    1
     3     2     4    1
     4     4     5    2
     5     4     6   am
     6     6     7    1
     7     7     8   ar
     8     8     9   ar
     9     9    10   ar
    10    10    11   ar
    11    11    12   ar
    12    10    13    1
    13    13    14    1
    14    13    15    2
    15     9    16    1
    16    16    17    1
    17    16    18    1
    18    16    19    1
    19    12     7   ar
    20     1    20    1
    21     1    21    1
    22     1    22    1
    23     2    23    1
    24     3    24    1
    25     3    25    1
    26     3    26    1
    27     6    27    1
    28     8    28    1
    29    11    29    1
    30    12    30    1
