@<TRIPOS>MOLECULE
*****
 125 128 0 0 0
SMALL
GASTEIGER

@<TRIPOS>ATOM
      1 C           9.8425    0.6939    0.1758 C.2     1  UNL1       -0.0678
      2 C           9.3159   -0.6898    0.4535 C.3     1  UNL1       -0.0063
      3 C           8.6946   -1.2002   -0.8131 C.3     1  UNL1        0.0710
      4 O           8.2046   -2.4940   -0.5711 O.3     1  UNL1       -0.3788
      5 C           8.8793   -3.4281   -1.3494 C.3     1  UNL1        0.0368
      6 C           7.5351   -0.3812   -1.3165 C.3     1  UNL1        0.0411
      7 C           7.0692   -1.0214   -2.6284 C.3     1  UNL1       -0.0533
      8 C           6.3641   -0.4081   -0.3601 C.2     1  UNL1        0.1386
      9 O           6.5993   -1.2214    0.5128 O.2     1  UNL1       -0.2970
     10 C           5.2592    0.5452   -0.7314 C.3     1  UNL1        0.0065
     11 C           4.0920    0.3597    0.2053 C.3     1  UNL1       -0.0414
     12 C           3.4989   -1.0157    0.1078 C.3     1  UNL1       -0.0170
     13 C           2.9885   -1.2721   -1.2702 C.3     1  UNL1       -0.0601
     14 C           2.6576   -1.4466    1.2437 C.3     1  UNL1        0.0643
     15 C           1.4595   -0.6927    1.6118 C.3     1  UNL1        0.0112
     16 C           0.3424   -0.5206    0.6627 C.3     1  UNL1        0.1080
     17 O          -0.6629    0.2169    1.3259 O.3     1  UNL1       -0.4609
     18 C          -1.2178    1.4131    1.0397 C.2     1  UNL1        0.3098
     19 O          -0.8925    2.1222    0.0409 O.2     1  UNL1       -0.2507
     20 C          -2.2186    1.6630    2.1041 C.3     1  UNL1        0.0710
     21 C          -2.9386    2.9536    2.0323 C.3     1  UNL1        0.0676
     22 O          -1.9801    3.9928    2.1236 O.3     1  UNL1       -0.3912
     23 C          -3.6550    3.1477    0.7540 C.3     1  UNL1        0.0002
     24 C          -4.6637    2.0962    0.3821 C.3     1  UNL1        0.0643
     25 O          -4.1572    0.8517    0.1403 O.3     1  UNL1       -0.3913
     26 C          -5.5321    2.6526   -0.7127 C.3     1  UNL1        0.0323
     27 C          -6.5112    1.6796   -1.2238 C.2     1  UNL1        0.1414
     28 O          -6.3942    0.5383   -0.7877 O.2     1  UNL1       -0.2969
     29 C          -7.5743    2.0405   -2.2034 C.3     1  UNL1        0.0466
     30 C          -7.0615    2.7415   -3.4263 C.3     1  UNL1       -0.0529
     31 C          -8.7491    2.7297   -1.5461 C.3     1  UNL1        0.1123
     32 O          -8.3052    3.8677   -0.9280 O.3     1  UNL1       -0.3729
     33 C          -8.8787    5.0482   -1.3440 C.3     1  UNL1        0.0373
     34 C          -9.4079    1.7506   -0.6190 C.ar    1  UNL1        0.1091
     35 C         -10.3274    1.8321    0.4305 C.ar    1  UNL1        0.1183
     36 O         -10.5133    0.5789    0.8578 O.2     1  UNL1       -0.4420
     37 C          -9.7681   -0.2200    0.1316 C.ar    1  UNL1        0.2494
     38 N          -9.0622    0.4406   -0.7977 N.ar    1  UNL1       -0.2099
     39 C          -9.6756   -1.6622    0.2701 C.ar    1  UNL1        0.1641
     40 C         -10.4533   -2.7639    0.5415 C.ar    1  UNL1        0.1251
     41 O          -9.6624   -3.8279    0.4994 O.2     1  UNL1       -0.4416
     42 C          -8.4394   -3.4434    0.2176 C.ar    1  UNL1        0.2498
     43 N          -8.4010   -2.1102    0.0675 N.ar    1  UNL1       -0.2028
     44 C          -7.2332   -4.2102    0.0610 C.ar    1  UNL1        0.1640
     45 C          -6.9134   -5.3934   -0.5453 C.ar    1  UNL1        0.1250
     46 O          -5.6113   -5.6185   -0.3661 O.2     1  UNL1       -0.4433
     47 C          -5.1365   -4.6123    0.3269 C.ar    1  UNL1        0.2202
     48 N          -6.1268   -3.7174    0.6078 N.ar    1  UNL1       -0.2047
     49 C          -3.7498   -4.3985    0.7786 C.2     1  UNL1       -0.0036
     50 C          -2.6202   -3.8965    0.2307 C.2     1  UNL1       -0.0790
     51 C          -1.4299   -3.8848    1.0989 C.3     1  UNL1       -0.0339
     52 C          -0.8381   -2.5663    1.4158 C.3     1  UNL1       -0.0437
     53 C          -0.3022   -1.8244    0.2264 C.3     1  UNL1       -0.0063
     54 C          -1.4675   -1.4485   -0.6625 C.3     1  UNL1       -0.0590
     55 O           3.5125   -1.4092    2.3882 O.3     1  UNL1       -0.3794
     56 C           3.7352   -2.7155    2.8263 C.3     1  UNL1        0.0368
     57 C           9.6075    1.9174    0.6732 C.2     1  UNL1       -0.0101
     58 N          10.3729    2.9633    0.0751 N.pl3   1  UNL1       -0.3168
     59 C          11.8122    2.7396    0.1022 C.3     1  UNL1        0.0022
     60 C           9.6774    4.1135   -0.4855 C.3     1  UNL1        0.1098
     61 O           8.9469    4.7545    0.5090 O.3     1  UNL1       -0.3770
     62 H          10.5702    0.5518   -0.6249 H       1  UNL1        0.0585
     63 H          10.1581   -1.3734    0.7169 H       1  UNL1        0.0333
     64 H           8.6200   -0.6635    1.2772 H       1  UNL1        0.0333
     65 H           9.4973   -1.2192   -1.5733 H       1  UNL1        0.0606
     66 H           8.7828   -3.2530   -2.4271 H       1  UNL1        0.0524
     67 H           9.9561   -3.4654   -1.0674 H       1  UNL1        0.0524
     68 H           8.4640   -4.4300   -1.0884 H       1  UNL1        0.0524
     69 H           7.8504    0.6472   -1.5134 H       1  UNL1        0.0400
     70 H           6.7180   -2.0501   -2.3770 H       1  UNL1        0.0237
     71 H           7.9820   -1.1478   -3.2521 H       1  UNL1        0.0237
     72 H           6.3271   -0.3870   -3.1080 H       1  UNL1        0.0237
     73 H           5.6116    1.5905   -0.6646 H       1  UNL1        0.0342
     74 H           4.9547    0.3917   -1.7896 H       1  UNL1        0.0342
     75 H           4.4613    0.5947    1.2229 H       1  UNL1        0.0273
     76 H           3.2986    1.0852   -0.1144 H       1  UNL1        0.0273
     77 H           4.4250   -1.7089    0.1793 H       1  UNL1        0.0323
     78 H           2.4360   -0.3940   -1.6657 H       1  UNL1        0.0233
     79 H           3.8970   -1.3330   -1.9528 H       1  UNL1        0.0233
     80 H           2.4984   -2.2374   -1.4013 H       1  UNL1        0.0233
     81 H           2.4876   -2.5508    1.1232 H       1  UNL1        0.0599
     82 H           1.8081    0.3639    1.8725 H       1  UNL1        0.0326
     83 H           1.0672   -1.0421    2.6162 H       1  UNL1        0.0326
     84 H           0.6305    0.0631   -0.2110 H       1  UNL1        0.0737
     85 H          -2.9665    0.8233    2.1444 H       1  UNL1        0.0403
     86 H          -1.7172    1.6418    3.1150 H       1  UNL1        0.0403
     87 H          -3.6000    3.0183    2.9280 H       1  UNL1        0.0599
     88 H          -1.7544    4.3303    1.2064 H       1  UNL1        0.2098
     89 H          -4.1818    4.1532    0.7625 H       1  UNL1        0.0315
     90 H          -2.9237    3.2562   -0.0791 H       1  UNL1        0.0315
     91 H          -5.2881    1.9738    1.3353 H       1  UNL1        0.0598
     92 H          -4.6193    0.1040    0.6175 H       1  UNL1        0.2098
     93 H          -6.0162    3.5912   -0.3468 H       1  UNL1        0.0367
     94 H          -4.8833    2.9840   -1.5488 H       1  UNL1        0.0367
     95 H          -7.9241    1.0230   -2.5963 H       1  UNL1        0.0404
     96 H          -6.1161    2.2787   -3.7759 H       1  UNL1        0.0237
     97 H          -7.7850    2.6654   -4.2717 H       1  UNL1        0.0237
     98 H          -6.8561    3.8212   -3.2892 H       1  UNL1        0.0237
     99 H          -9.5061    3.0105   -2.3084 H       1  UNL1        0.0669
    100 H          -9.9794    5.1110   -1.2039 H       1  UNL1        0.0524
    101 H          -8.3661    5.8542   -0.7359 H       1  UNL1        0.0524
    102 H          -8.5713    5.2357   -2.3935 H       1  UNL1        0.0524
    103 H         -10.7620    2.7465    0.7776 H       1  UNL1        0.1050
    104 H         -11.4871   -2.5312    0.7210 H       1  UNL1        0.1054
    105 H          -7.6880   -5.9751   -1.0644 H       1  UNL1        0.1054
    106 H          -3.7846   -4.7802    1.8200 H       1  UNL1        0.0668
    107 H          -2.9785   -3.6485   -0.7536 H       1  UNL1        0.0574
    108 H          -1.6764   -4.3838    2.0815 H       1  UNL1        0.0308
    109 H          -0.6387   -4.5552    0.6740 H       1  UNL1        0.0308
    110 H          -0.1082   -2.6233    2.2504 H       1  UNL1        0.0272
    111 H          -1.6687   -1.9254    1.8242 H       1  UNL1        0.0272
    112 H           0.3678   -2.4530   -0.4005 H       1  UNL1        0.0334
    113 H          -1.4816   -2.0461   -1.6004 H       1  UNL1        0.0234
    114 H          -2.3824   -1.4648   -0.0751 H       1  UNL1        0.0234
    115 H          -1.3246   -0.3807   -0.9861 H       1  UNL1        0.0234
    116 H           2.7717   -3.1612    3.0879 H       1  UNL1        0.0524
    117 H           4.3366   -2.6317    3.7492 H       1  UNL1        0.0524
    118 H           4.3254   -3.3106    2.1162 H       1  UNL1        0.0524
    119 H           8.8474    1.7822    1.4503 H       1  UNL1        0.0777
    120 H          12.1612    2.3084    1.0505 H       1  UNL1        0.0428
    121 H          12.3631    3.6884   -0.1325 H       1  UNL1        0.0428
    122 H          12.0539    2.0058   -0.6964 H       1  UNL1        0.0428
    123 H           8.9673    3.8189   -1.3018 H       1  UNL1        0.0768
    124 H          10.4039    4.8163   -0.9690 H       1  UNL1        0.0768
    125 H           8.0001    4.8666    0.2509 H       1  UNL1        0.2115
@<TRIPOS>BOND
     1     1     2    1
     2     2     3    1
     3     3     4    1
     4     4     5    1
     5     3     6    1
     6     6     7    1
     7     6     8    1
     8     8     9    2
     9     8    10    1
    10    10    11    1
    11    11    12    1
    12    12    13    1
    13    12    14    1
    14    14    15    1
    15    15    16    1
    16    16    17    1
    17    17    18    1
    18    18    19    2
    19    18    20    1
    20    20    21    1
    21    21    22    1
    22    21    23    1
    23    23    24    1
    24    24    25    1
    25    24    26    1
    26    26    27    1
    27    27    28    2
    28    27    29    1
    29    29    30    1
    30    29    31    1
    31    31    32    1
    32    32    33    1
    33    31    34    1
    34    34    35   ar
    35    35    36   ar
    36    36    37   ar
    37    37    38   ar
    38    37    39    1
    39    39    40   ar
    40    40    41   ar
    41    41    42   ar
    42    42    43   ar
    43    42    44    1
    44    44    45   ar
    45    45    46   ar
    46    46    47   ar
    47    47    48   ar
    48    47    49    1
    49    49    50    2
    50    50    51    1
    51    51    52    1
    52    52    53    1
    53    53    54    1
    54    14    55    1
    55    55    56    1
    56     1    57    2
    57    57    58    1
    58    58    59    1
    59    58    60    1
    60    60    61    1
    61    53    16    1
    62    38    34   ar
    63    43    39   ar
    64    48    44   ar
    65     1    62    1
    66     2    63    1
    67     2    64    1
    68     3    65    1
    69     5    66    1
    70     5    67    1
    71     5    68    1
    72     6    69    1
    73     7    70    1
    74     7    71    1
    75     7    72    1
    76    10    73    1
    77    10    74    1
    78    11    75    1
    79    11    76    1
    80    12    77    1
    81    13    78    1
    82    13    79    1
    83    13    80    1
    84    14    81    1
    85    15    82    1
    86    15    83    1
    87    16    84    1
    88    20    85    1
    89    20    86    1
    90    21    87    1
    91    22    88    1
    92    23    89    1
    93    23    90    1
    94    24    91    1
    95    25    92    1
    96    26    93    1
    97    26    94    1
    98    29    95    1
    99    30    96    1
   100    30    97    1
   101    30    98    1
   102    31    99    1
   103    33   100    1
   104    33   101    1
   105    33   102    1
   106    35   103    1
   107    40   104    1
   108    45   105    1
   109    49   106    1
   110    50   107    1
   111    51   108    1
   112    51   109    1
   113    52   110    1
   114    52   111    1
   115    53   112    1
   116    54   113    1
   117    54   114    1
   118    54   115    1
   119    56   116    1
   120    56   117    1
   121    56   118    1
   122    57   119    1
   123    59   120    1
   124    59   121    1
   125    59   122    1
   126    60   123    1
   127    60   124    1
   128    61   125    1
