@<TRIPOS>MOLECULE
*****
 56 60 0 0 0
SMALL
GASTEIGER

@<TRIPOS>ATOM
      1 N          -6.7952    3.9734    0.2540 N.pl3   1  UNL1       -0.3134
      2 C          -6.1986    2.7298   -0.1684 C.2     1  UNL1        0.2764
      3 N          -6.1835    1.7907    0.7223 N.2     1  UNL1       -0.2194
      4 C          -5.6467    0.4919    0.5108 C.3     1  UNL1        0.1603
      5 C          -4.5784    0.0995    1.4578 C.ar    1  UNL1        0.0228
      6 C          -3.2720   -0.0461    0.9334 C.ar    1  UNL1       -0.0321
      7 C          -2.1903   -0.3451    1.7376 C.ar    1  UNL1        0.0342
      8 N          -0.9043   -0.5031    1.2175 N.am    1  UNL1       -0.2802
      9 C          -0.4624   -0.7019   -0.0897 C.2     1  UNL1        0.2681
     10 O          -1.2927   -0.7438   -1.0116 O.2     1  UNL1       -0.2681
     11 C           0.9787   -0.8597   -0.3461 C.ar    1  UNL1        0.1437
     12 C           1.4858   -0.9240   -1.6901 C.ar    1  UNL1        0.0584
     13 N           2.8482   -1.0291   -1.8426 N.ar    1  UNL1       -0.2561
     14 C           3.7049   -1.0731   -0.8250 C.ar    1  UNL1        0.0602
     15 C           5.1677   -1.0782   -0.8472 C.3     1  UNL1        0.0019
     16 C           5.6788    0.3567   -0.6996 C.3     1  UNL1        0.0146
     17 C           7.1685    0.3148   -0.7117 C.1     1  UNL1       -0.1016
     18 C           8.3525    0.2901   -0.7104 C.1     1  UNL1       -0.0988
     19 C           9.9007    0.2589   -0.6814 C.3     1  UNL1        0.0207
     20 C          10.4987   -1.0091   -1.3380 C.3     1  UNL1       -0.0382
     21 C          10.3206   -0.9300    0.1147 C.3     1  UNL1       -0.0382
     22 C           3.1938   -1.0114    0.5541 C.ar    1  UNL1        0.0497
     23 N           1.9026   -0.9163    0.5058 N.ar    1  UNL1       -0.2470
     24 C          -2.4447   -0.4918    3.0589 C.ar    1  UNL1       -0.0377
     25 C          -3.6448   -0.3779    3.6710 C.ar    1  UNL1       -0.0243
     26 C          -4.7489   -0.0624    2.7959 C.ar    1  UNL1        0.1292
     27 F          -5.9247    0.0790    3.3897 F       1  UNL1       -0.2051
     28 C          -6.8737   -0.4579    0.6611 C.3     1  UNL1        0.2686
     29 F          -7.5388   -0.3838    1.8292 F       1  UNL1       -0.2062
     30 F          -6.4075   -1.7594    0.4081 F       1  UNL1       -0.2062
     31 C          -5.2050    0.1916   -0.9036 C.3     1  UNL1        0.0344
     32 C          -6.2571    0.1089   -1.9860 C.3     1  UNL1       -0.0064
     33 C          -5.2088    1.2615   -1.8707 C.3     1  UNL1        0.1091
     34 O          -5.6762    2.5124   -1.4018 O.2     1  UNL1       -0.4622
     35 H          -6.3224    4.8869    0.1834 H       1  UNL1        0.1466
     36 H          -7.7695    3.8734    0.6560 H       1  UNL1        0.1466
     37 H          -3.1384    0.1335   -0.1163 H       1  UNL1        0.0640
     38 H          -0.0924   -0.4514    1.9368 H       1  UNL1        0.1552
     39 H           0.8009   -0.8867   -2.4885 H       1  UNL1        0.0853
     40 H           5.5902   -1.7198   -0.0567 H       1  UNL1        0.0338
     41 H           5.5211   -1.3888   -1.8709 H       1  UNL1        0.0338
     42 H           5.3679    0.7120    0.3104 H       1  UNL1        0.0401
     43 H           5.3486    1.0050   -1.5076 H       1  UNL1        0.0401
     44 H          10.4090    1.1773   -0.8073 H       1  UNL1        0.0433
     45 H           9.8458   -1.6301   -1.9758 H       1  UNL1        0.0277
     46 H          11.5237   -0.9475   -1.7735 H       1  UNL1        0.0277
     47 H           9.4739   -1.5748    0.5148 H       1  UNL1        0.0277
     48 H          11.1842   -0.8865    0.7665 H       1  UNL1        0.0277
     49 H           3.8724   -1.0450    1.3662 H       1  UNL1        0.0848
     50 H          -1.5586   -0.7362    3.6789 H       1  UNL1        0.0637
     51 H          -3.8241   -0.5125    4.7112 H       1  UNL1        0.0647
     52 H          -7.5887   -0.2413   -0.1447 H       1  UNL1        0.1047
     53 H          -4.5123   -0.6878   -0.9729 H       1  UNL1        0.0366
     54 H          -7.2818    0.4916   -1.8676 H       1  UNL1        0.0306
     55 H          -6.1264   -0.6105   -2.8199 H       1  UNL1        0.0306
     56 H          -4.4708    1.2841   -2.6733 H       1  UNL1        0.0737
@<TRIPOS>BOND
     1     1     2    1
     2     2     3    2
     3     3     4    1
     4     4     5    1
     5     5     6   ar
     6     6     7   ar
     7     7     8    1
     8     8     9   am
     9     9    10    2
    10     9    11    1
    11    11    12   ar
    12    12    13   ar
    13    13    14   ar
    14    14    15    1
    15    15    16    1
    16    16    17    1
    17    17    18    3
    18    18    19    1
    19    19    20    1
    20    20    21    1
    21    14    22   ar
    22    22    23   ar
    23     7    24   ar
    24    24    25   ar
    25    25    26   ar
    26    26    27    1
    27     4    28    1
    28    28    29    1
    29    28    30    1
    30     4    31    1
    31    31    32    1
    32    32    33    1
    33    33    34    1
    34    34     2    1
    35    26     5   ar
    36    33    31    1
    37    23    11   ar
    38    21    19    1
    39     1    35    1
    40     1    36    1
    41     6    37    1
    42     8    38    1
    43    12    39    1
    44    15    40    1
    45    15    41    1
    46    16    42    1
    47    16    43    1
    48    19    44    1
    49    20    45    1
    50    20    46    1
    51    21    47    1
    52    21    48    1
    53    22    49    1
    54    24    50    1
    55    25    51    1
    56    28    52    1
    57    31    53    1
    58    32    54    1
    59    32    55    1
    60    33    56    1
