
     RDKit          3D

 56 60  0  0  0  0  0  0  0  0999 V2000
   -6.7952    3.9734    0.2540 N   0  0  0  0  0  0  0  0  0  0  0  0
   -6.1986    2.7298   -0.1684 C   0  0  0  0  0  0  0  0  0  0  0  0
   -6.1835    1.7907    0.7223 N   0  0  0  0  0  0  0  0  0  0  0  0
   -5.6467    0.4919    0.5108 C   0  0  1  0  0  0  0  0  0  0  0  0
   -4.5784    0.0995    1.4578 C   0  0  0  0  0  0  0  0  0  0  0  0
   -3.2720   -0.0461    0.9334 C   0  0  0  0  0  0  0  0  0  0  0  0
   -2.1903   -0.3451    1.7376 C   0  0  0  0  0  0  0  0  0  0  0  0
   -0.9043   -0.5031    1.2175 N   0  0  0  0  0  0  0  0  0  0  0  0
   -0.4624   -0.7019   -0.0897 C   0  0  0  0  0  0  0  0  0  0  0  0
   -1.2927   -0.7438   -1.0116 O   0  0  0  0  0  0  0  0  0  0  0  0
    0.9787   -0.8597   -0.3461 C   0  0  0  0  0  0  0  0  0  0  0  0
    1.4858   -0.9240   -1.6901 C   0  0  0  0  0  0  0  0  0  0  0  0
    2.8482   -1.0291   -1.8426 N   0  0  0  0  0  0  0  0  0  0  0  0
    3.7049   -1.0731   -0.8250 C   0  0  0  0  0  0  0  0  0  0  0  0
    5.1677   -1.0782   -0.8472 C   0  0  0  0  0  0  0  0  0  0  0  0
    5.6788    0.3567   -0.6996 C   0  0  0  0  0  0  0  0  0  0  0  0
    7.1685    0.3148   -0.7117 C   0  0  0  0  0  0  0  0  0  0  0  0
    8.3525    0.2901   -0.7104 C   0  0  0  0  0  0  0  0  0  0  0  0
    9.9007    0.2589   -0.6814 C   0  0  0  0  0  0  0  0  0  0  0  0
   10.4987   -1.0091   -1.3380 C   0  0  0  0  0  0  0  0  0  0  0  0
   10.3206   -0.9300    0.1147 C   0  0  0  0  0  0  0  0  0  0  0  0
    3.1938   -1.0114    0.5541 C   0  0  0  0  0  0  0  0  0  0  0  0
    1.9026   -0.9163    0.5058 N   0  0  0  0  0  0  0  0  0  0  0  0
   -2.4447   -0.4918    3.0589 C   0  0  0  0  0  0  0  0  0  0  0  0
   -3.6448   -0.3779    3.6710 C   0  0  0  0  0  0  0  0  0  0  0  0
   -4.7489   -0.0624    2.7959 C   0  0  0  0  0  0  0  0  0  0  0  0
   -5.9247    0.0790    3.3897 F   0  0  0  0  0  0  0  0  0  0  0  0
   -6.8737   -0.4579    0.6611 C   0  0  0  0  0  0  0  0  0  0  0  0
   -7.5388   -0.3838    1.8292 F   0  0  0  0  0  0  0  0  0  0  0  0
   -6.4075   -1.7594    0.4081 F   0  0  0  0  0  0  0  0  0  0  0  0
   -5.2050    0.1916   -0.9036 C   0  0  1  0  0  0  0  0  0  0  0  0
   -6.2571    0.1089   -1.9860 C   0  0  0  0  0  0  0  0  0  0  0  0
   -5.2088    1.2615   -1.8707 C   0  0  1  0  0  0  0  0  0  0  0  0
   -5.6762    2.5124   -1.4018 O   0  0  0  0  0  0  0  0  0  0  0  0
   -6.3224    4.8869    0.1834 H   0  0  0  0  0  0  0  0  0  0  0  0
   -7.7695    3.8734    0.6560 H   0  0  0  0  0  0  0  0  0  0  0  0
   -3.1384    0.1335   -0.1163 H   0  0  0  0  0  0  0  0  0  0  0  0
   -0.0924   -0.4514    1.9368 H   0  0  0  0  0  0  0  0  0  0  0  0
    0.8009   -0.8867   -2.4885 H   0  0  0  0  0  0  0  0  0  0  0  0
    5.5902   -1.7198   -0.0567 H   0  0  0  0  0  0  0  0  0  0  0  0
    5.5211   -1.3888   -1.8709 H   0  0  0  0  0  0  0  0  0  0  0  0
    5.3679    0.7120    0.3104 H   0  0  0  0  0  0  0  0  0  0  0  0
    5.3486    1.0050   -1.5076 H   0  0  0  0  0  0  0  0  0  0  0  0
   10.4090    1.1773   -0.8073 H   0  0  0  0  0  0  0  0  0  0  0  0
    9.8458   -1.6301   -1.9758 H   0  0  0  0  0  0  0  0  0  0  0  0
   11.5237   -0.9475   -1.7735 H   0  0  0  0  0  0  0  0  0  0  0  0
    9.4739   -1.5748    0.5148 H   0  0  0  0  0  0  0  0  0  0  0  0
   11.1842   -0.8865    0.7665 H   0  0  0  0  0  0  0  0  0  0  0  0
    3.8724   -1.0450    1.3662 H   0  0  0  0  0  0  0  0  0  0  0  0
   -1.5586   -0.7362    3.6789 H   0  0  0  0  0  0  0  0  0  0  0  0
   -3.8241   -0.5125    4.7112 H   0  0  0  0  0  0  0  0  0  0  0  0
   -7.5887   -0.2413   -0.1447 H   0  0  0  0  0  0  0  0  0  0  0  0
   -4.5123   -0.6878   -0.9729 H   0  0  0  0  0  0  0  0  0  0  0  0
   -7.2818    0.4916   -1.8676 H   0  0  0  0  0  0  0  0  0  0  0  0
   -6.1264   -0.6105   -2.8199 H   0  0  0  0  0  0  0  0  0  0  0  0
   -4.4708    1.2841   -2.6733 H   0  0  0  0  0  0  0  0  0  0  0  0
  1  2  1  0
  2  3  2  0
  3  4  1  0
  4  5  1  0
  5  6  2  0
  6  7  1  0
  7  8  1  0
  8  9  1  0
  9 10  2  0
  9 11  1  0
 11 12  2  0
 12 13  1  0
 13 14  2  0
 14 15  1  0
 15 16  1  0
 16 17  1  0
 17 18  3  0
 18 19  1  0
 19 20  1  0
 20 21  1  0
 14 22  1  0
 22 23  2  0
  7 24  2  0
 24 25  1  0
 25 26  2  0
 26 27  1  0
  4 28  1  1
 28 29  1  0
 28 30  1  0
  4 31  1  0
 31 32  1  0
 32 33  1  0
 33 34  1  0
 34  2  1  0
 26  5  1  0
 33 31  1  0
 23 11  1  0
 21 19  1  0
  1 35  1  0
  1 36  1  0
  6 37  1  0
  8 38  1  0
 12 39  1  0
 15 40  1  0
 15 41  1  0
 16 42  1  0
 16 43  1  0
 19 44  1  0
 20 45  1  0
 20 46  1  0
 21 47  1  0
 21 48  1  0
 22 49  1  0
 24 50  1  0
 25 51  1  0
 28 52  1  0
 31 53  1  1
 32 54  1  0
 32 55  1  0
 33 56  1  6
M  END
$$$$
