@<TRIPOS>MOLECULE
*****
 31 33 0 0 0
SMALL
GASTEIGER

@<TRIPOS>ATOM
      1 O           2.8887   -2.3268   -1.3913 O.2     1  UNL1       -0.2871
      2 C           3.5411   -1.4227   -0.8437 C.ar    1  UNL1        0.1926
      3 C           4.9208   -1.4021   -0.7691 C.ar    1  UNL1        0.0207
      4 C           5.6070   -0.3767   -0.1505 C.ar    1  UNL1        0.0961
      5 O           4.8986    0.5905    0.3714 O.2     1  UNL1       -0.4627
      6 C           3.5796    0.6312    0.3347 C.ar    1  UNL1        0.1386
      7 C           2.8835    1.6936    0.9117 C.ar    1  UNL1       -0.0152
      8 C           1.5060    1.7154    0.8616 C.ar    1  UNL1       -0.0164
      9 C           0.7595    0.7080    0.2505 C.ar    1  UNL1        0.1219
     10 O          -0.6235    0.7548    0.2145 O.3     1  UNL1       -0.4874
     11 C          -1.3176   -0.2834   -0.4119 C.3     1  UNL1        0.1146
     12 C          -2.7742   -0.1196   -0.3842 C.ar    1  UNL1       -0.0102
     13 C          -3.4150    0.5502   -1.4053 C.ar    1  UNL1       -0.0526
     14 C          -4.7743    0.7153   -1.4007 C.ar    1  UNL1       -0.0261
     15 C          -5.5125    0.1949   -0.3438 C.ar    1  UNL1        0.1234
     16 F          -6.8561    0.3662   -0.3532 F       1  UNL1       -0.2055
     17 C          -4.9072   -0.4816    0.6964 C.ar    1  UNL1       -0.0261
     18 C          -3.5473   -0.6231    0.6509 C.ar    1  UNL1       -0.0526
     19 C           1.4553   -0.3254   -0.3099 C.ar    1  UNL1       -0.0056
     20 C           2.8345   -0.3610   -0.2676 C.ar    1  UNL1        0.0674
     21 H           5.4863   -2.2181   -1.2109 H       1  UNL1        0.0687
     22 H           6.6901   -0.4166   -0.1241 H       1  UNL1        0.1031
     23 H           3.4633    2.4826    1.3901 H       1  UNL1        0.0656
     24 H           0.9889    2.5340    1.3070 H       1  UNL1        0.0655
     25 H          -1.0757   -1.2275    0.1367 H       1  UNL1        0.0748
     26 H          -0.9511   -0.3554   -1.4602 H       1  UNL1        0.0748
     27 H          -2.8231    0.9399   -2.2051 H       1  UNL1        0.0622
     28 H          -5.2510    1.2426   -2.2104 H       1  UNL1        0.0646
     29 H          -5.5444   -0.8584    1.4836 H       1  UNL1        0.0646
     30 H          -3.0838   -1.1603    1.4806 H       1  UNL1        0.0622
     31 H           0.9536   -1.1605   -0.8111 H       1  UNL1        0.0662
@<TRIPOS>BOND
     1     1     2    2
     2     2     3   ar
     3     3     4   ar
     4     4     5   ar
     5     5     6   ar
     6     6     7   ar
     7     7     8   ar
     8     8     9   ar
     9     9    10    1
    10    10    11    1
    11    11    12    1
    12    12    13   ar
    13    13    14   ar
    14    14    15   ar
    15    15    16    1
    16    15    17   ar
    17    17    18   ar
    18     9    19   ar
    19    19    20   ar
    20    20     2   ar
    21    20     6   ar
    22    18    12   ar
    23     3    21    1
    24     4    22    1
    25     7    23    1
    26     8    24    1
    27    11    25    1
    28    11    26    1
    29    13    27    1
    30    14    28    1
    31    17    29    1
    32    18    30    1
    33    19    31    1
