@<TRIPOS>MOLECULE
*****
 42 45 0 0 0
SMALL
GASTEIGER

@<TRIPOS>ATOM
      1 N          -3.4176    2.8797   -1.7055 N.pl3   1  UNL1       -0.3134
      2 C          -3.6019    1.7218   -0.8719 C.2     1  UNL1        0.2763
      3 N          -2.5928    1.0737   -0.3963 N.2     1  UNL1       -0.2224
      4 C          -2.8711   -0.0769    0.4330 C.3     1  UNL1        0.1299
      5 C          -3.1996    0.4555    1.8037 C.3     1  UNL1        0.1200
      6 F          -2.1215    1.1676    2.2936 F       1  UNL1       -0.2462
      7 C          -1.6423   -0.9171    0.5847 C.ar    1  UNL1        0.0390
      8 C          -0.4341   -0.5990    0.0026 C.ar    1  UNL1       -0.0291
      9 C           0.6841   -1.4141    0.1756 C.ar    1  UNL1        0.0525
     10 N           1.9355   -1.0864   -0.4262 N.am    1  UNL1       -0.2789
     11 C           2.9022   -0.2880    0.2295 C.2     1  UNL1        0.2698
     12 O           2.5653    0.1120    1.3952 O.2     1  UNL1       -0.2681
     13 C           4.1896    0.0913   -0.3028 C.ar    1  UNL1        0.1657
     14 N           5.0800    0.8531    0.3551 N.ar    1  UNL1       -0.1604
     15 N           6.1616    1.0454   -0.3519 N.ar    1  UNL1       -0.2091
     16 C           7.2953    1.8286    0.1024 C.3     1  UNL1        0.3342
     17 F           7.0156    3.1609   -0.1595 F       1  UNL1       -0.1832
     18 F           7.4351    1.6837    1.4818 F       1  UNL1       -0.1832
     19 C           6.0431    0.4139   -1.5288 C.ar    1  UNL1        0.0503
     20 C           4.7846   -0.1985   -1.5048 C.ar    1  UNL1        0.0909
     21 CL          4.1057   -1.1638   -2.7968 Cl      1  UNL1       -0.0795
     22 C           0.5166   -2.5406    0.9506 C.ar    1  UNL1        0.0519
     23 N          -0.6503   -2.8740    1.5295 N.ar    1  UNL1       -0.2255
     24 C          -1.7272   -2.0536    1.3402 C.ar    1  UNL1        0.2189
     25 F          -2.8618   -2.4638    1.9554 F       1  UNL1       -0.1835
     26 C          -3.9240   -0.9066   -0.1772 C.3     1  UNL1        0.0315
     27 C          -5.2657   -1.0990    0.4098 C.3     1  UNL1       -0.0065
     28 C          -5.1000   -0.1557   -0.7236 C.3     1  UNL1        0.1090
     29 O          -4.8522    1.2255   -0.5245 O.2     1  UNL1       -0.4622
     30 H          -3.5251    3.8082   -1.2640 H       1  UNL1        0.1466
     31 H          -3.1855    2.8322   -2.7138 H       1  UNL1        0.1466
     32 H          -4.0624    1.1490    1.7994 H       1  UNL1        0.0643
     33 H          -3.4310   -0.3317    2.5442 H       1  UNL1        0.0643
     34 H          -0.3701    0.2864   -0.5854 H       1  UNL1        0.0641
     35 H           2.1089   -1.4601   -1.3712 H       1  UNL1        0.1552
     36 H           8.2175    1.5348   -0.4323 H       1  UNL1        0.1295
     37 H           6.7694    0.3898   -2.3184 H       1  UNL1        0.0843
     38 H           1.4084   -3.1727    1.0771 H       1  UNL1        0.0849
     39 H          -3.5448   -1.6970   -0.8874 H       1  UNL1        0.0365
     40 H          -5.7782   -2.0498    0.1512 H       1  UNL1        0.0306
     41 H          -5.5220   -0.7439    1.4238 H       1  UNL1        0.0306
     42 H          -5.5375   -0.4209   -1.7111 H       1  UNL1        0.0737
@<TRIPOS>BOND
     1     1     2    1
     2     2     3    2
     3     3     4    1
     4     4     5    1
     5     5     6    1
     6     4     7    1
     7     7     8   ar
     8     8     9   ar
     9     9    10    1
    10    10    11   am
    11    11    12    2
    12    11    13    1
    13    13    14   ar
    14    14    15   ar
    15    15    16    1
    16    16    17    1
    17    16    18    1
    18    15    19   ar
    19    19    20   ar
    20    20    21    1
    21     9    22   ar
    22    22    23   ar
    23    23    24   ar
    24    24    25    1
    25     4    26    1
    26    26    27    1
    27    27    28    1
    28    28    29    1
    29    29     2    1
    30    24     7   ar
    31    28    26    1
    32    20    13   ar
    33     1    30    1
    34     1    31    1
    35     5    32    1
    36     5    33    1
    37     8    34    1
    38    10    35    1
    39    16    36    1
    40    19    37    1
    41    22    38    1
    42    26    39    1
    43    27    40    1
    44    27    41    1
    45    28    42    1
