@<TRIPOS>MOLECULE
*****
 73 77 0 0 0
SMALL
GASTEIGER

@<TRIPOS>ATOM
      1 C           8.1839    1.7389   -1.1881 C.3     1  UNL1       -0.0524
      2 C           7.1922    0.6746   -1.6155 C.3     1  UNL1       -0.0039
      3 N           7.4758   -0.5889   -0.9787 N.3     1  UNL1       -0.3002
      4 C           6.5312   -1.5753   -1.3935 C.3     1  UNL1        0.0117
      5 C           5.3417   -1.7304   -0.5044 C.3     1  UNL1        0.0124
      6 N           5.6431   -1.6411    0.8947 N.3     1  UNL1       -0.2893
      7 C           4.9805   -0.5080    1.4488 C.3     1  UNL1        0.0848
      8 C           5.2340   -0.3095    2.9189 C.3     1  UNL1       -0.0409
      9 C           3.4983   -0.7407    1.2885 C.2     1  UNL1        0.2342
     10 O           3.0403   -1.7819    0.7520 O.2     1  UNL1       -0.2738
     11 N           2.5518    0.2124    1.7398 N.am    1  UNL1       -0.2825
     12 C           1.1459    0.0578    1.6228 C.ar    1  UNL1        0.0576
     13 C           0.4217   -0.5504    2.6304 C.ar    1  UNL1       -0.0384
     14 C          -0.9389   -0.7110    2.5440 C.ar    1  UNL1       -0.0593
     15 C          -1.6255   -0.2601    1.4286 C.ar    1  UNL1       -0.0518
     16 C          -0.9473    0.3546    0.3939 C.ar    1  UNL1        0.0107
     17 C          -1.3695    0.8952   -0.8273 C.ar    1  UNL1        0.0258
     18 C          -2.7620    0.9318   -1.2579 C.ar    1  UNL1        0.0809
     19 N          -3.7285    0.4914   -0.4167 N.ar    1  UNL1       -0.2139
     20 C          -5.0295    0.4524   -0.6568 C.ar    1  UNL1        0.2202
     21 N          -5.9474   -0.0322    0.3117 N.pl3   1  UNL1       -0.2782
     22 C          -7.3346   -0.1010    0.1519 C.ar    1  UNL1        0.1152
     23 C          -8.0784    0.2736   -0.9353 C.ar    1  UNL1        0.0503
     24 N          -9.3789    0.0381   -0.6664 N.ar    1  UNL1       -0.2692
     25 C         -10.4548    0.3202   -1.6042 C.3     1  UNL1        0.0304
     26 N          -9.4585   -0.4667    0.5451 N.ar    1  UNL1       -0.1317
     27 C          -8.2511   -0.5756    1.0935 C.ar    1  UNL1        0.2552
     28 O          -7.8978   -1.0544    2.3431 O.3     1  UNL1       -0.4774
     29 C          -8.8615   -1.5241    3.2625 C.3     1  UNL1        0.0805
     30 N          -5.4379    0.8944   -1.8583 N.ar    1  UNL1       -0.2224
     31 C          -4.5443    1.3466   -2.7489 C.ar    1  UNL1        0.0361
     32 C          -3.1671    1.3816   -2.4799 C.ar    1  UNL1       -0.0062
     33 C          -2.2456    1.8744   -3.5127 C.3     1  UNL1       -0.0362
     34 C          -0.2150    1.3491   -1.3969 C.ar    1  UNL1        0.0120
     35 N           0.8589    1.1092   -0.5876 N.ar    1  UNL1       -0.3586
     36 C           0.4292    0.5002    0.5150 C.ar    1  UNL1        0.0686
     37 C           7.0522   -1.6846    1.0934 C.3     1  UNL1        0.0124
     38 C           7.6729   -0.4896    0.4324 C.3     1  UNL1        0.0117
     39 H           9.1215    1.2943   -0.7956 H       1  UNL1        0.0242
     40 H           7.6958    2.3875   -0.4229 H       1  UNL1        0.0242
     41 H           8.4251    2.3546   -2.0789 H       1  UNL1        0.0242
     42 H           6.1617    0.9699   -1.3341 H       1  UNL1        0.0424
     43 H           7.2314    0.5195   -2.7183 H       1  UNL1        0.0424
     44 H           7.0304   -2.5686   -1.5951 H       1  UNL1        0.0439
     45 H           6.1510   -1.2576   -2.4085 H       1  UNL1        0.0439
     46 H           4.8946   -2.7345   -0.6935 H       1  UNL1        0.0439
     47 H           4.5737   -0.9819   -0.8209 H       1  UNL1        0.0439
     48 H           5.2047    0.3991    0.8462 H       1  UNL1        0.0556
     49 H           6.2820   -0.2182    3.1911 H       1  UNL1        0.0249
     50 H           4.7526   -1.1355    3.4685 H       1  UNL1        0.0249
     51 H           4.6797    0.6217    3.2178 H       1  UNL1        0.0249
     52 H           2.9143    1.0809    2.1854 H       1  UNL1        0.1549
     53 H           0.9688   -0.9004    3.5011 H       1  UNL1        0.0637
     54 H          -1.4949   -1.1841    3.3307 H       1  UNL1        0.0618
     55 H          -2.6908   -0.3796    1.3441 H       1  UNL1        0.0624
     56 H          -5.5333   -0.3688    1.2332 H       1  UNL1        0.1552
     57 H          -7.7231    0.6982   -1.8862 H       1  UNL1        0.0846
     58 H         -11.0384    1.1890   -1.2366 H       1  UNL1        0.0473
     59 H         -11.0759   -0.6044   -1.6393 H       1  UNL1        0.0473
     60 H         -10.0348    0.4522   -2.6139 H       1  UNL1        0.0473
     61 H          -9.2592   -0.6042    3.7787 H       1  UNL1        0.0660
     62 H          -8.4225   -2.1569    4.0495 H       1  UNL1        0.0660
     63 H          -9.7415   -1.9933    2.7761 H       1  UNL1        0.0660
     64 H          -4.9268    1.6850   -3.6870 H       1  UNL1        0.0834
     65 H          -2.9163    2.0907   -4.4204 H       1  UNL1        0.0279
     66 H          -1.8535    2.8700   -3.2625 H       1  UNL1        0.0279
     67 H          -1.5186    1.1292   -3.8843 H       1  UNL1        0.0279
     68 H          -0.1084    1.8424   -2.3419 H       1  UNL1        0.0814
     69 H           1.8530    1.3555   -0.7862 H       1  UNL1        0.1654
     70 H           7.3555   -1.7981    2.1542 H       1  UNL1        0.0439
     71 H           7.4426   -2.5864    0.5704 H       1  UNL1        0.0439
     72 H           8.7714   -0.5095    0.6651 H       1  UNL1        0.0439
     73 H           7.2489    0.4711    0.7819 H       1  UNL1        0.0439
@<TRIPOS>BOND
     1     1     2    1
     2     2     3    1
     3     3     4    1
     4     4     5    1
     5     5     6    1
     6     6     7    1
     7     7     8    1
     8     7     9    1
     9     9    10    2
    10     9    11   am
    11    11    12    1
    12    12    13   ar
    13    13    14   ar
    14    14    15   ar
    15    15    16   ar
    16    16    17   ar
    17    17    18    1
    18    18    19   ar
    19    19    20   ar
    20    20    21    1
    21    21    22    1
    22    22    23   ar
    23    23    24   ar
    24    24    25    1
    25    24    26   ar
    26    26    27   ar
    27    27    28    1
    28    28    29    1
    29    20    30   ar
    30    30    31   ar
    31    31    32   ar
    32    32    33    1
    33    17    34   ar
    34    34    35   ar
    35    35    36   ar
    36     6    37    1
    37    37    38    1
    38    38     3    1
    39    36    12   ar
    40    36    16   ar
    41    32    18   ar
    42    27    22   ar
    43     1    39    1
    44     1    40    1
    45     1    41    1
    46     2    42    1
    47     2    43    1
    48     4    44    1
    49     4    45    1
    50     5    46    1
    51     5    47    1
    52     7    48    1
    53     8    49    1
    54     8    50    1
    55     8    51    1
    56    11    52    1
    57    13    53    1
    58    14    54    1
    59    15    55    1
    60    21    56    1
    61    23    57    1
    62    25    58    1
    63    25    59    1
    64    25    60    1
    65    29    61    1
    66    29    62    1
    67    29    63    1
    68    31    64    1
    69    33    65    1
    70    33    66    1
    71    33    67    1
    72    34    68    1
    73    35    69    1
    74    37    70    1
    75    37    71    1
    76    38    72    1
    77    38    73    1
