
     RDKit          3D

 73 77  0  0  0  0  0  0  0  0999 V2000
    8.1839    1.7389   -1.1881 C   0  0  0  0  0  0  0  0  0  0  0  0
    7.1922    0.6746   -1.6155 C   0  0  0  0  0  0  0  0  0  0  0  0
    7.4758   -0.5889   -0.9787 N   0  0  0  0  0  0  0  0  0  0  0  0
    6.5312   -1.5753   -1.3935 C   0  0  0  0  0  0  0  0  0  0  0  0
    5.3417   -1.7304   -0.5044 C   0  0  0  0  0  0  0  0  0  0  0  0
    5.6431   -1.6411    0.8947 N   0  0  0  0  0  0  0  0  0  0  0  0
    4.9805   -0.5080    1.4488 C   0  0  2  0  0  0  0  0  0  0  0  0
    5.2340   -0.3095    2.9189 C   0  0  0  0  0  0  0  0  0  0  0  0
    3.4983   -0.7407    1.2885 C   0  0  0  0  0  0  0  0  0  0  0  0
    3.0403   -1.7819    0.7520 O   0  0  0  0  0  0  0  0  0  0  0  0
    2.5518    0.2124    1.7398 N   0  0  0  0  0  0  0  0  0  0  0  0
    1.1459    0.0578    1.6228 C   0  0  0  0  0  0  0  0  0  0  0  0
    0.4217   -0.5504    2.6304 C   0  0  0  0  0  0  0  0  0  0  0  0
   -0.9389   -0.7110    2.5440 C   0  0  0  0  0  0  0  0  0  0  0  0
   -1.6255   -0.2601    1.4286 C   0  0  0  0  0  0  0  0  0  0  0  0
   -0.9473    0.3546    0.3939 C   0  0  0  0  0  0  0  0  0  0  0  0
   -1.3695    0.8952   -0.8273 C   0  0  0  0  0  0  0  0  0  0  0  0
   -2.7620    0.9318   -1.2579 C   0  0  0  0  0  0  0  0  0  0  0  0
   -3.7285    0.4914   -0.4167 N   0  0  0  0  0  0  0  0  0  0  0  0
   -5.0295    0.4524   -0.6568 C   0  0  0  0  0  0  0  0  0  0  0  0
   -5.9474   -0.0322    0.3117 N   0  0  0  0  0  0  0  0  0  0  0  0
   -7.3346   -0.1010    0.1519 C   0  0  0  0  0  0  0  0  0  0  0  0
   -8.0784    0.2736   -0.9353 C   0  0  0  0  0  0  0  0  0  0  0  0
   -9.3789    0.0381   -0.6664 N   0  0  0  0  0  0  0  0  0  0  0  0
  -10.4548    0.3202   -1.6042 C   0  0  0  0  0  0  0  0  0  0  0  0
   -9.4585   -0.4667    0.5451 N   0  0  0  0  0  0  0  0  0  0  0  0
   -8.2511   -0.5756    1.0935 C   0  0  0  0  0  0  0  0  0  0  0  0
   -7.8978   -1.0544    2.3431 O   0  0  0  0  0  0  0  0  0  0  0  0
   -8.8615   -1.5241    3.2625 C   0  0  0  0  0  0  0  0  0  0  0  0
   -5.4379    0.8944   -1.8583 N   0  0  0  0  0  0  0  0  0  0  0  0
   -4.5443    1.3466   -2.7489 C   0  0  0  0  0  0  0  0  0  0  0  0
   -3.1671    1.3816   -2.4799 C   0  0  0  0  0  0  0  0  0  0  0  0
   -2.2456    1.8744   -3.5127 C   0  0  0  0  0  0  0  0  0  0  0  0
   -0.2150    1.3491   -1.3969 C   0  0  0  0  0  0  0  0  0  0  0  0
    0.8589    1.1092   -0.5876 N   0  0  0  0  0  0  0  0  0  0  0  0
    0.4292    0.5002    0.5150 C   0  0  0  0  0  0  0  0  0  0  0  0
    7.0522   -1.6846    1.0934 C   0  0  0  0  0  0  0  0  0  0  0  0
    7.6729   -0.4896    0.4324 C   0  0  0  0  0  0  0  0  0  0  0  0
    9.1215    1.2943   -0.7956 H   0  0  0  0  0  0  0  0  0  0  0  0
    7.6958    2.3875   -0.4229 H   0  0  0  0  0  0  0  0  0  0  0  0
    8.4251    2.3546   -2.0789 H   0  0  0  0  0  0  0  0  0  0  0  0
    6.1617    0.9699   -1.3341 H   0  0  0  0  0  0  0  0  0  0  0  0
    7.2314    0.5195   -2.7183 H   0  0  0  0  0  0  0  0  0  0  0  0
    7.0304   -2.5686   -1.5951 H   0  0  0  0  0  0  0  0  0  0  0  0
    6.1510   -1.2576   -2.4085 H   0  0  0  0  0  0  0  0  0  0  0  0
    4.8946   -2.7345   -0.6935 H   0  0  0  0  0  0  0  0  0  0  0  0
    4.5737   -0.9819   -0.8209 H   0  0  0  0  0  0  0  0  0  0  0  0
    5.2047    0.3991    0.8462 H   0  0  0  0  0  0  0  0  0  0  0  0
    6.2820   -0.2182    3.1911 H   0  0  0  0  0  0  0  0  0  0  0  0
    4.7526   -1.1355    3.4685 H   0  0  0  0  0  0  0  0  0  0  0  0
    4.6797    0.6217    3.2178 H   0  0  0  0  0  0  0  0  0  0  0  0
    2.9143    1.0809    2.1854 H   0  0  0  0  0  0  0  0  0  0  0  0
    0.9688   -0.9004    3.5011 H   0  0  0  0  0  0  0  0  0  0  0  0
   -1.4949   -1.1841    3.3307 H   0  0  0  0  0  0  0  0  0  0  0  0
   -2.6908   -0.3796    1.3441 H   0  0  0  0  0  0  0  0  0  0  0  0
   -5.5333   -0.3688    1.2332 H   0  0  0  0  0  0  0  0  0  0  0  0
   -7.7231    0.6982   -1.8862 H   0  0  0  0  0  0  0  0  0  0  0  0
  -11.0384    1.1890   -1.2366 H   0  0  0  0  0  0  0  0  0  0  0  0
  -11.0759   -0.6044   -1.6393 H   0  0  0  0  0  0  0  0  0  0  0  0
  -10.0348    0.4522   -2.6139 H   0  0  0  0  0  0  0  0  0  0  0  0
   -9.2592   -0.6042    3.7787 H   0  0  0  0  0  0  0  0  0  0  0  0
   -8.4225   -2.1569    4.0495 H   0  0  0  0  0  0  0  0  0  0  0  0
   -9.7415   -1.9933    2.7761 H   0  0  0  0  0  0  0  0  0  0  0  0
   -4.9268    1.6850   -3.6870 H   0  0  0  0  0  0  0  0  0  0  0  0
   -2.9163    2.0907   -4.4204 H   0  0  0  0  0  0  0  0  0  0  0  0
   -1.8535    2.8700   -3.2625 H   0  0  0  0  0  0  0  0  0  0  0  0
   -1.5186    1.1292   -3.8843 H   0  0  0  0  0  0  0  0  0  0  0  0
   -0.1084    1.8424   -2.3419 H   0  0  0  0  0  0  0  0  0  0  0  0
    1.8530    1.3555   -0.7862 H   0  0  0  0  0  0  0  0  0  0  0  0
    7.3555   -1.7981    2.1542 H   0  0  0  0  0  0  0  0  0  0  0  0
    7.4426   -2.5864    0.5704 H   0  0  0  0  0  0  0  0  0  0  0  0
    8.7714   -0.5095    0.6651 H   0  0  0  0  0  0  0  0  0  0  0  0
    7.2489    0.4711    0.7819 H   0  0  0  0  0  0  0  0  0  0  0  0
  1  2  1  0
  2  3  1  0
  3  4  1  0
  4  5  1  0
  5  6  1  0
  6  7  1  0
  7  8  1  0
  7  9  1  0
  9 10  2  0
  9 11  1  0
 11 12  1  0
 12 13  2  0
 13 14  1  0
 14 15  2  0
 15 16  1  0
 16 17  1  0
 17 18  1  0
 18 19  2  0
 19 20  1  0
 20 21  1  0
 21 22  1  0
 22 23  2  0
 23 24  1  0
 24 25  1  0
 24 26  1  0
 26 27  2  0
 27 28  1  0
 28 29  1  0
 20 30  2  0
 30 31  1  0
 31 32  2  0
 32 33  1  0
 17 34  2  0
 34 35  1  0
 35 36  1  0
  6 37  1  0
 37 38  1  0
 38  3  1  0
 36 12  1  0
 36 16  2  0
 32 18  1  0
 27 22  1  0
  1 39  1  0
  1 40  1  0
  1 41  1  0
  2 42  1  0
  2 43  1  0
  4 44  1  0
  4 45  1  0
  5 46  1  0
  5 47  1  0
  7 48  1  6
  8 49  1  0
  8 50  1  0
  8 51  1  0
 11 52  1  0
 13 53  1  0
 14 54  1  0
 15 55  1  0
 21 56  1  0
 23 57  1  0
 25 58  1  0
 25 59  1  0
 25 60  1  0
 29 61  1  0
 29 62  1  0
 29 63  1  0
 31 64  1  0
 33 65  1  0
 33 66  1  0
 33 67  1  0
 34 68  1  0
 35 69  1  0
 37 70  1  0
 37 71  1  0
 38 72  1  0
 38 73  1  0
M  END
$$$$
