@<TRIPOS>MOLECULE
*****
 41 43 0 0 0
SMALL
GASTEIGER

@<TRIPOS>ATOM
      1 C          -0.6807    1.7106   -0.5803 C.3     1  UNL1       -0.0210
      2 C           0.7519    2.2323   -0.3911 C.3     1  UNL1       -0.0231
      3 C           1.5197    1.0915    0.1571 C.ar    1  UNL1       -0.0431
      4 C           2.6359    1.3616    0.9213 C.ar    1  UNL1       -0.0548
      5 C           3.4315    0.3901    1.4858 C.ar    1  UNL1       -0.0199
      6 C           3.0830   -0.9242    1.2682 C.ar    1  UNL1        0.1172
      7 O           3.8868   -1.8845    1.8382 O.3     1  UNL1       -0.5068
      8 C           1.9545   -1.2019    0.4956 C.ar    1  UNL1       -0.0162
      9 C           1.1673   -0.2084   -0.0635 C.ar    1  UNL1       -0.0334
     10 C          -0.0117   -0.7151   -0.8670 C.3     1  UNL1        0.0087
     11 C           0.7040   -1.4816   -1.9987 C.3     1  UNL1       -0.0541
     12 C          -0.8224   -1.6508   -0.1113 C.3     1  UNL1       -0.0422
     13 C          -2.2353   -1.3608    0.2227 C.3     1  UNL1       -0.0522
     14 C          -2.4161   -0.4569    1.4436 C.3     1  UNL1       -0.0530
     15 C          -2.5784    0.9505    0.8853 C.3     1  UNL1       -0.0527
     16 C          -1.1931    1.5045    0.7996 C.3     1  UNL1       -0.0485
     17 C          -0.5955    0.4997   -1.4567 C.3     1  UNL1        0.0174
     18 N          -1.7998    0.2864   -2.2507 N.3     1  UNL1       -0.3262
     19 H          -1.2966    2.4649   -1.0822 H       1  UNL1        0.0319
     20 H           0.7452    3.0784    0.3028 H       1  UNL1        0.0316
     21 H           1.1351    2.4658   -1.4103 H       1  UNL1        0.0316
     22 H           2.9117    2.3931    1.0938 H       1  UNL1        0.0622
     23 H           4.3010    0.6673    2.0801 H       1  UNL1        0.0654
     24 H           3.9756   -1.9439    2.8452 H       1  UNL1        0.2921
     25 H           1.7942   -2.2778    0.4036 H       1  UNL1        0.0657
     26 H          -0.0254   -1.8400   -2.7606 H       1  UNL1        0.0239
     27 H           1.1614   -2.3671   -1.5337 H       1  UNL1        0.0239
     28 H           1.4682   -0.8277   -2.4535 H       1  UNL1        0.0239
     29 H          -0.3301   -1.8254    0.8950 H       1  UNL1        0.0274
     30 H          -0.7929   -2.6907   -0.5434 H       1  UNL1        0.0274
     31 H          -2.8873   -0.9723   -0.5508 H       1  UNL1        0.0266
     32 H          -2.7185   -2.3082    0.5503 H       1  UNL1        0.0266
     33 H          -3.2572   -0.7441    2.0785 H       1  UNL1        0.0265
     34 H          -1.4883   -0.5478    2.0472 H       1  UNL1        0.0265
     35 H          -3.2232    1.4877    1.6232 H       1  UNL1        0.0265
     36 H          -3.1138    0.9506   -0.0832 H       1  UNL1        0.0265
     37 H          -1.2366    2.5144    1.2600 H       1  UNL1        0.0269
     38 H          -0.4555    0.9599    1.4593 H       1  UNL1        0.0269
     39 H           0.1118    0.8407   -2.2616 H       1  UNL1        0.0470
     40 H          -1.9219    0.9970   -3.0025 H       1  UNL1        0.1185
     41 H          -1.6585   -0.6180   -2.7552 H       1  UNL1        0.1185
@<TRIPOS>BOND
     1     1     2    1
     2     2     3    1
     3     3     4   ar
     4     4     5   ar
     5     5     6   ar
     6     6     7    1
     7     6     8   ar
     8     8     9   ar
     9     9    10    1
    10    10    11    1
    11    10    12    1
    12    12    13    1
    13    13    14    1
    14    14    15    1
    15    15    16    1
    16    10    17    1
    17    17    18    1
    18    16     1    1
    19    17     1    1
    20     9     3   ar
    21     1    19    1
    22     2    20    1
    23     2    21    1
    24     4    22    1
    25     5    23    1
    26     7    24    1
    27     8    25    1
    28    11    26    1
    29    11    27    1
    30    11    28    1
    31    12    29    1
    32    12    30    1
    33    13    31    1
    34    13    32    1
    35    14    33    1
    36    14    34    1
    37    15    35    1
    38    15    36    1
    39    16    37    1
    40    16    38    1
    41    17    39    1
    42    18    40    1
    43    18    41    1
