
     RDKit          3D

 47 50  0  0  0  0  0  0  0  0999 V2000
   -1.2710    3.4939   -2.7846 C   0  0  0  0  0  0  0  0  0  0  0  0
   -1.1862    3.8433   -1.3280 C   0  0  0  0  0  0  0  0  0  0  0  0
   -0.0781    3.1606   -0.7391 N   0  0  0  0  0  0  0  0  0  0  0  0
    1.1675    3.6401   -0.6538 C   0  0  0  0  0  0  0  0  0  0  0  0
    1.9525    2.7290   -0.0294 N   0  0  0  0  0  0  0  0  0  0  0  0
    1.1925    1.6609    0.2827 C   0  0  0  0  0  0  0  0  0  0  0  0
    1.4859    0.4661    0.9207 C   0  0  0  0  0  0  0  0  0  0  0  0
    2.8160    0.2340    1.3543 N   0  0  0  0  0  0  0  0  0  0  0  0
    3.7362   -0.5655    0.6572 C   0  0  0  0  0  0  0  0  0  0  0  0
    5.0563   -0.5930    1.0446 C   0  0  0  0  0  0  0  0  0  0  0  0
    5.9164   -1.4137    0.3253 C   0  0  0  0  0  0  0  0  0  0  0  0
    5.4412   -2.1527   -0.7201 C   0  0  0  0  0  0  0  0  0  0  0  0
    4.1052   -2.1125   -1.0973 C   0  0  0  0  0  0  0  0  0  0  0  0
    3.5011   -3.0750   -2.4390 Cl  0  0  0  0  0  0  0  0  0  0  0  0
    3.2484   -1.3148   -0.4052 C   0  0  0  0  0  0  0  0  0  0  0  0
    0.4707   -0.3938    1.0734 N   0  0  0  0  0  0  0  0  0  0  0  0
   -0.7710   -0.1765    0.6602 C   0  0  0  0  0  0  0  0  0  0  0  0
   -1.8491   -1.0992    0.8145 N   0  0  0  0  0  0  0  0  0  0  0  0
   -1.5849   -2.4370    1.3681 C   0  0  0  0  0  0  0  0  0  0  0  0
   -2.9113   -3.1269    1.4216 C   0  0  0  0  0  0  0  0  0  0  0  0
   -3.6979   -2.4035    0.3285 C   0  0  0  0  0  0  0  0  0  0  0  0
   -3.2292   -0.9808    0.5265 C   0  0  2  0  0  0  0  0  0  0  0  0
   -3.5669   -0.2147   -0.7350 C   0  0  0  0  0  0  0  0  0  0  0  0
   -4.9747   -0.2325   -0.8200 O   0  0  0  0  0  0  0  0  0  0  0  0
   -1.0302    0.9888    0.0452 N   0  0  0  0  0  0  0  0  0  0  0  0
   -0.0983    1.9276   -0.1649 C   0  0  0  0  0  0  0  0  0  0  0  0
   -1.5151    2.4256   -2.8778 H   0  0  0  0  0  0  0  0  0  0  0  0
   -0.2713    3.7233   -3.2505 H   0  0  0  0  0  0  0  0  0  0  0  0
   -2.0668    4.1226   -3.2371 H   0  0  0  0  0  0  0  0  0  0  0  0
   -1.1107    4.9537   -1.2314 H   0  0  0  0  0  0  0  0  0  0  0  0
   -2.1527    3.5644   -0.8157 H   0  0  0  0  0  0  0  0  0  0  0  0
    1.5485    4.5894   -1.0046 H   0  0  0  0  0  0  0  0  0  0  0  0
    3.1124    0.6967    2.2529 H   0  0  0  0  0  0  0  0  0  0  0  0
    5.3992   -0.0027    1.8680 H   0  0  0  0  0  0  0  0  0  0  0  0
    6.9592   -1.4211    0.6476 H   0  0  0  0  0  0  0  0  0  0  0  0
    6.0970   -2.7890   -1.2826 H   0  0  0  0  0  0  0  0  0  0  0  0
    2.1975   -1.2483   -0.6612 H   0  0  0  0  0  0  0  0  0  0  0  0
   -0.8884   -2.9031    0.6264 H   0  0  0  0  0  0  0  0  0  0  0  0
   -1.0631   -2.3912    2.3242 H   0  0  0  0  0  0  0  0  0  0  0  0
   -3.4017   -2.8918    2.3936 H   0  0  0  0  0  0  0  0  0  0  0  0
   -2.8525   -4.2129    1.2069 H   0  0  0  0  0  0  0  0  0  0  0  0
   -3.3792   -2.7648   -0.6704 H   0  0  0  0  0  0  0  0  0  0  0  0
   -4.7899   -2.4968    0.4994 H   0  0  0  0  0  0  0  0  0  0  0  0
   -3.8266   -0.5278    1.3547 H   0  0  0  0  0  0  0  0  0  0  0  0
   -3.2535    0.8271   -0.7102 H   0  0  0  0  0  0  0  0  0  0  0  0
   -3.1891   -0.7187   -1.6352 H   0  0  0  0  0  0  0  0  0  0  0  0
   -5.3942   -0.3868    0.0633 H   0  0  0  0  0  0  0  0  0  0  0  0
  1  2  1  0
  2  3  1  0
  3  4  1  0
  4  5  2  0
  5  6  1  0
  6  7  2  0
  7  8  1  0
  8  9  1  0
  9 10  2  0
 10 11  1  0
 11 12  2  0
 12 13  1  0
 13 14  1  0
 13 15  2  0
  7 16  1  0
 16 17  2  0
 17 18  1  0
 18 19  1  0
 19 20  1  0
 20 21  1  0
 21 22  1  0
 22 23  1  0
 23 24  1  0
 17 25  1  0
 25 26  2  0
 26  3  1  0
 26  6  1  0
 15  9  1  0
 22 18  1  0
  1 27  1  0
  1 28  1  0
  1 29  1  0
  2 30  1  0
  2 31  1  0
  4 32  1  0
  8 33  1  0
 10 34  1  0
 11 35  1  0
 12 36  1  0
 15 37  1  0
 19 38  1  0
 19 39  1  0
 20 40  1  0
 20 41  1  0
 21 42  1  0
 21 43  1  0
 22 44  1  1
 23 45  1  0
 23 46  1  0
 24 47  1  0
M  END
$$$$
