@<TRIPOS>MOLECULE
*****
 47 50 0 0 0
SMALL
GASTEIGER

@<TRIPOS>ATOM
      1 C          -1.2710    3.4939   -2.7846 C.3     1  UNL1       -0.0470
      2 C          -1.1862    3.8433   -1.3280 C.3     1  UNL1        0.0232
      3 N          -0.0781    3.1606   -0.7391 N.ar    1  UNL1       -0.3151
      4 C           1.1675    3.6401   -0.6538 C.ar    1  UNL1        0.0983
      5 N           1.9525    2.7290   -0.0294 N.ar    1  UNL1       -0.2306
      6 C           1.1925    1.6609    0.2827 C.ar    1  UNL1        0.1479
      7 C           1.4859    0.4661    0.9207 C.ar    1  UNL1        0.1558
      8 N           2.8160    0.2340    1.3543 N.pl3   1  UNL1       -0.2975
      9 C           3.7362   -0.5655    0.6572 C.ar    1  UNL1        0.0338
     10 C           5.0563   -0.5930    1.0446 C.ar    1  UNL1       -0.0404
     11 C           5.9164   -1.4137    0.3253 C.ar    1  UNL1       -0.0586
     12 C           5.4412   -2.1527   -0.7201 C.ar    1  UNL1       -0.0433
     13 C           4.1052   -2.1125   -1.0973 C.ar    1  UNL1        0.0427
     14 CL          3.5011   -3.0750   -2.4390 Cl      1  UNL1       -0.0835
     15 C           3.2484   -1.3148   -0.4052 C.ar    1  UNL1       -0.0222
     16 N           0.4707   -0.3938    1.0734 N.ar    1  UNL1       -0.1969
     17 C          -0.7710   -0.1765    0.6602 C.ar    1  UNL1        0.2218
     18 N          -1.8491   -1.0992    0.8145 N.pl3   1  UNL1       -0.2943
     19 C          -1.5849   -2.4370    1.3681 C.3     1  UNL1        0.0153
     20 C          -2.9113   -3.1269    1.4216 C.3     1  UNL1       -0.0354
     21 C          -3.6979   -2.4035    0.3285 C.3     1  UNL1       -0.0307
     22 C          -3.2292   -0.9808    0.5265 C.3     1  UNL1        0.0493
     23 C          -3.5669   -0.2147   -0.7350 C.3     1  UNL1        0.0628
     24 O          -4.9747   -0.2325   -0.8200 O.3     1  UNL1       -0.3932
     25 N          -1.0302    0.9888    0.0452 N.ar    1  UNL1       -0.1946
     26 C          -0.0983    1.9276   -0.1649 C.ar    1  UNL1        0.1672
     27 H          -1.5151    2.4256   -2.8778 H       1  UNL1        0.0247
     28 H          -0.2713    3.7233   -3.2505 H       1  UNL1        0.0247
     29 H          -2.0668    4.1226   -3.2371 H       1  UNL1        0.0247
     30 H          -1.1107    4.9537   -1.2314 H       1  UNL1        0.0490
     31 H          -2.1527    3.5644   -0.8157 H       1  UNL1        0.0490
     32 H           1.5485    4.5894   -1.0046 H       1  UNL1        0.1029
     33 H           3.1124    0.6967    2.2529 H       1  UNL1        0.1536
     34 H           5.3992   -0.0027    1.8680 H       1  UNL1        0.0636
     35 H           6.9592   -1.4211    0.6476 H       1  UNL1        0.0619
     36 H           6.0970   -2.7890   -1.2826 H       1  UNL1        0.0632
     37 H           2.1975   -1.2483   -0.6612 H       1  UNL1        0.0651
     38 H          -0.8884   -2.9031    0.6264 H       1  UNL1        0.0465
     39 H          -1.0631   -2.3912    2.3242 H       1  UNL1        0.0465
     40 H          -3.4017   -2.8918    2.3936 H       1  UNL1        0.0281
     41 H          -2.8525   -4.2129    1.2069 H       1  UNL1        0.0281
     42 H          -3.3792   -2.7648   -0.6704 H       1  UNL1        0.0284
     43 H          -4.7899   -2.4968    0.4994 H       1  UNL1        0.0284
     44 H          -3.8266   -0.5278    1.3547 H       1  UNL1        0.0523
     45 H          -3.2535    0.8271   -0.7102 H       1  UNL1        0.0576
     46 H          -3.1891   -0.7187   -1.6352 H       1  UNL1        0.0576
     47 H          -5.3942   -0.3868    0.0633 H       1  UNL1        0.2095
@<TRIPOS>BOND
     1     1     2    1
     2     2     3    1
     3     3     4   ar
     4     4     5   ar
     5     5     6   ar
     6     6     7   ar
     7     7     8    1
     8     8     9    1
     9     9    10   ar
    10    10    11   ar
    11    11    12   ar
    12    12    13   ar
    13    13    14    1
    14    13    15   ar
    15     7    16   ar
    16    16    17   ar
    17    17    18    1
    18    18    19    1
    19    19    20    1
    20    20    21    1
    21    21    22    1
    22    22    23    1
    23    23    24    1
    24    17    25   ar
    25    25    26   ar
    26    26     3   ar
    27    26     6   ar
    28    15     9   ar
    29    22    18    1
    30     1    27    1
    31     1    28    1
    32     1    29    1
    33     2    30    1
    34     2    31    1
    35     4    32    1
    36     8    33    1
    37    10    34    1
    38    11    35    1
    39    12    36    1
    40    15    37    1
    41    19    38    1
    42    19    39    1
    43    20    40    1
    44    20    41    1
    45    21    42    1
    46    21    43    1
    47    22    44    1
    48    23    45    1
    49    23    46    1
    50    24    47    1
