
     RDKit          3D

 43 46  0  0  0  0  0  0  0  0999 V2000
   -6.0173    2.2280   -0.4653 C   0  0  0  0  0  0  0  0  0  0  0  0
   -6.0772    0.9149   -1.6809 S   0  0  0  0  0  6  0  0  0  0  0  0
   -6.8483   -0.2241   -1.0899 O   0  0  0  0  0  0  0  0  0  0  0  0
   -6.7075    1.4077   -2.9546 O   0  0  0  0  0  0  0  0  0  0  0  0
   -4.4713    0.3777   -1.9878 N   0  0  0  0  0  0  0  0  0  0  0  0
   -3.6782   -0.1816   -0.9487 C   0  0  0  0  0  0  0  0  0  0  0  0
   -4.1202   -1.1363   -0.0662 C   0  0  0  0  0  0  0  0  0  0  0  0
   -3.3319   -1.6780    0.9441 C   0  0  0  0  0  0  0  0  0  0  0  0
   -2.0453   -1.2568    1.0892 C   0  0  0  0  0  0  0  0  0  0  0  0
   -1.3677   -1.8760    2.1371 C   0  0  0  0  0  0  0  0  0  0  0  0
   -0.0369   -1.7522    2.4724 C   0  0  0  0  0  0  0  0  0  0  0  0
    0.9904   -1.1196    1.7687 C   0  0  0  0  0  0  0  0  0  0  0  0
    2.2243   -1.4663    2.1702 N   0  0  0  0  0  0  0  0  0  0  0  0
    3.3415   -0.9609    1.6123 C   0  0  0  0  0  0  0  0  0  0  0  0
    3.2903   -0.0385    0.5749 C   0  0  0  0  0  0  0  0  0  0  0  0
    4.5082    0.5097   -0.0313 C   0  0  0  0  0  0  0  0  0  0  0  0
    5.6551   -0.2528   -0.1122 C   0  0  0  0  0  0  0  0  0  0  0  0
    6.8216    0.2011   -0.6625 C   0  0  0  0  0  0  0  0  0  0  0  0
    6.8616    1.4871   -1.1649 C   0  0  0  0  0  0  0  0  0  0  0  0
    5.7355    2.2820   -1.1031 C   0  0  0  0  0  0  0  0  0  0  0  0
    4.5654    1.7923   -0.5381 C   0  0  0  0  0  0  0  0  0  0  0  0
    2.0255    0.3267    0.1526 C   0  0  0  0  0  0  0  0  0  0  0  0
    0.8891   -0.2061    0.7408 C   0  0  0  0  0  0  0  0  0  0  0  0
   -0.2838    0.2640    0.1970 C   0  0  0  0  0  0  0  0  0  0  0  0
   -0.1712    1.3649   -0.4071 O   0  0  0  0  0  0  0  0  0  0  0  0
   -1.5667   -0.2965    0.2179 C   0  0  0  0  0  0  0  0  0  0  0  0
   -2.3525    0.2341   -0.7780 C   0  0  0  0  0  0  0  0  0  0  0  0
   -6.3318    1.8613    0.5478 H   0  0  0  0  0  0  0  0  0  0  0  0
   -6.7190    3.0499   -0.7062 H   0  0  0  0  0  0  0  0  0  0  0  0
   -4.9919    2.6346   -0.3472 H   0  0  0  0  0  0  0  0  0  0  0  0
   -4.0905    0.4752   -2.9738 H   0  0  0  0  0  0  0  0  0  0  0  0
   -5.1597   -1.4746   -0.1925 H   0  0  0  0  0  0  0  0  0  0  0  0
   -3.7262   -2.4214    1.6067 H   0  0  0  0  0  0  0  0  0  0  0  0
   -1.9977   -2.5100    2.7199 H   0  0  0  0  0  0  0  0  0  0  0  0
    0.2667   -2.1955    3.3966 H   0  0  0  0  0  0  0  0  0  0  0  0
    4.3336   -1.2452    1.9397 H   0  0  0  0  0  0  0  0  0  0  0  0
    5.6234   -1.2592    0.2815 H   0  0  0  0  0  0  0  0  0  0  0  0
    7.6936   -0.4572   -0.6943 H   0  0  0  0  0  0  0  0  0  0  0  0
    7.7962    1.8169   -1.5928 H   0  0  0  0  0  0  0  0  0  0  0  0
    5.8066    3.2804   -1.5068 H   0  0  0  0  0  0  0  0  0  0  0  0
    3.6769    2.4221   -0.4907 H   0  0  0  0  0  0  0  0  0  0  0  0
    1.8972    1.0441   -0.6545 H   0  0  0  0  0  0  0  0  0  0  0  0
   -1.9101    0.9798   -1.4199 H   0  0  0  0  0  0  0  0  0  0  0  0
  1  2  1  0
  2  3  2  0
  2  4  2  0
  2  5  1  0
  5  6  1  0
  6  7  2  0
  7  8  1  0
  8  9  2  0
  9 10  1  0
 10 11  2  0
 11 12  1  0
 12 13  2  0
 13 14  1  0
 14 15  2  0
 15 16  1  0
 16 17  2  0
 17 18  1  0
 18 19  2  0
 19 20  1  0
 20 21  2  0
 15 22  1  0
 22 23  2  0
 23 24  1  0
 24 25  2  0
 24 26  1  0
 26 27  2  0
 27  6  1  0
 26  9  1  0
 23 12  1  0
 21 16  1  0
  1 28  1  0
  1 29  1  0
  1 30  1  0
  5 31  1  0
  7 32  1  0
  8 33  1  0
 10 34  1  0
 11 35  1  0
 14 36  1  0
 17 37  1  0
 18 38  1  0
 19 39  1  0
 20 40  1  0
 21 41  1  0
 22 42  1  0
 27 43  1  0
M  END
$$$$
