@<TRIPOS>MOLECULE
*****
 43 46 0 0 0
SMALL
GASTEIGER

@<TRIPOS>ATOM
      1 C          -6.0173    2.2280   -0.4653 C.3     1  UNL1        0.0736
      2 S          -6.0772    0.9149   -1.6809 S.O2    1  UNL1        0.0403
      3 O          -6.8483   -0.2241   -1.0899 O.2     1  UNL1       -0.1555
      4 O          -6.7075    1.4077   -2.9546 O.2     1  UNL1       -0.1555
      5 N          -4.4713    0.3777   -1.9878 N.pl3   1  UNL1       -0.2209
      6 C          -3.6782   -0.1816   -0.9487 C.ar    1  UNL1        0.0484
      7 C          -4.1202   -1.1363   -0.0662 C.ar    1  UNL1       -0.0387
      8 C          -3.3319   -1.6780    0.9441 C.ar    1  UNL1       -0.0521
      9 C          -2.0453   -1.2568    1.0892 C.ar    1  UNL1       -0.0140
     10 C          -1.3677   -1.8760    2.1371 C.ar    1  UNL1       -0.0519
     11 C          -0.0369   -1.7522    2.4724 C.ar    1  UNL1       -0.0350
     12 C           0.9904   -1.1196    1.7687 C.ar    1  UNL1        0.0747
     13 N           2.2243   -1.4663    2.1702 N.ar    1  UNL1       -0.2543
     14 C           3.3415   -0.9609    1.6123 C.ar    1  UNL1        0.0360
     15 C           3.2903   -0.0385    0.5749 C.ar    1  UNL1        0.0009
     16 C           4.5082    0.5097   -0.0313 C.ar    1  UNL1       -0.0164
     17 C           5.6551   -0.2528   -0.1122 C.ar    1  UNL1       -0.0540
     18 C           6.8216    0.2011   -0.6625 C.ar    1  UNL1       -0.0612
     19 C           6.8616    1.4871   -1.1649 C.ar    1  UNL1       -0.0617
     20 C           5.7355    2.2820   -1.1031 C.ar    1  UNL1       -0.0612
     21 C           4.5654    1.7923   -0.5381 C.ar    1  UNL1       -0.0540
     22 C           2.0255    0.3267    0.1526 C.ar    1  UNL1       -0.0397
     23 C           0.8891   -0.2061    0.7408 C.ar    1  UNL1        0.0482
     24 C          -0.2838    0.2640    0.1970 C.ar    1  UNL1        0.1958
     25 O          -0.1712    1.3649   -0.4071 O.2     1  UNL1       -0.2866
     26 C          -1.5667   -0.2965    0.2179 C.ar    1  UNL1        0.0312
     27 C          -2.3525    0.2341   -0.7780 C.ar    1  UNL1       -0.0279
     28 H          -6.3318    1.8613    0.5478 H       1  UNL1        0.0482
     29 H          -6.7190    3.0499   -0.7062 H       1  UNL1        0.0482
     30 H          -4.9919    2.6346   -0.3472 H       1  UNL1        0.0482
     31 H          -4.0905    0.4752   -2.9738 H       1  UNL1        0.1733
     32 H          -5.1597   -1.4746   -0.1925 H       1  UNL1        0.0637
     33 H          -3.7262   -2.4214    1.6067 H       1  UNL1        0.0624
     34 H          -1.9977   -2.5100    2.7199 H       1  UNL1        0.0624
     35 H           0.2667   -2.1955    3.3966 H       1  UNL1        0.0639
     36 H           4.3336   -1.2452    1.9397 H       1  UNL1        0.0836
     37 H           5.6234   -1.2592    0.2815 H       1  UNL1        0.0624
     38 H           7.6936   -0.4572   -0.6943 H       1  UNL1        0.0618
     39 H           7.7962    1.8169   -1.5928 H       1  UNL1        0.0618
     40 H           5.8066    3.2804   -1.5068 H       1  UNL1        0.0618
     41 H           3.6769    2.4221   -0.4907 H       1  UNL1        0.0624
     42 H           1.8972    1.0441   -0.6545 H       1  UNL1        0.0632
     43 H          -1.9101    0.9798   -1.4199 H       1  UNL1        0.0644
@<TRIPOS>BOND
     1     1     2    1
     2     2     3    2
     3     2     4    2
     4     2     5    1
     5     5     6    1
     6     6     7   ar
     7     7     8   ar
     8     8     9   ar
     9     9    10   ar
    10    10    11   ar
    11    11    12   ar
    12    12    13   ar
    13    13    14   ar
    14    14    15   ar
    15    15    16    1
    16    16    17   ar
    17    17    18   ar
    18    18    19   ar
    19    19    20   ar
    20    20    21   ar
    21    15    22   ar
    22    22    23   ar
    23    23    24   ar
    24    24    25    2
    25    24    26   ar
    26    26    27   ar
    27    27     6   ar
    28    26     9   ar
    29    23    12   ar
    30    21    16   ar
    31     1    28    1
    32     1    29    1
    33     1    30    1
    34     5    31    1
    35     7    32    1
    36     8    33    1
    37    10    34    1
    38    11    35    1
    39    14    36    1
    40    17    37    1
    41    18    38    1
    42    19    39    1
    43    20    40    1
    44    21    41    1
    45    22    42    1
    46    27    43    1
