@<TRIPOS>MOLECULE
*****
 50 54 0 0 0
SMALL
GASTEIGER

@<TRIPOS>ATOM
      1 C           3.6263   -2.4640    2.1361 C.3     1  UNL1       -0.0361
      2 C           3.2152   -1.4112    1.1698 C.ar    1  UNL1       -0.0041
      3 C           1.9018   -0.9308    1.1464 C.ar    1  UNL1       -0.0324
      4 C           1.5598    0.0297    0.2524 C.ar    1  UNL1        0.0545
      5 N           0.2118    0.5381    0.2045 N.am    1  UNL1       -0.2530
      6 C          -0.2392    1.6286    0.9968 C.2     1  UNL1        0.2542
      7 O           0.4685    2.2670    1.8535 O.2     1  UNL1       -0.2695
      8 C          -1.6292    1.8780    0.6577 C.ar    1  UNL1        0.0722
      9 C          -2.7044    2.7127    0.9583 C.ar    1  UNL1        0.0664
     10 C          -2.6873    3.7863    1.9204 C.2     1  UNL1        0.2437
     11 N          -3.8785    4.5417    2.1029 N.am    1  UNL1       -0.3253
     12 O          -1.6696    4.0535    2.5764 O.2     1  UNL1       -0.2703
     13 C          -3.7388    2.2880    0.1553 C.ar    1  UNL1        0.0175
     14 N          -3.3139    1.2569   -0.5871 N.ar    1  UNL1       -0.3503
     15 C          -4.1115    0.5341   -1.5581 C.3     1  UNL1        0.0117
     16 C          -2.0103    0.9757   -0.3010 C.ar    1  UNL1        0.0569
     17 C          -0.8692    0.0916   -0.6088 C.3     1  UNL1        0.0973
     18 C          -1.2081   -1.3313   -0.4733 C.ar    1  UNL1       -0.0208
     19 C          -1.3939   -2.0889   -1.6066 C.ar    1  UNL1       -0.0550
     20 C          -1.7227   -3.4343   -1.5298 C.ar    1  UNL1       -0.0431
     21 C          -1.8661   -4.0237   -0.2902 C.ar    1  UNL1        0.0410
     22 CL         -2.2842   -5.7350   -0.1809 Cl      1  UNL1       -0.0835
     23 C          -1.6781   -3.2573    0.8470 C.ar    1  UNL1       -0.0431
     24 C          -1.3460   -1.8984    0.7571 C.ar    1  UNL1       -0.0550
     25 C           2.4668    0.5412   -0.6273 C.ar    1  UNL1        0.0344
     26 N           3.7473    0.0917   -0.6244 N.ar    1  UNL1       -0.2846
     27 C           4.8058    0.4387   -1.3854 C.ar    1  UNL1        0.1347
     28 C           4.8476    1.4477   -2.4731 C.3     1  UNL1       -0.0041
     29 N           5.8158   -0.3382   -0.9344 N.ar    1  UNL1       -0.1340
     30 N           5.3946   -1.1110    0.0428 N.ar    1  UNL1       -0.1292
     31 C           4.0904   -0.8579    0.2574 C.ar    1  UNL1        0.1641
     32 H           4.1396   -3.2607    1.5349 H       1  UNL1        0.0279
     33 H           2.7203   -2.8449    2.6352 H       1  UNL1        0.0279
     34 H           4.3676   -2.0563    2.8734 H       1  UNL1        0.0279
     35 H           1.2471   -1.3779    1.8696 H       1  UNL1        0.0640
     36 H          -4.1599    4.7710    3.0790 H       1  UNL1        0.1453
     37 H          -4.4027    4.8233    1.2485 H       1  UNL1        0.1453
     38 H          -4.7279    2.7357    0.1468 H       1  UNL1        0.0817
     39 H          -4.9463    1.1482   -1.9506 H       1  UNL1        0.0456
     40 H          -4.5855   -0.3467   -1.0470 H       1  UNL1        0.0456
     41 H          -3.5057    0.2065   -2.4289 H       1  UNL1        0.0456
     42 H          -0.6059    0.3285   -1.6936 H       1  UNL1        0.0619
     43 H          -1.2912   -1.6663   -2.5864 H       1  UNL1        0.0621
     44 H          -1.8710   -4.0390   -2.4145 H       1  UNL1        0.0632
     45 H          -1.7935   -3.7316    1.8135 H       1  UNL1        0.0632
     46 H          -1.2109   -1.3475    1.6779 H       1  UNL1        0.0621
     47 H           2.2243    1.3156   -1.3602 H       1  UNL1        0.0833
     48 H           5.8947    1.5911   -2.7917 H       1  UNL1        0.0308
     49 H           4.4803    2.4409   -2.1349 H       1  UNL1        0.0308
     50 H           4.2258    1.0909   -3.3255 H       1  UNL1        0.0308
@<TRIPOS>BOND
     1     1     2    1
     2     2     3   ar
     3     3     4   ar
     4     4     5    1
     5     5     6   am
     6     6     7    2
     7     6     8    1
     8     8     9   ar
     9     9    10    1
    10    10    11   am
    11    10    12    2
    12     9    13   ar
    13    13    14   ar
    14    14    15    1
    15    14    16   ar
    16    16    17    1
    17    17    18    1
    18    18    19   ar
    19    19    20   ar
    20    20    21   ar
    21    21    22    1
    22    21    23   ar
    23    23    24   ar
    24     4    25   ar
    25    25    26   ar
    26    26    27   ar
    27    27    28    1
    28    27    29   ar
    29    29    30   ar
    30    30    31   ar
    31    31     2   ar
    32    17     5    1
    33    24    18   ar
    34    31    26   ar
    35    16     8   ar
    36     1    32    1
    37     1    33    1
    38     1    34    1
    39     3    35    1
    40    11    36    1
    41    11    37    1
    42    13    38    1
    43    15    39    1
    44    15    40    1
    45    15    41    1
    46    17    42    1
    47    19    43    1
    48    20    44    1
    49    23    45    1
    50    24    46    1
    51    25    47    1
    52    28    48    1
    53    28    49    1
    54    28    50    1
