
     RDKit          3D

 50 54  0  0  0  0  0  0  0  0999 V2000
    3.6263   -2.4640    2.1361 C   0  0  0  0  0  0  0  0  0  0  0  0
    3.2152   -1.4112    1.1698 C   0  0  0  0  0  0  0  0  0  0  0  0
    1.9018   -0.9308    1.1464 C   0  0  0  0  0  0  0  0  0  0  0  0
    1.5598    0.0297    0.2524 C   0  0  0  0  0  0  0  0  0  0  0  0
    0.2118    0.5381    0.2045 N   0  0  0  0  0  0  0  0  0  0  0  0
   -0.2392    1.6286    0.9968 C   0  0  0  0  0  0  0  0  0  0  0  0
    0.4685    2.2670    1.8535 O   0  0  0  0  0  0  0  0  0  0  0  0
   -1.6292    1.8780    0.6577 C   0  0  0  0  0  0  0  0  0  0  0  0
   -2.7044    2.7127    0.9583 C   0  0  0  0  0  0  0  0  0  0  0  0
   -2.6873    3.7863    1.9204 C   0  0  0  0  0  0  0  0  0  0  0  0
   -3.8785    4.5417    2.1029 N   0  0  0  0  0  0  0  0  0  0  0  0
   -1.6696    4.0535    2.5764 O   0  0  0  0  0  0  0  0  0  0  0  0
   -3.7388    2.2880    0.1553 C   0  0  0  0  0  0  0  0  0  0  0  0
   -3.3139    1.2569   -0.5871 N   0  0  0  0  0  0  0  0  0  0  0  0
   -4.1115    0.5341   -1.5581 C   0  0  0  0  0  0  0  0  0  0  0  0
   -2.0103    0.9757   -0.3010 C   0  0  0  0  0  0  0  0  0  0  0  0
   -0.8692    0.0916   -0.6088 C   0  0  0  0  0  0  0  0  0  0  0  0
   -1.2081   -1.3313   -0.4733 C   0  0  0  0  0  0  0  0  0  0  0  0
   -1.3939   -2.0889   -1.6066 C   0  0  0  0  0  0  0  0  0  0  0  0
   -1.7227   -3.4343   -1.5298 C   0  0  0  0  0  0  0  0  0  0  0  0
   -1.8661   -4.0237   -0.2902 C   0  0  0  0  0  0  0  0  0  0  0  0
   -2.2842   -5.7350   -0.1809 Cl  0  0  0  0  0  0  0  0  0  0  0  0
   -1.6781   -3.2573    0.8470 C   0  0  0  0  0  0  0  0  0  0  0  0
   -1.3460   -1.8984    0.7571 C   0  0  0  0  0  0  0  0  0  0  0  0
    2.4668    0.5412   -0.6273 C   0  0  0  0  0  0  0  0  0  0  0  0
    3.7473    0.0917   -0.6244 N   0  0  0  0  0  0  0  0  0  0  0  0
    4.8058    0.4387   -1.3854 C   0  0  0  0  0  0  0  0  0  0  0  0
    4.8476    1.4477   -2.4731 C   0  0  0  0  0  0  0  0  0  0  0  0
    5.8158   -0.3382   -0.9344 N   0  0  0  0  0  0  0  0  0  0  0  0
    5.3946   -1.1110    0.0428 N   0  0  0  0  0  0  0  0  0  0  0  0
    4.0904   -0.8579    0.2574 C   0  0  0  0  0  0  0  0  0  0  0  0
    4.1396   -3.2607    1.5349 H   0  0  0  0  0  0  0  0  0  0  0  0
    2.7203   -2.8449    2.6352 H   0  0  0  0  0  0  0  0  0  0  0  0
    4.3676   -2.0563    2.8734 H   0  0  0  0  0  0  0  0  0  0  0  0
    1.2471   -1.3779    1.8696 H   0  0  0  0  0  0  0  0  0  0  0  0
   -4.1599    4.7710    3.0790 H   0  0  0  0  0  0  0  0  0  0  0  0
   -4.4027    4.8233    1.2485 H   0  0  0  0  0  0  0  0  0  0  0  0
   -4.7279    2.7357    0.1468 H   0  0  0  0  0  0  0  0  0  0  0  0
   -4.9463    1.1482   -1.9506 H   0  0  0  0  0  0  0  0  0  0  0  0
   -4.5855   -0.3467   -1.0470 H   0  0  0  0  0  0  0  0  0  0  0  0
   -3.5057    0.2065   -2.4289 H   0  0  0  0  0  0  0  0  0  0  0  0
   -0.6059    0.3285   -1.6936 H   0  0  0  0  0  0  0  0  0  0  0  0
   -1.2912   -1.6663   -2.5864 H   0  0  0  0  0  0  0  0  0  0  0  0
   -1.8710   -4.0390   -2.4145 H   0  0  0  0  0  0  0  0  0  0  0  0
   -1.7935   -3.7316    1.8135 H   0  0  0  0  0  0  0  0  0  0  0  0
   -1.2109   -1.3475    1.6779 H   0  0  0  0  0  0  0  0  0  0  0  0
    2.2243    1.3156   -1.3602 H   0  0  0  0  0  0  0  0  0  0  0  0
    5.8947    1.5911   -2.7917 H   0  0  0  0  0  0  0  0  0  0  0  0
    4.4803    2.4409   -2.1349 H   0  0  0  0  0  0  0  0  0  0  0  0
    4.2258    1.0909   -3.3255 H   0  0  0  0  0  0  0  0  0  0  0  0
  1  2  1  0
  2  3  2  0
  3  4  1  0
  4  5  1  0
  5  6  1  0
  6  7  2  0
  6  8  1  0
  8  9  1  0
  9 10  1  0
 10 11  1  0
 10 12  2  0
  9 13  2  0
 13 14  1  0
 14 15  1  0
 14 16  1  0
 16 17  1  0
 17 18  1  0
 18 19  2  0
 19 20  1  0
 20 21  2  0
 21 22  1  0
 21 23  1  0
 23 24  2  0
  4 25  2  0
 25 26  1  0
 26 27  1  0
 27 28  1  0
 27 29  2  0
 29 30  1  0
 30 31  2  0
 31  2  1  0
 17  5  1  0
 24 18  1  0
 31 26  1  0
 16  8  2  0
  1 32  1  0
  1 33  1  0
  1 34  1  0
  3 35  1  0
 11 36  1  0
 11 37  1  0
 13 38  1  0
 15 39  1  0
 15 40  1  0
 15 41  1  0
 17 42  1  0
 19 43  1  0
 20 44  1  0
 23 45  1  0
 24 46  1  0
 25 47  1  0
 28 48  1  0
 28 49  1  0
 28 50  1  0
M  END
$$$$
