
     RDKit          3D

 37 37  0  0  0  0  0  0  0  0999 V2000
   -3.9252   -1.7873    0.3557 C   0  0  0  0  0  0  0  0  0  0  0  0
   -3.4981   -0.9383   -0.7828 C   0  0  0  0  0  0  0  0  0  0  0  0
   -2.9787    0.3324   -0.5300 N   0  0  0  0  0  0  0  0  0  0  0  0
   -3.7973    1.3573   -0.0334 C   0  0  0  0  0  0  0  0  0  0  0  0
   -4.3195    1.2414    1.3514 C   0  0  0  0  0  0  0  0  0  0  0  0
   -1.5864    0.4267   -0.2172 C   0  0  0  0  0  0  0  0  0  0  0  0
   -0.7368    0.0751   -1.4254 C   0  0  0  0  0  0  0  0  0  0  0  0
    0.6397    0.1597   -1.1526 O   0  0  0  0  0  0  0  0  0  0  0  0
    1.3091   -0.5654   -0.1949 C   0  0  0  0  0  0  0  0  0  0  0  0
    0.7446   -1.3825    0.5412 O   0  0  0  0  0  0  0  0  0  0  0  0
    2.7522   -0.3415   -0.0610 C   0  0  0  0  0  0  0  0  0  0  0  0
    3.5578   -0.9711    0.8456 C   0  0  0  0  0  0  0  0  0  0  0  0
    4.9218   -0.7164    0.9136 C   0  0  0  0  0  0  0  0  0  0  0  0
    5.5212    0.1783    0.0737 C   0  0  0  0  0  0  0  0  0  0  0  0
    6.9147    0.5143    0.0554 N   0  0  0  0  0  0  0  0  0  0  0  0
    4.7541    0.8498   -0.8689 C   0  0  0  0  0  0  0  0  0  0  0  0
    3.4154    0.5598   -0.8912 C   0  0  0  0  0  0  0  0  0  0  0  0
   -4.5417   -1.3327    1.1233 H   0  0  0  0  0  0  0  0  0  0  0  0
   -4.5714   -2.6064   -0.0860 H   0  0  0  0  0  0  0  0  0  0  0  0
   -3.0690   -2.3772    0.8004 H   0  0  0  0  0  0  0  0  0  0  0  0
   -4.4106   -0.8082   -1.4377 H   0  0  0  0  0  0  0  0  0  0  0  0
   -2.8308   -1.5865   -1.4246 H   0  0  0  0  0  0  0  0  0  0  0  0
   -3.2078    2.3214   -0.1154 H   0  0  0  0  0  0  0  0  0  0  0  0
   -4.6673    1.4762   -0.7283 H   0  0  0  0  0  0  0  0  0  0  0  0
   -4.3783    2.2871    1.7854 H   0  0  0  0  0  0  0  0  0  0  0  0
   -3.7053    0.6882    2.0676 H   0  0  0  0  0  0  0  0  0  0  0  0
   -5.3669    0.8809    1.4296 H   0  0  0  0  0  0  0  0  0  0  0  0
   -1.3683    1.5081    0.0072 H   0  0  0  0  0  0  0  0  0  0  0  0
   -1.2725   -0.2183    0.6341 H   0  0  0  0  0  0  0  0  0  0  0  0
   -0.9215   -0.9809   -1.7506 H   0  0  0  0  0  0  0  0  0  0  0  0
   -0.9233    0.7762   -2.2562 H   0  0  0  0  0  0  0  0  0  0  0  0
    3.1043   -1.6898    1.5273 H   0  0  0  0  0  0  0  0  0  0  0  0
    5.5563   -1.2184    1.6329 H   0  0  0  0  0  0  0  0  0  0  0  0
    7.4951    0.9499    0.8018 H   0  0  0  0  0  0  0  0  0  0  0  0
    7.4167    0.2850   -0.8428 H   0  0  0  0  0  0  0  0  0  0  0  0
    5.1672    1.5703   -1.5614 H   0  0  0  0  0  0  0  0  0  0  0  0
    2.8067    1.0825   -1.6263 H   0  0  0  0  0  0  0  0  0  0  0  0
  1  2  1  0
  2  3  1  0
  3  4  1  0
  4  5  1  0
  3  6  1  0
  6  7  1  0
  7  8  1  0
  8  9  1  0
  9 10  2  0
  9 11  1  0
 11 12  2  0
 12 13  1  0
 13 14  2  0
 14 15  1  0
 14 16  1  0
 16 17  2  0
 17 11  1  0
  1 18  1  0
  1 19  1  0
  1 20  1  0
  2 21  1  0
  2 22  1  0
  4 23  1  0
  4 24  1  0
  5 25  1  0
  5 26  1  0
  5 27  1  0
  6 28  1  0
  6 29  1  0
  7 30  1  0
  7 31  1  0
 12 32  1  0
 13 33  1  0
 15 34  1  0
 15 35  1  0
 16 36  1  0
 17 37  1  0
M  END
$$$$
