@<TRIPOS>MOLECULE
*****
 53 55 0 0 0
SMALL
GASTEIGER

@<TRIPOS>ATOM
      1 C          -4.6252   -0.5065   -2.9190 C.3     1  UNL1       -0.0570
      2 C          -4.3513    0.6487   -1.9549 C.3     1  UNL1        0.0217
      3 C          -2.9376    0.5400   -1.5218 C.2     1  UNL1        0.2198
      4 O          -2.1109    0.5149   -2.4942 O.2     1  UNL1       -0.2753
      5 N          -2.5050    0.4666   -0.1663 N.am    1  UNL1       -0.2683
      6 C          -1.1058    0.4258    0.0982 C.3     1  UNL1        0.0334
      7 C          -0.5886    1.4779    1.0034 C.3     1  UNL1       -0.0210
      8 C           0.9087    1.3521    1.1114 C.3     1  UNL1        0.0006
      9 N           1.4954    0.1092    0.8523 N.3     1  UNL1       -0.3019
     10 C           2.8621    0.2297    0.4836 C.3     1  UNL1        0.0029
     11 C           3.5210   -1.0852    0.1470 C.3     1  UNL1       -0.0149
     12 C           4.9580   -0.8152   -0.2172 C.ar    1  UNL1       -0.0462
     13 C           5.9023   -0.8568    0.7937 C.ar    1  UNL1       -0.0585
     14 C           7.2656   -0.6205    0.5831 C.ar    1  UNL1       -0.0615
     15 C           7.6470   -0.3308   -0.7314 C.ar    1  UNL1       -0.0617
     16 C           6.7147   -0.2902   -1.7260 C.ar    1  UNL1       -0.0615
     17 C           5.3878   -0.5238   -1.5041 C.ar    1  UNL1       -0.0585
     18 C           0.7867   -1.0201    0.4472 C.3     1  UNL1        0.0006
     19 C          -0.6907   -0.9098    0.7441 C.3     1  UNL1       -0.0210
     20 C          -3.5567    0.4553    0.7952 C.ar    1  UNL1        0.0366
     21 C          -4.0700    1.6095    1.3483 C.ar    1  UNL1       -0.0403
     22 C          -5.0861    1.4312    2.2682 C.ar    1  UNL1       -0.0600
     23 C          -5.5594    0.1784    2.6126 C.ar    1  UNL1       -0.0616
     24 C          -5.0193   -0.9487    2.0354 C.ar    1  UNL1       -0.0600
     25 C          -4.0022   -0.8213    1.1112 C.ar    1  UNL1       -0.0403
     26 H          -3.6843   -1.0675   -3.1392 H       1  UNL1        0.0234
     27 H          -5.3066   -1.2471   -2.4073 H       1  UNL1        0.0234
     28 H          -5.1291   -0.1753   -3.8512 H       1  UNL1        0.0234
     29 H          -5.0871    0.6152   -1.1582 H       1  UNL1        0.0356
     30 H          -4.5017    1.5813   -2.5556 H       1  UNL1        0.0356
     31 H          -0.5757    0.4897   -0.8831 H       1  UNL1        0.0505
     32 H          -0.9069    2.5072    0.7356 H       1  UNL1        0.0296
     33 H          -0.9792    1.2634    2.0350 H       1  UNL1        0.0296
     34 H           1.2762    1.7949    2.0782 H       1  UNL1        0.0427
     35 H           1.3105    2.0769    0.3355 H       1  UNL1        0.0427
     36 H           3.4866    0.6803    1.2978 H       1  UNL1        0.0430
     37 H           3.0130    0.8943   -0.4147 H       1  UNL1        0.0430
     38 H           3.5183   -1.7911    0.9872 H       1  UNL1        0.0326
     39 H           3.0573   -1.5004   -0.7883 H       1  UNL1        0.0326
     40 H           5.6720   -1.0728    1.8194 H       1  UNL1        0.0620
     41 H           7.9886   -0.6584    1.3856 H       1  UNL1        0.0618
     42 H           8.6983   -0.1425   -0.9265 H       1  UNL1        0.0618
     43 H           7.0209   -0.0647   -2.7392 H       1  UNL1        0.0618
     44 H           4.6186   -0.4998   -2.2639 H       1  UNL1        0.0620
     45 H           1.1044   -1.9755    0.9445 H       1  UNL1        0.0427
     46 H           0.8538   -1.1736   -0.6760 H       1  UNL1        0.0427
     47 H          -0.8018   -0.8102    1.8403 H       1  UNL1        0.0296
     48 H          -1.2803   -1.7394    0.3072 H       1  UNL1        0.0296
     49 H          -3.6677    2.5640    1.0452 H       1  UNL1        0.0636
     50 H          -5.5245    2.3277    2.7316 H       1  UNL1        0.0618
     51 H          -6.3588    0.0579    3.3371 H       1  UNL1        0.0618
     52 H          -5.4146   -1.9107    2.3315 H       1  UNL1        0.0618
     53 H          -3.6405   -1.7339    0.7168 H       1  UNL1        0.0636
@<TRIPOS>BOND
     1     1     2    1
     2     2     3    1
     3     3     4    2
     4     3     5   am
     5     5     6    1
     6     6     7    1
     7     7     8    1
     8     8     9    1
     9     9    10    1
    10    10    11    1
    11    11    12    1
    12    12    13   ar
    13    13    14   ar
    14    14    15   ar
    15    15    16   ar
    16    16    17   ar
    17     9    18    1
    18    18    19    1
    19     5    20    1
    20    20    21   ar
    21    21    22   ar
    22    22    23   ar
    23    23    24   ar
    24    24    25   ar
    25    19     6    1
    26    25    20   ar
    27    17    12   ar
    28     1    26    1
    29     1    27    1
    30     1    28    1
    31     2    29    1
    32     2    30    1
    33     6    31    1
    34     7    32    1
    35     7    33    1
    36     8    34    1
    37     8    35    1
    38    10    36    1
    39    10    37    1
    40    11    38    1
    41    11    39    1
    42    13    40    1
    43    14    41    1
    44    15    42    1
    45    16    43    1
    46    17    44    1
    47    18    45    1
    48    18    46    1
    49    19    47    1
    50    19    48    1
    51    21    49    1
    52    22    50    1
    53    23    51    1
    54    24    52    1
    55    25    53    1
