@<TRIPOS>MOLECULE
*****
 40 42 0 0 0
SMALL
GASTEIGER

@<TRIPOS>ATOM
      1 C          -4.3151   -2.5817    1.6276 C.3     1  UNL1       -0.0397
      2 C          -3.4423   -1.4849    1.1112 C.ar    1  UNL1       -0.0504
      3 C          -2.5233   -1.7307    0.1276 C.ar    1  UNL1       -0.0582
      4 C          -1.7136   -0.7305   -0.3568 C.ar    1  UNL1       -0.0523
      5 C          -1.8113    0.5453    0.1404 C.ar    1  UNL1        0.0005
      6 C          -0.9801    1.6460   -0.3336 C.ar    1  UNL1        0.0752
      7 C          -1.5028    2.8999   -0.6186 C.ar    1  UNL1       -0.0039
      8 C          -0.4362    3.6686   -1.0340 C.ar    1  UNL1        0.1662
      9 C          -0.4891    5.0928   -1.4515 C.3     1  UNL1        0.4360
     10 F          -0.0424    5.2604   -2.7563 F       1  UNL1       -0.1644
     11 F          -1.7823    5.5747   -1.4192 F       1  UNL1       -0.1644
     12 F           0.3099    5.8855   -0.6353 F       1  UNL1       -0.1644
     13 N           0.6398    2.8943   -0.9887 N.ar    1  UNL1       -0.1618
     14 N           0.3441    1.6740   -0.5718 N.ar    1  UNL1       -0.2316
     15 C           1.2361    0.5796   -0.3986 C.ar    1  UNL1        0.0661
     16 C           1.7713   -0.0881   -1.4762 C.ar    1  UNL1       -0.0344
     17 C           2.6319   -1.1436   -1.2619 C.ar    1  UNL1       -0.0334
     18 C           2.9851   -1.5658    0.0031 C.ar    1  UNL1        0.1051
     19 S           4.0681   -2.8938    0.2935 S.O2    1  UNL1        0.0559
     20 N           5.6927   -2.3257    0.3833 N.3     1  UNL1       -0.2035
     21 O           3.9113   -3.9496   -0.7839 O.2     1  UNL1       -0.1533
     22 O           3.7197   -3.5035    1.6208 O.2     1  UNL1       -0.1533
     23 C           2.4504   -0.8986    1.0806 C.ar    1  UNL1       -0.0334
     24 C           1.5895    0.1573    0.8706 C.ar    1  UNL1       -0.0344
     25 C          -2.7368    0.7888    1.1297 C.ar    1  UNL1       -0.0523
     26 C          -3.5552   -0.2088    1.6236 C.ar    1  UNL1       -0.0582
     27 H          -4.5656   -2.3804    2.6760 H       1  UNL1        0.0278
     28 H          -3.7571   -3.5345    1.5074 H       1  UNL1        0.0278
     29 H          -5.2291   -2.6108    1.0073 H       1  UNL1        0.0278
     30 H          -2.4567   -2.7609   -0.2618 H       1  UNL1        0.0620
     31 H          -0.9868   -0.9235   -1.1344 H       1  UNL1        0.0624
     32 H          -2.5503    3.2049   -0.5283 H       1  UNL1        0.0660
     33 H           1.5272    0.2021   -2.5103 H       1  UNL1        0.0639
     34 H           3.0565   -1.6734   -2.1162 H       1  UNL1        0.0638
     35 H           5.7985   -1.3363    0.0968 H       1  UNL1        0.1442
     36 H           6.3696   -2.9693   -0.0704 H       1  UNL1        0.1442
     37 H           2.7231   -1.2243    2.0684 H       1  UNL1        0.0638
     38 H           1.2011    0.6431    1.7763 H       1  UNL1        0.0639
     39 H          -2.8719    1.7819    1.5751 H       1  UNL1        0.0624
     40 H          -4.2779    0.0195    2.4081 H       1  UNL1        0.0620
@<TRIPOS>BOND
     1     1     2    1
     2     2     3   ar
     3     3     4   ar
     4     4     5   ar
     5     5     6    1
     6     6     7   ar
     7     7     8   ar
     8     8     9    1
     9     9    10    1
    10     9    11    1
    11     9    12    1
    12     8    13   ar
    13    13    14   ar
    14    14    15    1
    15    15    16   ar
    16    16    17   ar
    17    17    18   ar
    18    18    19    1
    19    19    20    1
    20    19    21    2
    21    19    22    2
    22    18    23   ar
    23    23    24   ar
    24     5    25   ar
    25    25    26   ar
    26    26     2   ar
    27    14     6   ar
    28    24    15   ar
    29     1    27    1
    30     1    28    1
    31     1    29    1
    32     3    30    1
    33     4    31    1
    34     7    32    1
    35    16    33    1
    36    17    34    1
    37    20    35    1
    38    20    36    1
    39    23    37    1
    40    24    38    1
    41    25    39    1
    42    26    40    1
