@<TRIPOS>MOLECULE
*****
 40 40 0 0 0
SMALL
GASTEIGER

@<TRIPOS>ATOM
      1 C           4.3662   -0.0027    1.9572 C.3     1  UNL1       -0.0492
      2 C           3.2498   -1.0153    2.0695 C.3     1  UNL1        0.0147
      3 N           3.1858   -1.9053    0.9204 N.am    1  UNL1       -0.2704
      4 C           3.8885   -3.1530    0.8254 C.3     1  UNL1        0.0063
      5 C           2.3735   -1.5106   -0.1783 C.2     1  UNL1        0.4079
      6 O           1.8566   -0.3972    0.1184 O.2     1  UNL1       -0.2258
      7 O           1.5772   -1.1095   -1.2392 O.3     1  UNL1       -0.4114
      8 C           0.8569    0.0944   -1.2269 C.ar    1  UNL1        0.1335
      9 C           1.3782    1.2864   -1.6875 C.ar    1  UNL1       -0.0192
     10 C           0.6250    2.4307   -1.6498 C.ar    1  UNL1       -0.0580
     11 C          -0.6414    2.2990   -1.1364 C.ar    1  UNL1       -0.0569
     12 C          -1.2570    1.1371   -0.6463 C.ar    1  UNL1       -0.0271
     13 C          -0.4265    0.0396   -0.7236 C.ar    1  UNL1       -0.0145
     14 C          -2.6385    1.1972   -0.1272 C.3     1  UNL1        0.0323
     15 C          -2.6978    1.4286    1.3787 C.3     1  UNL1       -0.0454
     16 N          -3.5164    0.1652   -0.5859 N.3     1  UNL1       -0.3017
     17 C          -4.8947    0.5971   -0.2843 C.3     1  UNL1       -0.0125
     18 C          -3.3382   -1.1259   -0.0142 C.3     1  UNL1       -0.0125
     19 H           4.7169    0.1449    0.9249 H       1  UNL1        0.0245
     20 H           5.2237   -0.3637    2.5664 H       1  UNL1        0.0245
     21 H           4.0596    1.0031    2.3216 H       1  UNL1        0.0245
     22 H           3.3545   -1.6218    2.9870 H       1  UNL1        0.0463
     23 H           2.2989   -0.4242    2.1690 H       1  UNL1        0.0463
     24 H           3.9327   -3.6131    1.8312 H       1  UNL1        0.0429
     25 H           4.9391   -3.0496    0.4784 H       1  UNL1        0.0429
     26 H           3.3404   -3.8508    0.1659 H       1  UNL1        0.0429
     27 H           2.3788    1.3122   -2.0761 H       1  UNL1        0.0654
     28 H           0.9685    3.3855   -1.9904 H       1  UNL1        0.0619
     29 H          -1.2530    3.2158   -1.1033 H       1  UNL1        0.0621
     30 H          -0.8246   -0.8960   -0.3637 H       1  UNL1        0.0657
     31 H          -3.0954    2.1554   -0.5398 H       1  UNL1        0.0509
     32 H          -2.1398    2.3952    1.5437 H       1  UNL1        0.0248
     33 H          -2.3131    0.6044    1.9728 H       1  UNL1        0.0248
     34 H          -3.7411    1.6347    1.6893 H       1  UNL1        0.0248
     35 H          -5.1745    0.2443    0.7239 H       1  UNL1        0.0391
     36 H          -5.5395    0.1138   -1.0389 H       1  UNL1        0.0391
     37 H          -4.9800    1.7049   -0.2767 H       1  UNL1        0.0391
     38 H          -4.3549   -1.5324    0.2663 H       1  UNL1        0.0391
     39 H          -2.7917   -1.1359    0.9602 H       1  UNL1        0.0391
     40 H          -2.9527   -1.8825   -0.7307 H       1  UNL1        0.0391
@<TRIPOS>BOND
     1     1     2    1
     2     2     3    1
     3     3     4    1
     4     3     5   am
     5     5     6    2
     6     5     7    1
     7     7     8    1
     8     8     9   ar
     9     9    10   ar
    10    10    11   ar
    11    11    12   ar
    12    12    13   ar
    13    12    14    1
    14    14    15    1
    15    14    16    1
    16    16    17    1
    17    16    18    1
    18    13     8   ar
    19     1    19    1
    20     1    20    1
    21     1    21    1
    22     2    22    1
    23     2    23    1
    24     4    24    1
    25     4    25    1
    26     4    26    1
    27     9    27    1
    28    10    28    1
    29    11    29    1
    30    13    30    1
    31    14    31    1
    32    15    32    1
    33    15    33    1
    34    15    34    1
    35    17    35    1
    36    17    36    1
    37    17    37    1
    38    18    38    1
    39    18    39    1
    40    18    40    1
