@<TRIPOS>MOLECULE
*****
 45 48 0 0 0
SMALL
GASTEIGER

@<TRIPOS>ATOM
      1 C           4.2156    1.4837   -0.2297 C.3     1  UNL1       -0.0633
      2 C           2.8573    0.7765   -0.4181 C.3     1  UNL1       -0.0328
      3 C           2.8750   -0.4310    0.4488 C.3     1  UNL1        0.0588
      4 C           3.0604    0.0549    1.8957 C.3     1  UNL1        0.0650
      5 O           1.9773    0.8970    2.2099 O.3     1  UNL1       -0.3930
      6 N           1.7516   -1.2870    0.4066 N.ar    1  UNL1       -0.3231
      7 C           1.8410   -2.6073    0.7644 C.ar    1  UNL1        0.0974
      8 N           0.6262   -3.1518    0.6170 N.ar    1  UNL1       -0.2351
      9 C          -0.2485   -2.2276    0.1750 C.ar    1  UNL1        0.0982
     10 C          -1.6684   -2.3914   -0.1214 C.ar    1  UNL1        0.0027
     11 C          -2.1584   -2.2353   -1.4042 C.ar    1  UNL1       -0.0498
     12 C          -3.4987   -2.3876   -1.6918 C.ar    1  UNL1       -0.0258
     13 C          -4.4136   -2.7036   -0.7102 C.ar    1  UNL1        0.1234
     14 F          -5.7432   -2.8549   -0.9964 F       1  UNL1       -0.2055
     15 C          -3.9361   -2.8620    0.5740 C.ar    1  UNL1       -0.0258
     16 C          -2.5872   -2.7085    0.8630 C.ar    1  UNL1       -0.0498
     17 C           0.4972   -1.0502    0.0507 C.ar    1  UNL1        0.0969
     18 C          -0.0821    0.1993   -0.4030 C.ar    1  UNL1        0.1103
     19 C          -0.0848    0.4827   -1.7479 C.ar    1  UNL1       -0.0290
     20 C          -0.6352    1.6546   -2.1985 C.ar    1  UNL1       -0.0153
     21 C          -1.1800    2.5338   -1.2865 C.ar    1  UNL1        0.1555
     22 N          -1.7817    3.7500   -1.4665 N.ar    1  UNL1       -0.2333
     23 C          -2.1515    4.2262   -0.2667 C.ar    1  UNL1        0.0659
     24 C          -1.7660    3.2834    0.6401 C.ar    1  UNL1        0.1618
     25 C          -1.9509    3.3521    2.0678 C.1     1  UNL1        0.1208
     26 N          -2.1015    3.4189    3.2084 N.1     1  UNL1       -0.1892
     27 N          -1.1640    2.2352    0.0041 N.ar    1  UNL1       -0.2023
     28 N          -0.6308    1.1019    0.4311 N.ar    1  UNL1       -0.1623
     29 H           4.9640    0.6538   -0.1838 H       1  UNL1        0.0230
     30 H           4.2245    2.1200    0.6531 H       1  UNL1        0.0230
     31 H           4.4739    2.0794   -1.1297 H       1  UNL1        0.0230
     32 H           2.8256    0.5140   -1.4869 H       1  UNL1        0.0283
     33 H           2.0526    1.4634   -0.0853 H       1  UNL1        0.0283
     34 H           3.8004   -1.0244    0.1736 H       1  UNL1        0.0551
     35 H           4.0072    0.5829    2.0156 H       1  UNL1        0.0578
     36 H           3.0284   -0.7774    2.6092 H       1  UNL1        0.0578
     37 H           1.2170    0.3022    2.4799 H       1  UNL1        0.2095
     38 H           2.7013   -3.1604    1.1085 H       1  UNL1        0.1029
     39 H          -1.5055   -1.9869   -2.2347 H       1  UNL1        0.0625
     40 H          -3.8855   -2.2626   -2.7128 H       1  UNL1        0.0646
     41 H          -4.6498   -3.1094    1.3482 H       1  UNL1        0.0646
     42 H          -2.2070   -2.8332    1.8780 H       1  UNL1        0.0625
     43 H           0.3446   -0.2054   -2.4909 H       1  UNL1        0.0641
     44 H          -0.6557    1.9149   -3.2659 H       1  UNL1        0.0655
     45 H          -2.6548    5.1768   -0.0916 H       1  UNL1        0.0859
@<TRIPOS>BOND
     1     1     2    1
     2     2     3    1
     3     3     4    1
     4     4     5    1
     5     3     6    1
     6     6     7   ar
     7     7     8   ar
     8     8     9   ar
     9     9    10    1
    10    10    11   ar
    11    11    12   ar
    12    12    13   ar
    13    13    14    1
    14    13    15   ar
    15    15    16   ar
    16     9    17   ar
    17    17    18    1
    18    18    19   ar
    19    19    20   ar
    20    20    21   ar
    21    21    22   ar
    22    22    23   ar
    23    23    24   ar
    24    24    25    1
    25    25    26    3
    26    24    27   ar
    27    27    28   ar
    28    17     6   ar
    29    28    18   ar
    30    16    10   ar
    31    27    21   ar
    32     1    29    1
    33     1    30    1
    34     1    31    1
    35     2    32    1
    36     2    33    1
    37     3    34    1
    38     4    35    1
    39     4    36    1
    40     5    37    1
    41     7    38    1
    42    11    39    1
    43    12    40    1
    44    15    41    1
    45    16    42    1
    46    19    43    1
    47    20    44    1
    48    23    45    1
