@<TRIPOS>MOLECULE
*****
 68 71 0 0 0
SMALL
GASTEIGER

@<TRIPOS>ATOM
      1 O           0.3527    0.1959    2.2562 O.2     1  UNL1       -0.2450
      2 C           0.6223    0.8954    1.2665 C.2     1  UNL1        0.3395
      3 O          -0.2736    1.7856    0.8086 O.3     1  UNL1       -0.4595
      4 C          -1.5240    2.1660    1.1330 C.3     1  UNL1        0.1100
      5 C          -2.6422    1.2377    0.7637 C.3     1  UNL1        0.0669
      6 C          -2.5012   -0.1012    1.3823 C.3     1  UNL1       -0.0074
      7 C          -3.6444   -1.0266    1.0629 C.ar    1  UNL1       -0.0455
      8 C          -4.7221   -1.0348    1.9271 C.ar    1  UNL1       -0.0551
      9 C          -5.7518   -1.9036    1.6377 C.ar    1  UNL1       -0.0199
     10 C          -5.6973   -2.7163    0.5404 C.ar    1  UNL1        0.1169
     11 O          -6.7321   -3.6107    0.2228 O.3     1  UNL1       -0.5068
     12 C          -4.6047   -2.6780   -0.2981 C.ar    1  UNL1       -0.0199
     13 C          -3.5439   -1.8149   -0.0412 C.ar    1  UNL1       -0.0551
     14 N          -2.6521    1.0989   -0.7028 N.3     1  UNL1       -0.1833
     15 S          -4.0279    1.7659   -1.4345 S.O2    1  UNL1        0.0588
     16 O          -4.1194    3.2524   -1.1289 O.2     1  UNL1       -0.1530
     17 O          -3.8345    1.7044   -2.9441 O.2     1  UNL1       -0.1530
     18 C          -5.5405    1.0723   -0.9885 C.ar    1  UNL1        0.1053
     19 C          -6.2493    1.5224    0.0918 C.ar    1  UNL1       -0.0354
     20 C          -7.4733    0.9579    0.4096 C.ar    1  UNL1       -0.0599
     21 C          -7.9646   -0.0620   -0.3778 C.ar    1  UNL1       -0.0616
     22 C          -7.2509   -0.5272   -1.4792 C.ar    1  UNL1       -0.0599
     23 C          -6.0531    0.0391   -1.7737 C.ar    1  UNL1       -0.0354
     24 C           1.9245    0.7357    0.6103 C.ar    1  UNL1        0.0659
     25 C           2.2660    1.4888   -0.4884 C.ar    1  UNL1       -0.0053
     26 C           3.4894    1.3262   -1.0892 C.ar    1  UNL1        0.1320
     27 O           3.8307    2.0998   -2.2114 O.3     1  UNL1       -0.5059
     28 C           4.4405    0.4155   -0.6418 C.ar    1  UNL1        0.1050
     29 C           5.6495    0.2304   -1.3886 C.2     1  UNL1        0.2044
     30 O           5.6036    0.5877   -2.6438 O.2     1  UNL1       -0.2863
     31 C           6.9198   -0.2981   -0.9958 C.ar    1  UNL1        0.0778
     32 C           7.5656   -1.1347   -1.9353 C.ar    1  UNL1        0.1285
     33 O           6.9321   -1.4070   -3.1558 O.3     1  UNL1       -0.5060
     34 C           8.7872   -1.6636   -1.6475 C.ar    1  UNL1       -0.0194
     35 C           9.4045   -1.3920   -0.4458 C.ar    1  UNL1       -0.0575
     36 C           8.7637   -0.5723    0.4569 C.ar    1  UNL1       -0.0468
     37 C           7.4992    0.0012    0.2004 C.ar    1  UNL1        0.0731
     38 C           7.0631    1.0011    1.1618 C.2     1  UNL1        0.3376
     39 O           6.1272    1.7794    0.8972 O.2     1  UNL1       -0.2451
     40 O           7.6724    1.1264    2.4123 O.3     1  UNL1       -0.4771
     41 C           4.0641   -0.3229    0.4601 C.ar    1  UNL1        0.1320
     42 O           4.9221   -1.2637    0.9924 O.3     1  UNL1       -0.5059
     43 C           2.8413   -0.1640    1.0659 C.ar    1  UNL1       -0.0053
     44 H          -1.7341    3.1792    0.6649 H       1  UNL1        0.0714
     45 H          -1.6721    2.3582    2.2459 H       1  UNL1        0.0714
     46 H          -3.6275    1.6949    1.0169 H       1  UNL1        0.0514
     47 H          -2.3434   -0.0091    2.4678 H       1  UNL1        0.0330
     48 H          -1.5943   -0.6278    0.9534 H       1  UNL1        0.0330
     49 H          -4.7572   -0.3891    2.7918 H       1  UNL1        0.0621
     50 H          -6.6421   -1.9772    2.2652 H       1  UNL1        0.0654
     51 H          -6.8334   -3.9609   -0.7194 H       1  UNL1        0.2921
     52 H          -4.5754   -3.3303   -1.1677 H       1  UNL1        0.0654
     53 H          -2.6781   -1.7688   -0.6856 H       1  UNL1        0.0621
     54 H          -1.8012    1.4999   -1.1268 H       1  UNL1        0.1484
     55 H          -5.9045    2.3138    0.7263 H       1  UNL1        0.0637
     56 H          -8.0288    1.3306    1.2794 H       1  UNL1        0.0618
     57 H          -8.9337   -0.5116   -0.1294 H       1  UNL1        0.0618
     58 H          -7.6918   -1.3283   -2.0542 H       1  UNL1        0.0618
     59 H          -5.5080   -0.3297   -2.6298 H       1  UNL1        0.0637
     60 H           1.5359    2.2007   -0.8467 H       1  UNL1        0.0662
     61 H           3.4825    3.0633   -2.2300 H       1  UNL1        0.2922
     62 H           6.2340   -2.1312   -3.2101 H       1  UNL1        0.2922
     63 H           9.3237   -2.3145   -2.3415 H       1  UNL1        0.0654
     64 H          10.3765   -1.8021   -0.1889 H       1  UNL1        0.0619
     65 H           9.2258   -0.3440    1.4076 H       1  UNL1        0.0626
     66 H           7.0539    1.3834    3.1961 H       1  UNL1        0.2954
     67 H           4.5885   -2.2266    1.0054 H       1  UNL1        0.2922
     68 H           2.5663   -0.7654    1.9447 H       1  UNL1        0.0662
@<TRIPOS>BOND
     1     1     2    2
     2     2     3    1
     3     3     4    1
     4     4     5    1
     5     5     6    1
     6     6     7    1
     7     7     8   ar
     8     8     9   ar
     9     9    10   ar
    10    10    11    1
    11    10    12   ar
    12    12    13   ar
    13     5    14    1
    14    14    15    1
    15    15    16    2
    16    15    17    2
    17    15    18    1
    18    18    19   ar
    19    19    20   ar
    20    20    21   ar
    21    21    22   ar
    22    22    23   ar
    23     2    24    1
    24    24    25   ar
    25    25    26   ar
    26    26    27    1
    27    26    28   ar
    28    28    29    1
    29    29    30    2
    30    29    31    1
    31    31    32   ar
    32    32    33    1
    33    32    34   ar
    34    34    35   ar
    35    35    36   ar
    36    36    37   ar
    37    37    38    1
    38    38    39    2
    39    38    40    1
    40    28    41   ar
    41    41    42    1
    42    41    43   ar
    43    13     7   ar
    44    23    18   ar
    45    43    24   ar
    46    37    31   ar
    47     4    44    1
    48     4    45    1
    49     5    46    1
    50     6    47    1
    51     6    48    1
    52     8    49    1
    53     9    50    1
    54    11    51    1
    55    12    52    1
    56    13    53    1
    57    14    54    1
    58    19    55    1
    59    20    56    1
    60    21    57    1
    61    22    58    1
    62    23    59    1
    63    25    60    1
    64    27    61    1
    65    33    62    1
    66    34    63    1
    67    35    64    1
    68    36    65    1
    69    40    66    1
    70    42    67    1
    71    43    68    1
