
     RDKit          3D

 42 44  0  0  0  0  0  0  0  0999 V2000
    4.4102   -0.6375    0.1760 C   0  0  0  0  0  0  0  0  0  0  0  0
    4.0154    0.7069   -0.0582 N   0  0  0  0  0  0  0  0  0  0  0  0
    3.2123    0.9185   -1.2253 C   0  0  0  0  0  0  0  0  0  0  0  0
    1.8448    0.3208   -1.0053 C   0  0  0  0  0  0  0  0  0  0  0  0
    1.0765    0.9625    0.1632 C   0  0  0  0  0  0  0  0  0  0  0  0
   -0.2363    0.3864    0.3181 N   0  0  0  0  0  0  0  0  0  0  0  0
   -1.3513    1.3265    0.3153 C   0  0  0  0  0  0  0  0  0  0  0  0
   -0.9865    2.5134    0.9576 C   0  0  0  0  0  0  0  0  0  0  0  0
   -1.9534    3.4678    1.0198 C   0  0  0  0  0  0  0  0  0  0  0  0
   -3.1974    3.2346    0.4714 C   0  0  0  0  0  0  0  0  0  0  0  0
   -3.5009    2.0256   -0.1586 C   0  0  0  0  0  0  0  0  0  0  0  0
   -2.5667    0.9943   -0.2662 C   0  0  0  0  0  0  0  0  0  0  0  0
   -3.1540   -0.1393   -0.9948 C   0  0  0  0  0  0  0  0  0  0  0  0
   -2.7875   -1.5014   -0.5568 C   0  0  0  0  0  0  0  0  0  0  0  0
   -1.4891   -1.7224    0.0533 C   0  0  0  0  0  0  0  0  0  0  0  0
   -1.4209   -3.1034    0.2828 C   0  0  0  0  0  0  0  0  0  0  0  0
   -0.2936   -3.6745    0.8845 C   0  0  0  0  0  0  0  0  0  0  0  0
    0.7810   -2.8881    1.2675 C   0  0  0  0  0  0  0  0  0  0  0  0
    0.7778   -1.5377    1.0724 C   0  0  0  0  0  0  0  0  0  0  0  0
   -0.3658   -1.0523    0.4745 C   0  0  0  0  0  0  0  0  0  0  0  0
    3.7802   -1.2436    0.8354 H   0  0  0  0  0  0  0  0  0  0  0  0
    5.4093   -0.5836    0.6982 H   0  0  0  0  0  0  0  0  0  0  0  0
    4.5171   -1.2343   -0.7760 H   0  0  0  0  0  0  0  0  0  0  0  0
    3.6353    1.1248    0.8067 H   0  0  0  0  0  0  0  0  0  0  0  0
    3.1374    2.0084   -1.4893 H   0  0  0  0  0  0  0  0  0  0  0  0
    3.6363    0.3545   -2.0922 H   0  0  0  0  0  0  0  0  0  0  0  0
    1.2997    0.5769   -1.9723 H   0  0  0  0  0  0  0  0  0  0  0  0
    2.0040   -0.7448   -0.9084 H   0  0  0  0  0  0  0  0  0  0  0  0
    0.9251    1.9940   -0.2779 H   0  0  0  0  0  0  0  0  0  0  0  0
    1.6504    1.1308    1.0488 H   0  0  0  0  0  0  0  0  0  0  0  0
    0.0516    2.5292    1.3397 H   0  0  0  0  0  0  0  0  0  0  0  0
   -1.6573    4.3785    1.5183 H   0  0  0  0  0  0  0  0  0  0  0  0
   -3.9421    4.0233    0.5425 H   0  0  0  0  0  0  0  0  0  0  0  0
   -4.4916    1.9064   -0.5662 H   0  0  0  0  0  0  0  0  0  0  0  0
   -4.2654   -0.0501   -1.0578 H   0  0  0  0  0  0  0  0  0  0  0  0
   -2.7886   -0.0247   -2.0616 H   0  0  0  0  0  0  0  0  0  0  0  0
   -2.8239   -2.1634   -1.4696 H   0  0  0  0  0  0  0  0  0  0  0  0
   -3.6361   -1.8760    0.0804 H   0  0  0  0  0  0  0  0  0  0  0  0
   -2.2059   -3.8029    0.0217 H   0  0  0  0  0  0  0  0  0  0  0  0
   -0.2601   -4.7596    1.0556 H   0  0  0  0  0  0  0  0  0  0  0  0
    1.6653   -3.3184    1.7372 H   0  0  0  0  0  0  0  0  0  0  0  0
    1.5443   -0.8261    1.3436 H   0  0  0  0  0  0  0  0  0  0  0  0
  1  2  1  0
  2  3  1  0
  3  4  1  0
  4  5  1  0
  5  6  1  0
  6  7  1  0
  7  8  2  0
  8  9  1  0
  9 10  2  0
 10 11  1  0
 11 12  2  0
 12 13  1  0
 13 14  1  0
 14 15  1  0
 15 16  2  0
 16 17  1  0
 17 18  2  0
 18 19  1  0
 19 20  2  0
 20  6  1  0
 12  7  1  0
 20 15  1  0
  1 21  1  0
  1 22  1  0
  1 23  1  0
  2 24  1  0
  3 25  1  0
  3 26  1  0
  4 27  1  0
  4 28  1  0
  5 29  1  0
  5 30  1  0
  8 31  1  0
  9 32  1  0
 10 33  1  0
 11 34  1  0
 13 35  1  0
 13 36  1  0
 14 37  1  0
 14 38  1  0
 16 39  1  0
 17 40  1  0
 18 41  1  0
 19 42  1  0
M  END
$$$$
