@<TRIPOS>MOLECULE
*****
 42 44 0 0 0
SMALL
GASTEIGER

@<TRIPOS>ATOM
      1 C           4.4102   -0.6375    0.1760 C.3     1  UNL1       -0.0158
      2 N           4.0154    0.7069   -0.0582 N.3     1  UNL1       -0.3189
      3 C           3.2123    0.9185   -1.2253 C.3     1  UNL1       -0.0030
      4 C           1.8448    0.3208   -1.0053 C.3     1  UNL1       -0.0243
      5 C           1.0765    0.9625    0.1632 C.3     1  UNL1        0.0184
      6 N          -0.2363    0.3864    0.3181 N.pl3   1  UNL1       -0.2996
      7 C          -1.3513    1.3265    0.3153 C.ar    1  UNL1        0.0372
      8 C          -0.9865    2.5134    0.9576 C.ar    1  UNL1       -0.0401
      9 C          -1.9534    3.4678    1.0198 C.ar    1  UNL1       -0.0600
     10 C          -3.1974    3.2346    0.4714 C.ar    1  UNL1       -0.0614
     11 C          -3.5009    2.0256   -0.1586 C.ar    1  UNL1       -0.0568
     12 C          -2.5667    0.9943   -0.2662 C.ar    1  UNL1       -0.0257
     13 C          -3.1540   -0.1393   -0.9948 C.3     1  UNL1       -0.0219
     14 C          -2.7875   -1.5014   -0.5568 C.3     1  UNL1       -0.0219
     15 C          -1.4891   -1.7224    0.0533 C.ar    1  UNL1       -0.0257
     16 C          -1.4209   -3.1034    0.2828 C.ar    1  UNL1       -0.0568
     17 C          -0.2936   -3.6745    0.8845 C.ar    1  UNL1       -0.0614
     18 C           0.7810   -2.8881    1.2675 C.ar    1  UNL1       -0.0600
     19 C           0.7778   -1.5377    1.0724 C.ar    1  UNL1       -0.0401
     20 C          -0.3658   -1.0523    0.4745 C.ar    1  UNL1        0.0372
     21 H           3.7802   -1.2436    0.8354 H       1  UNL1        0.0388
     22 H           5.4093   -0.5836    0.6982 H       1  UNL1        0.0388
     23 H           4.5171   -1.2343   -0.7760 H       1  UNL1        0.0388
     24 H           3.6353    1.1248    0.8067 H       1  UNL1        0.1216
     25 H           3.1374    2.0084   -1.4893 H       1  UNL1        0.0424
     26 H           3.6363    0.3545   -2.0922 H       1  UNL1        0.0424
     27 H           1.2997    0.5769   -1.9723 H       1  UNL1        0.0293
     28 H           2.0040   -0.7448   -0.9084 H       1  UNL1        0.0293
     29 H           0.9251    1.9940   -0.2779 H       1  UNL1        0.0468
     30 H           1.6504    1.1308    1.0488 H       1  UNL1        0.0468
     31 H           0.0516    2.5292    1.3397 H       1  UNL1        0.0636
     32 H          -1.6573    4.3785    1.5183 H       1  UNL1        0.0618
     33 H          -3.9421    4.0233    0.5425 H       1  UNL1        0.0618
     34 H          -4.4916    1.9064   -0.5662 H       1  UNL1        0.0621
     35 H          -4.2654   -0.0501   -1.0578 H       1  UNL1        0.0317
     36 H          -2.7886   -0.0247   -2.0616 H       1  UNL1        0.0317
     37 H          -2.8239   -2.1634   -1.4696 H       1  UNL1        0.0317
     38 H          -3.6361   -1.8760    0.0804 H       1  UNL1        0.0317
     39 H          -2.2059   -3.8029    0.0217 H       1  UNL1        0.0621
     40 H          -0.2601   -4.7596    1.0556 H       1  UNL1        0.0618
     41 H           1.6653   -3.3184    1.7372 H       1  UNL1        0.0618
     42 H           1.5443   -0.8261    1.3436 H       1  UNL1        0.0636
@<TRIPOS>BOND
     1     1     2    1
     2     2     3    1
     3     3     4    1
     4     4     5    1
     5     5     6    1
     6     6     7    1
     7     7     8   ar
     8     8     9   ar
     9     9    10   ar
    10    10    11   ar
    11    11    12   ar
    12    12    13    1
    13    13    14    1
    14    14    15    1
    15    15    16   ar
    16    16    17   ar
    17    17    18   ar
    18    18    19   ar
    19    19    20   ar
    20    20     6    1
    21    12     7   ar
    22    20    15   ar
    23     1    21    1
    24     1    22    1
    25     1    23    1
    26     2    24    1
    27     3    25    1
    28     3    26    1
    29     4    27    1
    30     4    28    1
    31     5    29    1
    32     5    30    1
    33     8    31    1
    34     9    32    1
    35    10    33    1
    36    11    34    1
    37    13    35    1
    38    13    36    1
    39    14    37    1
    40    14    38    1
    41    16    39    1
    42    17    40    1
    43    18    41    1
    44    19    42    1
