
     RDKit          3D

 62 64  0  0  0  0  0  0  0  0999 V2000
   10.1873   -0.7384   -0.2457 C   0  0  0  0  0  0  0  0  0  0  0  0
    8.9650   -0.2214   -0.6698 O   0  0  0  0  0  0  0  0  0  0  0  0
    8.1682   -0.0784    0.4773 C   0  0  0  0  0  0  0  0  0  0  0  0
    6.8113    0.4819    0.1091 C   0  0  1  0  0  0  0  0  0  0  0  0
    6.9047    1.7221   -0.4934 O   0  0  0  0  0  0  0  0  0  0  0  0
    6.0407   -0.4713   -0.7810 C   0  0  0  0  0  0  0  0  0  0  0  0
    4.7737    0.1532   -1.0726 N   0  0  0  0  0  0  0  0  0  0  0  0
    4.6285    0.9514   -2.1434 C   0  0  0  0  0  0  0  0  0  0  0  0
    5.6298    1.1321   -2.8742 O   0  0  0  0  0  0  0  0  0  0  0  0
    3.3918    1.5494   -2.4130 C   0  0  0  0  0  0  0  0  0  0  0  0
    2.3829    1.2890   -1.5646 N   0  0  0  0  0  0  0  0  0  0  0  0
    2.5136    0.5076   -0.5109 N   0  0  0  0  0  0  0  0  0  0  0  0
    1.4638    0.2187    0.3967 C   0  0  0  0  0  0  0  0  0  0  0  0
    1.5747    0.2726    1.7628 C   0  0  0  0  0  0  0  0  0  0  0  0
    0.4893   -0.0261    2.5527 C   0  0  0  0  0  0  0  0  0  0  0  0
   -0.7342   -0.3864    1.9810 C   0  0  0  0  0  0  0  0  0  0  0  0
   -2.0880   -0.7584    3.0185 Cl  0  0  0  0  0  0  0  0  0  0  0  0
   -0.8522   -0.4424    0.6103 C   0  0  0  0  0  0  0  0  0  0  0  0
   -2.1045   -0.8112   -0.0169 C   0  0  0  0  0  0  0  0  0  0  0  0
   -2.5797   -1.9431    0.2097 O   0  0  0  0  0  0  0  0  0  0  0  0
   -2.7734    0.0799   -0.8620 N   0  0  0  0  0  0  0  0  0  0  0  0
   -4.0001   -0.0963   -1.5534 C   0  0  0  0  0  0  0  0  0  0  0  0
   -5.1429   -0.2917   -0.5972 C   0  0  0  0  0  0  0  0  0  0  0  0
   -5.0461   -1.3959    0.2195 O   0  0  0  0  0  0  0  0  0  0  0  0
   -6.4471   -0.4180   -1.3915 C   0  0  0  0  0  0  0  0  0  0  0  0
   -7.5007   -0.9361   -0.4621 C   0  0  0  0  0  0  0  0  0  0  0  0
   -7.8860    0.0668    0.6028 C   0  0  0  0  0  0  0  0  0  0  0  0
   -7.0455   -0.0589    1.8367 C   0  0  0  0  0  0  0  0  0  0  0  0
   -5.6988    0.5891    1.7024 C   0  0  0  0  0  0  0  0  0  0  0  0
   -5.3328    0.9226    0.2924 C   0  0  0  0  0  0  0  0  0  0  0  0
    0.2352   -0.1428   -0.1508 C   0  0  0  0  0  0  0  0  0  0  0  0
    3.7241   -0.0673   -0.2620 C   0  0  0  0  0  0  0  0  0  0  0  0
    3.8552   -0.8156    0.7441 O   0  0  0  0  0  0  0  0  0  0  0  0
    9.9758   -1.7213    0.2405 H   0  0  0  0  0  0  0  0  0  0  0  0
   10.8977   -0.8628   -1.0875 H   0  0  0  0  0  0  0  0  0  0  0  0
   10.5836   -0.0696    0.5560 H   0  0  0  0  0  0  0  0  0  0  0  0
    8.0272   -1.0356    1.0155 H   0  0  0  0  0  0  0  0  0  0  0  0
    8.6516    0.6632    1.1434 H   0  0  0  0  0  0  0  0  0  0  0  0
    6.2173    0.6049    1.0338 H   0  0  0  0  0  0  0  0  0  0  0  0
    6.6094    2.4465    0.1119 H   0  0  0  0  0  0  0  0  0  0  0  0
    5.8349   -1.3905   -0.1911 H   0  0  0  0  0  0  0  0  0  0  0  0
    6.6077   -0.7278   -1.6994 H   0  0  0  0  0  0  0  0  0  0  0  0
    3.3296    2.1757   -3.2773 H   0  0  0  0  0  0  0  0  0  0  0  0
    2.5366    0.5551    2.1635 H   0  0  0  0  0  0  0  0  0  0  0  0
    0.6162    0.0274    3.6227 H   0  0  0  0  0  0  0  0  0  0  0  0
   -2.2812    1.0262   -0.9990 H   0  0  0  0  0  0  0  0  0  0  0  0
   -4.1840    0.7950   -2.2105 H   0  0  0  0  0  0  0  0  0  0  0  0
   -3.9262   -0.9627   -2.2725 H   0  0  0  0  0  0  0  0  0  0  0  0
   -5.2290   -2.1911   -0.3699 H   0  0  0  0  0  0  0  0  0  0  0  0
   -6.2572   -1.1971   -2.1510 H   0  0  0  0  0  0  0  0  0  0  0  0
   -6.6751    0.5681   -1.7956 H   0  0  0  0  0  0  0  0  0  0  0  0
   -7.1940   -1.8928   -0.0346 H   0  0  0  0  0  0  0  0  0  0  0  0
   -8.4225   -1.1584   -1.0699 H   0  0  0  0  0  0  0  0  0  0  0  0
   -7.9413    1.0778    0.2044 H   0  0  0  0  0  0  0  0  0  0  0  0
   -8.9384   -0.2024    0.9108 H   0  0  0  0  0  0  0  0  0  0  0  0
   -7.5815    0.4164    2.6854 H   0  0  0  0  0  0  0  0  0  0  0  0
   -6.9628   -1.1484    2.0977 H   0  0  0  0  0  0  0  0  0  0  0  0
   -4.9361   -0.1071    2.1018 H   0  0  0  0  0  0  0  0  0  0  0  0
   -5.6225    1.5334    2.2859 H   0  0  0  0  0  0  0  0  0  0  0  0
   -6.0285    1.6416   -0.1863 H   0  0  0  0  0  0  0  0  0  0  0  0
   -4.3541    1.4864    0.3520 H   0  0  0  0  0  0  0  0  0  0  0  0
    0.1390   -0.1875   -1.2163 H   0  0  0  0  0  0  0  0  0  0  0  0
  1  2  1  0
  2  3  1  0
  3  4  1  0
  4  5  1  0
  4  6  1  0
  6  7  1  0
  7  8  1  0
  8  9  2  0
  8 10  1  0
 10 11  2  0
 11 12  1  0
 12 13  1  0
 13 14  2  0
 14 15  1  0
 15 16  2  0
 16 17  1  0
 16 18  1  0
 18 19  1  0
 19 20  2  0
 19 21  1  0
 21 22  1  0
 22 23  1  0
 23 24  1  0
 23 25  1  0
 25 26  1  0
 26 27  1  0
 27 28  1  0
 28 29  1  0
 29 30  1  0
 18 31  2  0
 12 32  1  0
 32 33  2  0
 32  7  1  0
 31 13  1  0
 30 23  1  0
  1 34  1  0
  1 35  1  0
  1 36  1  0
  3 37  1  0
  3 38  1  0
  4 39  1  1
  5 40  1  0
  6 41  1  0
  6 42  1  0
 10 43  1  0
 14 44  1  0
 15 45  1  0
 21 46  1  0
 22 47  1  0
 22 48  1  0
 24 49  1  0
 25 50  1  0
 25 51  1  0
 26 52  1  0
 26 53  1  0
 27 54  1  0
 27 55  1  0
 28 56  1  0
 28 57  1  0
 29 58  1  0
 29 59  1  0
 30 60  1  0
 30 61  1  0
 31 62  1  0
M  END
$$$$
