@<TRIPOS>MOLECULE
*****
 62 64 0 0 0
SMALL
GASTEIGER

@<TRIPOS>ATOM
      1 C          10.1873   -0.7384   -0.2457 C.3     1  UNL1        0.0366
      2 O           8.9650   -0.2214   -0.6698 O.3     1  UNL1       -0.3804
      3 C           8.1682   -0.0784    0.4773 C.3     1  UNL1        0.0749
      4 C           6.8113    0.4819    0.1091 C.3     1  UNL1        0.0965
      5 O           6.9047    1.7221   -0.4934 O.3     1  UNL1       -0.3877
      6 C           6.0407   -0.4713   -0.7810 C.3     1  UNL1        0.0592
      7 N           4.7737    0.1532   -1.0726 N.ar    1  UNL1       -0.2556
      8 C           4.6285    0.9514   -2.1434 C.ar    1  UNL1        0.2751
      9 O           5.6298    1.1321   -2.8742 O.2     1  UNL1       -0.2658
     10 C           3.3918    1.5494   -2.4130 C.ar    1  UNL1        0.1130
     11 N           2.3829    1.2890   -1.5646 N.ar    1  UNL1       -0.1651
     12 N           2.5136    0.5076   -0.5109 N.ar    1  UNL1       -0.1816
     13 C           1.4638    0.2187    0.3967 C.ar    1  UNL1        0.0715
     14 C           1.5747    0.2726    1.7628 C.ar    1  UNL1       -0.0347
     15 C           0.4893   -0.0261    2.5527 C.ar    1  UNL1       -0.0406
     16 C          -0.7342   -0.3864    1.9810 C.ar    1  UNL1        0.0532
     17 CL         -2.0880   -0.7584    3.0185 Cl      1  UNL1       -0.0828
     18 C          -0.8522   -0.4424    0.6103 C.ar    1  UNL1        0.0570
     19 C          -2.1045   -0.8112   -0.0169 C.2     1  UNL1        0.2456
     20 O          -2.5797   -1.9431    0.2097 O.2     1  UNL1       -0.2701
     21 N          -2.7734    0.0799   -0.8620 N.am    1  UNL1       -0.3086
     22 C          -4.0001   -0.0963   -1.5534 C.3     1  UNL1        0.0407
     23 C          -5.1429   -0.2917   -0.5972 C.3     1  UNL1        0.0815
     24 O          -5.0461   -1.3959    0.2195 O.3     1  UNL1       -0.3870
     25 C          -6.4471   -0.4180   -1.3915 C.3     1  UNL1       -0.0225
     26 C          -7.5007   -0.9361   -0.4621 C.3     1  UNL1       -0.0504
     27 C          -7.8860    0.0668    0.6028 C.3     1  UNL1       -0.0530
     28 C          -7.0455   -0.0589    1.8367 C.3     1  UNL1       -0.0530
     29 C          -5.6988    0.5891    1.7024 C.3     1  UNL1       -0.0504
     30 C          -5.3328    0.9226    0.2924 C.3     1  UNL1       -0.0225
     31 C           0.2352   -0.1428   -0.1508 C.ar    1  UNL1       -0.0226
     32 C           3.7241   -0.0673   -0.2620 C.ar    1  UNL1        0.3529
     33 O           3.8552   -0.8156    0.7441 O.2     1  UNL1       -0.2443
     34 H           9.9758   -1.7213    0.2405 H       1  UNL1        0.0524
     35 H          10.8977   -0.8628   -1.0875 H       1  UNL1        0.0524
     36 H          10.5836   -0.0696    0.5560 H       1  UNL1        0.0524
     37 H           8.0272   -1.0356    1.0155 H       1  UNL1        0.0586
     38 H           8.6516    0.6632    1.1434 H       1  UNL1        0.0586
     39 H           6.2173    0.6049    1.0338 H       1  UNL1        0.0634
     40 H           6.6094    2.4465    0.1119 H       1  UNL1        0.2100
     41 H           5.8349   -1.3905   -0.1911 H       1  UNL1        0.0520
     42 H           6.6077   -0.7278   -1.6994 H       1  UNL1        0.0520
     43 H           3.3296    2.1757   -3.2773 H       1  UNL1        0.0903
     44 H           2.5366    0.5551    2.1635 H       1  UNL1        0.0639
     45 H           0.6162    0.0274    3.6227 H       1  UNL1        0.0633
     46 H          -2.2812    1.0262   -0.9990 H       1  UNL1        0.1491
     47 H          -4.1840    0.7950   -2.2105 H       1  UNL1        0.0490
     48 H          -3.9262   -0.9627   -2.2725 H       1  UNL1        0.0490
     49 H          -5.2290   -2.1911   -0.3699 H       1  UNL1        0.2102
     50 H          -6.2572   -1.1971   -2.1510 H       1  UNL1        0.0293
     51 H          -6.6751    0.5681   -1.7956 H       1  UNL1        0.0293
     52 H          -7.1940   -1.8928   -0.0346 H       1  UNL1        0.0266
     53 H          -8.4225   -1.1584   -1.0699 H       1  UNL1        0.0266
     54 H          -7.9413    1.0778    0.2044 H       1  UNL1        0.0265
     55 H          -8.9384   -0.2024    0.9108 H       1  UNL1        0.0265
     56 H          -7.5815    0.4164    2.6854 H       1  UNL1        0.0265
     57 H          -6.9628   -1.1484    2.0977 H       1  UNL1        0.0265
     58 H          -4.9361   -0.1071    2.1018 H       1  UNL1        0.0266
     59 H          -5.6225    1.5334    2.2859 H       1  UNL1        0.0266
     60 H          -6.0285    1.6416   -0.1863 H       1  UNL1        0.0293
     61 H          -4.3541    1.4864    0.3520 H       1  UNL1        0.0293
     62 H           0.1390   -0.1875   -1.2163 H       1  UNL1        0.0647
@<TRIPOS>BOND
     1     1     2    1
     2     2     3    1
     3     3     4    1
     4     4     5    1
     5     4     6    1
     6     6     7    1
     7     7     8   ar
     8     8     9    2
     9     8    10   ar
    10    10    11   ar
    11    11    12   ar
    12    12    13    1
    13    13    14   ar
    14    14    15   ar
    15    15    16   ar
    16    16    17    1
    17    16    18   ar
    18    18    19    1
    19    19    20    2
    20    19    21   am
    21    21    22    1
    22    22    23    1
    23    23    24    1
    24    23    25    1
    25    25    26    1
    26    26    27    1
    27    27    28    1
    28    28    29    1
    29    29    30    1
    30    18    31   ar
    31    12    32   ar
    32    32    33    2
    33    32     7   ar
    34    31    13   ar
    35    30    23    1
    36     1    34    1
    37     1    35    1
    38     1    36    1
    39     3    37    1
    40     3    38    1
    41     4    39    1
    42     5    40    1
    43     6    41    1
    44     6    42    1
    45    10    43    1
    46    14    44    1
    47    15    45    1
    48    21    46    1
    49    22    47    1
    50    22    48    1
    51    24    49    1
    52    25    50    1
    53    25    51    1
    54    26    52    1
    55    26    53    1
    56    27    54    1
    57    27    55    1
    58    28    56    1
    59    28    57    1
    60    29    58    1
    61    29    59    1
    62    30    60    1
    63    30    61    1
    64    31    62    1
