
     RDKit          3D

 53 56  0  0  0  0  0  0  0  0999 V2000
    6.3090   -2.4182    0.3043 C   0  0  0  0  0  0  0  0  0  0  0  0
    4.9587   -1.8710    0.2200 C   0  0  0  0  0  0  0  0  0  0  0  0
    3.4066   -2.8456    0.1341 S   0  0  0  0  0  0  0  0  0  0  0  0
    2.3402   -1.4291    0.0639 C   0  0  0  0  0  0  0  0  0  0  0  0
    0.8422   -1.5768   -0.0312 C   0  0  0  0  0  0  0  0  0  0  0  0
    0.5231   -2.9801   -0.4206 C   0  0  0  0  0  0  0  0  0  0  0  0
    0.3899   -0.6041   -0.9838 N   0  0  0  0  0  0  0  0  0  0  0  0
   -0.9746   -0.5762   -1.4066 C   0  0  0  0  0  0  0  0  0  0  0  0
   -1.3031   -0.9174   -2.6776 N   0  0  0  0  0  0  0  0  0  0  0  0
   -2.5884   -0.9000   -3.0467 C   0  0  0  0  0  0  0  0  0  0  0  0
   -3.6134   -0.5505   -2.1956 C   0  0  0  0  0  0  0  0  0  0  0  0
   -3.2739   -0.1998   -0.8844 C   0  0  0  0  0  0  0  0  0  0  0  0
   -4.2819    0.1585    0.0556 N   0  0  0  0  0  0  0  0  0  0  0  0
   -4.9639   -0.7732    0.9003 C   0  0  0  0  0  0  0  0  0  0  0  0
   -4.8832   -2.0307    0.7391 O   0  0  0  0  0  0  0  0  0  0  0  0
   -5.6929   -0.0745    1.8793 O   0  0  0  0  0  0  0  0  0  0  0  0
   -5.1402    1.2285    1.8809 C   0  0  0  0  0  0  0  0  0  0  0  0
   -4.8509    1.4408    0.4031 C   0  0  2  0  0  0  0  0  0  0  0  0
   -6.1100    1.7693   -0.3503 C   0  0  1  0  0  0  0  0  0  0  0  0
   -7.2465    0.8264   -0.0721 C   0  0  0  0  0  0  0  0  0  0  0  0
   -6.5268    3.0299    0.1005 O   0  0  0  0  0  0  0  0  0  0  0  0
   -1.9731   -0.2367   -0.5801 N   0  0  0  0  0  0  0  0  0  0  0  0
    3.1441   -0.4888    0.1062 N   0  0  0  0  0  0  0  0  0  0  0  0
    4.4340   -0.6050    0.1825 C   0  0  0  0  0  0  0  0  0  0  0  0
    5.3396    0.5726    0.2258 C   0  0  0  0  0  0  0  0  0  0  0  0
    6.4836    0.6006   -0.5646 C   0  0  0  0  0  0  0  0  0  0  0  0
    7.3329    1.6866   -0.5326 C   0  0  0  0  0  0  0  0  0  0  0  0
    7.0788    2.7838    0.2837 C   0  0  0  0  0  0  0  0  0  0  0  0
    8.1749    4.1417    0.3007 Cl  0  0  0  0  0  0  0  0  0  0  0  0
    5.9414    2.7355    1.0573 C   0  0  0  0  0  0  0  0  0  0  0  0
    5.0974    1.6631    1.0293 C   0  0  0  0  0  0  0  0  0  0  0  0
    6.2461   -3.4406    0.7898 H   0  0  0  0  0  0  0  0  0  0  0  0
    6.6996   -2.6144   -0.7228 H   0  0  0  0  0  0  0  0  0  0  0  0
    6.9915   -1.8224    0.9087 H   0  0  0  0  0  0  0  0  0  0  0  0
    0.3859   -1.3886    0.9743 H   0  0  0  0  0  0  0  0  0  0  0  0
    1.1870   -3.2436   -1.2836 H   0  0  0  0  0  0  0  0  0  0  0  0
   -0.5480   -3.0848   -0.6783 H   0  0  0  0  0  0  0  0  0  0  0  0
    0.7905   -3.6220    0.4471 H   0  0  0  0  0  0  0  0  0  0  0  0
    1.0376    0.0877   -1.3771 H   0  0  0  0  0  0  0  0  0  0  0  0
   -2.8035   -1.1822   -4.0814 H   0  0  0  0  0  0  0  0  0  0  0  0
   -4.6270   -0.5452   -2.5165 H   0  0  0  0  0  0  0  0  0  0  0  0
   -5.7759    1.9927    2.3224 H   0  0  0  0  0  0  0  0  0  0  0  0
   -4.1462    1.1277    2.3793 H   0  0  0  0  0  0  0  0  0  0  0  0
   -4.1377    2.2707    0.2430 H   0  0  0  0  0  0  0  0  0  0  0  0
   -5.8916    1.7753   -1.4202 H   0  0  0  0  0  0  0  0  0  0  0  0
   -7.0920   -0.1972   -0.4161 H   0  0  0  0  0  0  0  0  0  0  0  0
   -8.1117    1.2139   -0.6887 H   0  0  0  0  0  0  0  0  0  0  0  0
   -7.6063    0.9204    0.9812 H   0  0  0  0  0  0  0  0  0  0  0  0
   -5.7493    3.5583    0.4398 H   0  0  0  0  0  0  0  0  0  0  0  0
    6.6730   -0.2744   -1.2076 H   0  0  0  0  0  0  0  0  0  0  0  0
    8.2147    1.6724   -1.1616 H   0  0  0  0  0  0  0  0  0  0  0  0
    5.6915    3.5698    1.7188 H   0  0  0  0  0  0  0  0  0  0  0  0
    4.1980    1.6673    1.6654 H   0  0  0  0  0  0  0  0  0  0  0  0
  1  2  1  0
  2  3  1  0
  3  4  1  0
  4  5  1  0
  5  6  1  0
  5  7  1  0
  7  8  1  0
  8  9  2  0
  9 10  1  0
 10 11  2  0
 11 12  1  0
 12 13  1  0
 13 14  1  0
 14 15  2  0
 14 16  1  0
 16 17  1  0
 17 18  1  0
 18 19  1  0
 19 20  1  0
 19 21  1  0
 12 22  2  0
  4 23  2  0
 23 24  1  0
 24 25  1  0
 25 26  2  0
 26 27  1  0
 27 28  2  0
 28 29  1  0
 28 30  1  0
 30 31  2  0
 24  2  2  0
 31 25  1  0
 22  8  1  0
 18 13  1  0
  1 32  1  0
  1 33  1  0
  1 34  1  0
  5 35  1  0
  6 36  1  0
  6 37  1  0
  6 38  1  0
  7 39  1  0
 10 40  1  0
 11 41  1  0
 17 42  1  0
 17 43  1  0
 18 44  1  1
 19 45  1  6
 20 46  1  0
 20 47  1  0
 20 48  1  0
 21 49  1  0
 26 50  1  0
 27 51  1  0
 30 52  1  0
 31 53  1  0
M  END
$$$$
