@<TRIPOS>MOLECULE
*****
 53 56 0 0 0
SMALL
GASTEIGER

@<TRIPOS>ATOM
      1 C           6.3090   -2.4182    0.3043 C.3     1  UNL1       -0.0313
      2 C           4.9587   -1.8710    0.2200 C.ar    1  UNL1        0.0143
      3 S           3.4066   -2.8456    0.1341 S.2     1  UNL1       -0.0749
      4 C           2.3402   -1.4291    0.0639 C.ar    1  UNL1        0.0991
      5 C           0.8422   -1.5768   -0.0312 C.3     1  UNL1        0.0691
      6 C           0.5231   -2.9801   -0.4206 C.3     1  UNL1       -0.0405
      7 N           0.3899   -0.6041   -0.9838 N.pl3   1  UNL1       -0.3049
      8 C          -0.9746   -0.5762   -1.4066 C.ar    1  UNL1        0.2174
      9 N          -1.3031   -0.9174   -2.6776 N.ar    1  UNL1       -0.2228
     10 C          -2.5884   -0.9000   -3.0467 C.ar    1  UNL1        0.0344
     11 C          -3.6134   -0.5505   -2.1956 C.ar    1  UNL1       -0.0029
     12 C          -3.2739   -0.1998   -0.8844 C.ar    1  UNL1        0.1355
     13 N          -4.2819    0.1585    0.0556 N.am    1  UNL1       -0.2124
     14 C          -4.9639   -0.7732    0.9003 C.2     1  UNL1        0.4088
     15 O          -4.8832   -2.0307    0.7391 O.2     1  UNL1       -0.2258
     16 O          -5.6929   -0.0745    1.8793 O.3     1  UNL1       -0.4480
     17 C          -5.1402    1.2285    1.8809 C.3     1  UNL1        0.1155
     18 C          -4.8509    1.4408    0.4031 C.3     1  UNL1        0.0953
     19 C          -6.1100    1.7693   -0.3503 C.3     1  UNL1        0.0746
     20 C          -7.2465    0.8264   -0.0721 C.3     1  UNL1       -0.0371
     21 O          -6.5268    3.0299    0.1005 O.3     1  UNL1       -0.3901
     22 N          -1.9731   -0.2367   -0.5801 N.ar    1  UNL1       -0.1991
     23 N           3.1441   -0.4888    0.1062 N.ar    1  UNL1       -0.2419
     24 C           4.4340   -0.6050    0.1825 C.ar    1  UNL1        0.0814
     25 C           5.3396    0.5726    0.2258 C.ar    1  UNL1        0.0012
     26 C           6.4836    0.6006   -0.5646 C.ar    1  UNL1       -0.0512
     27 C           7.3329    1.6866   -0.5326 C.ar    1  UNL1       -0.0428
     28 C           7.0788    2.7838    0.2837 C.ar    1  UNL1        0.0410
     29 CL          8.1749    4.1417    0.3007 Cl      1  UNL1       -0.0835
     30 C           5.9414    2.7355    1.0573 C.ar    1  UNL1       -0.0428
     31 C           5.0974    1.6631    1.0293 C.ar    1  UNL1       -0.0512
     32 H           6.2461   -3.4406    0.7898 H       1  UNL1        0.0283
     33 H           6.6996   -2.6144   -0.7228 H       1  UNL1        0.0283
     34 H           6.9915   -1.8224    0.9087 H       1  UNL1        0.0283
     35 H           0.3859   -1.3886    0.9743 H       1  UNL1        0.0566
     36 H           1.1870   -3.2436   -1.2836 H       1  UNL1        0.0251
     37 H          -0.5480   -3.0848   -0.6783 H       1  UNL1        0.0251
     38 H           0.7905   -3.6220    0.4471 H       1  UNL1        0.0251
     39 H           1.0376    0.0877   -1.3771 H       1  UNL1        0.1496
     40 H          -2.8035   -1.1822   -4.0814 H       1  UNL1        0.0832
     41 H          -4.6270   -0.5452   -2.5165 H       1  UNL1        0.0667
     42 H          -5.7759    1.9927    2.3224 H       1  UNL1        0.0718
     43 H          -4.1462    1.1277    2.3793 H       1  UNL1        0.0718
     44 H          -4.1377    2.2707    0.2430 H       1  UNL1        0.0565
     45 H          -5.8916    1.7753   -1.4202 H       1  UNL1        0.0610
     46 H          -7.0920   -0.1972   -0.4161 H       1  UNL1        0.0255
     47 H          -8.1117    1.2139   -0.6887 H       1  UNL1        0.0255
     48 H          -7.6063    0.9204    0.9812 H       1  UNL1        0.0255
     49 H          -5.7493    3.5583    0.4398 H       1  UNL1        0.2098
     50 H           6.6730   -0.2744   -1.2076 H       1  UNL1        0.0625
     51 H           8.2147    1.6724   -1.1616 H       1  UNL1        0.0632
     52 H           5.6915    3.5698    1.7188 H       1  UNL1        0.0632
     53 H           4.1980    1.6673    1.6654 H       1  UNL1        0.0625
@<TRIPOS>BOND
     1     1     2    1
     2     2     3   ar
     3     3     4   ar
     4     4     5    1
     5     5     6    1
     6     5     7    1
     7     7     8    1
     8     8     9   ar
     9     9    10   ar
    10    10    11   ar
    11    11    12   ar
    12    12    13    1
    13    13    14   am
    14    14    15    2
    15    14    16    1
    16    16    17    1
    17    17    18    1
    18    18    19    1
    19    19    20    1
    20    19    21    1
    21    12    22   ar
    22     4    23   ar
    23    23    24   ar
    24    24    25    1
    25    25    26   ar
    26    26    27   ar
    27    27    28   ar
    28    28    29    1
    29    28    30   ar
    30    30    31   ar
    31    24     2   ar
    32    31    25   ar
    33    22     8   ar
    34    18    13    1
    35     1    32    1
    36     1    33    1
    37     1    34    1
    38     5    35    1
    39     6    36    1
    40     6    37    1
    41     6    38    1
    42     7    39    1
    43    10    40    1
    44    11    41    1
    45    17    42    1
    46    17    43    1
    47    18    44    1
    48    19    45    1
    49    20    46    1
    50    20    47    1
    51    20    48    1
    52    21    49    1
    53    26    50    1
    54    27    51    1
    55    30    52    1
    56    31    53    1
