@<TRIPOS>MOLECULE
*****
 46 50 0 0 0
SMALL
GASTEIGER

@<TRIPOS>ATOM
      1 N          -1.5670   -2.1519   -2.7293 N.pl3   1  UNL1       -0.3134
      2 C          -1.6743   -0.8737   -2.0843 C.2     1  UNL1        0.2763
      3 N          -2.1028   -0.7297   -0.9201 N.2     1  UNL1       -0.2205
      4 C          -2.2721    0.4550   -0.1367 C.3     1  UNL1        0.1264
      5 C          -2.0973    1.6975   -0.9717 C.3     1  UNL1        0.0155
      6 C          -2.0069    1.4609   -2.4131 C.3     1  UNL1        0.0953
      7 O          -1.2828    0.2869   -2.7826 O.2     1  UNL1       -0.4658
      8 C          -1.2123    0.3921    0.9053 C.ar    1  UNL1        0.0287
      9 C           0.1333    0.4449    0.4871 C.ar    1  UNL1       -0.0312
     10 C           1.1422    0.3942    1.4102 C.ar    1  UNL1        0.0343
     11 N           2.4947    0.4475    0.9867 N.am    1  UNL1       -0.2802
     12 C           3.1755   -0.7473    0.6907 C.2     1  UNL1        0.2666
     13 O           2.5937   -1.8765    0.7977 O.2     1  UNL1       -0.2682
     14 C           4.5635   -0.7282    0.2537 C.ar    1  UNL1        0.1257
     15 C           5.2436   -1.8896   -0.0400 C.ar    1  UNL1       -0.0298
     16 C           6.5773   -1.8488   -0.4583 C.ar    1  UNL1       -0.0397
     17 C           7.1459   -0.6066   -0.5534 C.ar    1  UNL1        0.0591
     18 CL          8.8208   -0.4967   -1.0748 Cl      1  UNL1       -0.0820
     19 C           6.4780    0.5514   -0.2638 C.ar    1  UNL1        0.0467
     20 N           5.1880    0.4541    0.1369 N.ar    1  UNL1       -0.2489
     21 C           0.8505    0.2906    2.7639 C.ar    1  UNL1       -0.0370
     22 C          -0.4574    0.2387    3.1786 C.ar    1  UNL1       -0.0172
     23 C          -1.5036    0.2911    2.2225 C.ar    1  UNL1        0.1344
     24 O          -2.8137    0.2330    2.7144 O.3     1  UNL1       -0.4538
     25 C          -3.8398    0.2833    1.7823 C.ar    1  UNL1        0.1523
     26 C          -5.1400    0.2209    2.3177 C.ar    1  UNL1        0.0718
     27 N          -6.1664    0.2640    1.4685 N.ar    1  UNL1       -0.2399
     28 C          -5.9799    0.3638    0.1376 C.ar    1  UNL1        0.1298
     29 CL         -7.3599    0.4169   -0.9409 Cl      1  UNL1       -0.0620
     30 C          -4.7362    0.4255   -0.4020 C.ar    1  UNL1       -0.0155
     31 C          -3.6147    0.3843    0.4491 C.ar    1  UNL1        0.0313
     32 H          -2.0656   -2.3373   -3.6143 H       1  UNL1        0.1466
     33 H          -0.9862   -2.8942   -2.3057 H       1  UNL1        0.1466
     34 H          -3.0189    2.3261   -0.7872 H       1  UNL1        0.0328
     35 H          -1.2739    2.3381   -0.5666 H       1  UNL1        0.0328
     36 H          -2.9684    1.4170   -2.9775 H       1  UNL1        0.0698
     37 H          -1.4302    2.2812   -2.9544 H       1  UNL1        0.0698
     38 H           0.2952    0.5258   -0.5750 H       1  UNL1        0.0641
     39 H           3.0113    1.3463    0.8847 H       1  UNL1        0.1552
     40 H           4.7188   -2.8280    0.0619 H       1  UNL1        0.0641
     41 H           7.0861   -2.7624   -0.6811 H       1  UNL1        0.0633
     42 H           6.9878    1.4894   -0.3610 H       1  UNL1        0.0844
     43 H           1.6330    0.2481    3.5239 H       1  UNL1        0.0637
     44 H          -0.7375    0.1581    4.2195 H       1  UNL1        0.0655
     45 H          -5.3087    0.1412    3.3751 H       1  UNL1        0.0868
     46 H          -4.5225    0.5030   -1.4496 H       1  UNL1        0.0652
@<TRIPOS>BOND
     1     1     2    1
     2     2     3    2
     3     3     4    1
     4     4     5    1
     5     5     6    1
     6     6     7    1
     7     4     8    1
     8     8     9   ar
     9     9    10   ar
    10    10    11    1
    11    11    12   am
    12    12    13    2
    13    12    14    1
    14    14    15   ar
    15    15    16   ar
    16    16    17   ar
    17    17    18    1
    18    17    19   ar
    19    19    20   ar
    20    10    21   ar
    21    21    22   ar
    22    22    23   ar
    23    23    24    1
    24    24    25    1
    25    25    26   ar
    26    26    27   ar
    27    27    28   ar
    28    28    29    1
    29    28    30   ar
    30    30    31   ar
    31     7     2    1
    32    23     8   ar
    33    31    25   ar
    34    31     4    1
    35    20    14   ar
    36     1    32    1
    37     1    33    1
    38     5    34    1
    39     5    35    1
    40     6    36    1
    41     6    37    1
    42     9    38    1
    43    11    39    1
    44    15    40    1
    45    16    41    1
    46    19    42    1
    47    21    43    1
    48    22    44    1
    49    26    45    1
    50    30    46    1
