@<TRIPOS>MOLECULE
*****
 29 31 0 0 0
SMALL
GASTEIGER

@<TRIPOS>ATOM
      1 O          -0.4885   -1.1135   -1.5200 O.2     1  UNL1       -0.2659
      2 C          -0.0617   -0.3741   -0.5405 C.ar    1  UNL1        0.2768
      3 C           1.2230   -0.1537   -0.2618 C.ar    1  UNL1        0.1326
      4 C           2.3610   -0.6231   -0.8919 C.ar    1  UNL1        0.2930
      5 N           2.3143   -1.4945   -2.0528 N.pl3   1  UNL1        0.0807
      6 O           1.4786   -1.4562   -2.9453 O.2     1  UNL1        0.0415
      7 O           3.3252   -2.4414   -2.1917 O.co2   1  UNL1       -0.5760
      8 C           3.6224   -0.2897   -0.4487 C.ar    1  UNL1        0.0935
      9 C           3.8527    0.5061    0.6139 C.ar    1  UNL1        0.2808
     10 N           5.1434    0.8613    1.0877 N.pl3   1  UNL1        0.0799
     11 O           5.3061    1.5977    2.0748 O.2     1  UNL1        0.0414
     12 O           6.2725    0.3924    0.4581 O.co2   1  UNL1       -0.5760
     13 C           2.7543    1.0031    1.2792 C.ar    1  UNL1        0.0319
     14 C           1.4575    0.6753    0.8440 C.ar    1  UNL1        0.0547
     15 S          -0.0927    1.1133    1.4471 S.2     1  UNL1       -0.0028
     16 N          -1.0217    0.1673    0.1939 N.ar    1  UNL1       -0.2452
     17 C          -2.4487    0.1202    0.1493 C.ar    1  UNL1        0.0594
     18 C          -3.1307   -0.0303    1.3217 C.ar    1  UNL1       -0.0370
     19 C          -4.5087   -0.0863    1.3843 C.ar    1  UNL1       -0.0571
     20 C          -5.2215    0.0157    0.1982 C.ar    1  UNL1       -0.0263
     21 C          -4.5438    0.1679   -0.9913 C.ar    1  UNL1        0.1254
     22 F          -5.2518    0.2646   -2.1283 F       1  UNL1       -0.2054
     23 C          -3.1587    0.2208   -1.0230 C.ar    1  UNL1       -0.0019
     24 H           4.4882   -0.6891   -0.9844 H       1  UNL1        0.0754
     25 H           2.8578    1.6434    2.1327 H       1  UNL1        0.0697
     26 H          -2.5511   -0.1108    2.2534 H       1  UNL1        0.0638
     27 H          -5.0619   -0.2043    2.3003 H       1  UNL1        0.0619
     28 H          -6.3228   -0.0217    0.1795 H       1  UNL1        0.0646
     29 H          -2.5926    0.3394   -1.9384 H       1  UNL1        0.0667
@<TRIPOS>UNITY_ATOM_ATTR
5 1
charge 1
7 1
charge -1
10 1
charge 1
12 1
charge -1
@<TRIPOS>BOND
     1     1     2    2
     2     2     3   ar
     3     3     4   ar
     4     4     5    1
     5     5     6    2
     6     5     7    1
     7     4     8   ar
     8     8     9   ar
     9     9    10    1
    10    10    11    2
    11    10    12    1
    12     9    13   ar
    13    13    14   ar
    14    14    15   ar
    15    15    16   ar
    16    16    17    1
    17    17    18   ar
    18    18    19   ar
    19    19    20   ar
    20    20    21   ar
    21    21    22    1
    22    21    23   ar
    23    16     2   ar
    24    23    17   ar
    25    14     3   ar
    26     8    24    1
    27    13    25    1
    28    18    26    1
    29    19    27    1
    30    20    28    1
    31    23    29    1
