
     RDKit          3D

 29 31  0  0  0  0  0  0  0  0999 V2000
   -0.4885   -1.1135   -1.5200 O   0  0  0  0  0  0  0  0  0  0  0  0
   -0.0617   -0.3741   -0.5405 C   0  0  0  0  0  0  0  0  0  0  0  0
    1.2230   -0.1537   -0.2618 C   0  0  0  0  0  0  0  0  0  0  0  0
    2.3610   -0.6231   -0.8919 C   0  0  0  0  0  0  0  0  0  0  0  0
    2.3143   -1.4945   -2.0528 N   0  0  0  0  0  4  0  0  0  0  0  0
    1.4786   -1.4562   -2.9453 O   0  0  0  0  0  0  0  0  0  0  0  0
    3.3252   -2.4414   -2.1917 O   0  0  0  0  0  1  0  0  0  0  0  0
    3.6224   -0.2897   -0.4487 C   0  0  0  0  0  0  0  0  0  0  0  0
    3.8527    0.5061    0.6139 C   0  0  0  0  0  0  0  0  0  0  0  0
    5.1434    0.8613    1.0877 N   0  0  0  0  0  4  0  0  0  0  0  0
    5.3061    1.5977    2.0748 O   0  0  0  0  0  0  0  0  0  0  0  0
    6.2725    0.3924    0.4581 O   0  0  0  0  0  1  0  0  0  0  0  0
    2.7543    1.0031    1.2792 C   0  0  0  0  0  0  0  0  0  0  0  0
    1.4575    0.6753    0.8440 C   0  0  0  0  0  0  0  0  0  0  0  0
   -0.0927    1.1133    1.4471 S   0  0  0  0  0  0  0  0  0  0  0  0
   -1.0217    0.1673    0.1939 N   0  0  0  0  0  0  0  0  0  0  0  0
   -2.4487    0.1202    0.1493 C   0  0  0  0  0  0  0  0  0  0  0  0
   -3.1307   -0.0303    1.3217 C   0  0  0  0  0  0  0  0  0  0  0  0
   -4.5087   -0.0863    1.3843 C   0  0  0  0  0  0  0  0  0  0  0  0
   -5.2215    0.0157    0.1982 C   0  0  0  0  0  0  0  0  0  0  0  0
   -4.5438    0.1679   -0.9913 C   0  0  0  0  0  0  0  0  0  0  0  0
   -5.2518    0.2646   -2.1283 F   0  0  0  0  0  0  0  0  0  0  0  0
   -3.1587    0.2208   -1.0230 C   0  0  0  0  0  0  0  0  0  0  0  0
    4.4882   -0.6891   -0.9844 H   0  0  0  0  0  0  0  0  0  0  0  0
    2.8578    1.6434    2.1327 H   0  0  0  0  0  0  0  0  0  0  0  0
   -2.5511   -0.1108    2.2534 H   0  0  0  0  0  0  0  0  0  0  0  0
   -5.0619   -0.2043    2.3003 H   0  0  0  0  0  0  0  0  0  0  0  0
   -6.3228   -0.0217    0.1795 H   0  0  0  0  0  0  0  0  0  0  0  0
   -2.5926    0.3394   -1.9384 H   0  0  0  0  0  0  0  0  0  0  0  0
  1  2  2  0
  2  3  1  0
  3  4  2  0
  4  5  1  0
  5  6  2  0
  5  7  1  0
  4  8  1  0
  8  9  2  0
  9 10  1  0
 10 11  2  0
 10 12  1  0
  9 13  1  0
 13 14  2  0
 14 15  1  0
 15 16  1  0
 16 17  1  0
 17 18  2  0
 18 19  1  0
 19 20  2  0
 20 21  1  0
 21 22  1  0
 21 23  2  0
 16  2  1  0
 23 17  1  0
 14  3  1  0
  8 24  1  0
 13 25  1  0
 18 26  1  0
 19 27  1  0
 20 28  1  0
 23 29  1  0
M  CHG  4   5   1   7  -1  10   1  12  -1
M  END
$$$$
