@<TRIPOS>MOLECULE
*****
 64 65 0 0 0
SMALL
GASTEIGER

@<TRIPOS>ATOM
      1 C           6.8626    2.4384   -1.1594 C.3     1  UNL1       -0.0653
      2 C           6.7480    0.9611   -1.4490 C.3     1  UNL1       -0.0559
      3 C           6.5354    0.1684   -0.1640 C.3     1  UNL1       -0.0533
      4 C           6.4283   -1.2982   -0.5163 C.3     1  UNL1       -0.0531
      5 C           6.2186   -2.1557    0.7087 C.3     1  UNL1       -0.0531
      6 C           4.9407   -1.7867    1.4596 C.3     1  UNL1       -0.0531
      7 C           3.7385   -1.9626    0.5654 C.3     1  UNL1       -0.0530
      8 C           2.4530   -1.6133    1.2719 C.3     1  UNL1       -0.0514
      9 C           2.4684   -0.1794    1.7290 C.3     1  UNL1       -0.0333
     10 C           1.1328    0.1005    2.4311 C.3     1  UNL1        0.0432
     11 N           0.0447   -0.1212    1.4995 N.ar    1  UNL1       -0.2514
     12 C          -0.4834    0.8229    0.6796 C.ar    1  UNL1        0.0499
     13 C          -1.4925    0.2325   -0.0480 C.ar    1  UNL1        0.0965
     14 C          -2.3527    0.8809   -1.0746 C.3     1  UNL1        0.0421
     15 N          -3.5420    1.4667   -0.5469 N.3     1  UNL1       -0.3031
     16 C          -4.4162    0.4998    0.0852 C.3     1  UNL1        0.0652
     17 C          -5.5726    1.3049    0.6568 C.3     1  UNL1        0.1013
     18 O          -6.3191    0.6102    1.5725 O.3     1  UNL1       -0.3875
     19 C          -6.3698    1.8438   -0.5083 C.3     1  UNL1        0.1108
     20 O          -5.4637    2.4884   -1.3545 O.3     1  UNL1       -0.3865
     21 C          -7.0366    0.7323   -1.2899 C.3     1  UNL1        0.1117
     22 O          -8.3946    0.6635   -1.0853 O.3     1  UNL1       -0.3865
     23 C          -6.4358   -0.6235   -0.9173 C.3     1  UNL1        0.1108
     24 O          -6.7723   -1.4927   -1.9559 O.3     1  UNL1       -0.3865
     25 C          -4.9221   -0.5478   -0.8880 C.3     1  UNL1        0.1013
     26 O          -4.4766   -1.7867   -0.4576 O.3     1  UNL1       -0.3875
     27 N          -1.5440   -1.0319    0.3472 N.ar    1  UNL1       -0.1332
     28 N          -0.6169   -1.2330    1.2763 N.ar    1  UNL1       -0.0654
     29 H           5.8857    2.9207   -1.3226 H       1  UNL1        0.0230
     30 H           7.6642    2.8829   -1.7865 H       1  UNL1        0.0230
     31 H           7.1645    2.5218   -0.0837 H       1  UNL1        0.0230
     32 H           7.6742    0.6329   -1.9496 H       1  UNL1        0.0263
     33 H           5.9132    0.7851   -2.1456 H       1  UNL1        0.0263
     34 H           5.5919    0.4812    0.3230 H       1  UNL1        0.0265
     35 H           7.3710    0.3606    0.5157 H       1  UNL1        0.0265
     36 H           7.3815   -1.6658   -0.9754 H       1  UNL1        0.0265
     37 H           5.6480   -1.4490   -1.2801 H       1  UNL1        0.0265
     38 H           6.1635   -3.2096    0.3640 H       1  UNL1        0.0265
     39 H           7.1030   -2.0316    1.3463 H       1  UNL1        0.0265
     40 H           4.9921   -0.7459    1.8240 H       1  UNL1        0.0265
     41 H           4.8245   -2.4748    2.3219 H       1  UNL1        0.0265
     42 H           3.6337   -3.0114    0.2167 H       1  UNL1        0.0265
     43 H           3.8354   -1.3434   -0.3657 H       1  UNL1        0.0265
     44 H           1.5890   -1.8612    0.6552 H       1  UNL1        0.0266
     45 H           2.4005   -2.2731    2.1813 H       1  UNL1        0.0266
     46 H           3.2378   -0.0016    2.5072 H       1  UNL1        0.0283
     47 H           2.5712    0.5330    0.9094 H       1  UNL1        0.0283
     48 H           1.1899    1.1533    2.7686 H       1  UNL1        0.0509
     49 H           1.0449   -0.6109    3.2833 H       1  UNL1        0.0509
     50 H          -0.1900    1.8496    0.5916 H       1  UNL1        0.0845
     51 H          -1.7550    1.7257   -1.5299 H       1  UNL1        0.0490
     52 H          -2.5709    0.1769   -1.8932 H       1  UNL1        0.0490
     53 H          -3.3697    2.2336    0.1226 H       1  UNL1        0.1227
     54 H          -3.8730    0.0624    0.9439 H       1  UNL1        0.0513
     55 H          -5.1214    2.1779    1.1683 H       1  UNL1        0.0636
     56 H          -7.2865    0.8115    1.5443 H       1  UNL1        0.2100
     57 H          -7.0890    2.6120   -0.1611 H       1  UNL1        0.0646
     58 H          -5.7713    2.4198   -2.2853 H       1  UNL1        0.2100
     59 H          -6.8552    0.8596   -2.3771 H       1  UNL1        0.0647
     60 H          -8.6570    0.0574   -0.3477 H       1  UNL1        0.2100
     61 H          -6.8511   -1.0360    0.0037 H       1  UNL1        0.0646
     62 H          -6.2183   -2.2920   -1.9890 H       1  UNL1        0.2100
     63 H          -4.5308   -0.3074   -1.8768 H       1  UNL1        0.0636
     64 H          -4.1006   -2.3257   -1.2097 H       1  UNL1        0.2100
@<TRIPOS>BOND
     1     1     2    1
     2     2     3    1
     3     3     4    1
     4     4     5    1
     5     5     6    1
     6     6     7    1
     7     7     8    1
     8     8     9    1
     9     9    10    1
    10    10    11    1
    11    11    12   ar
    12    12    13   ar
    13    13    14    1
    14    14    15    1
    15    15    16    1
    16    16    17    1
    17    17    18    1
    18    17    19    1
    19    19    20    1
    20    19    21    1
    21    21    22    1
    22    21    23    1
    23    23    24    1
    24    23    25    1
    25    25    26    1
    26    13    27   ar
    27    27    28   ar
    28    28    11   ar
    29    25    16    1
    30     1    29    1
    31     1    30    1
    32     1    31    1
    33     2    32    1
    34     2    33    1
    35     3    34    1
    36     3    35    1
    37     4    36    1
    38     4    37    1
    39     5    38    1
    40     5    39    1
    41     6    40    1
    42     6    41    1
    43     7    42    1
    44     7    43    1
    45     8    44    1
    46     8    45    1
    47     9    46    1
    48     9    47    1
    49    10    48    1
    50    10    49    1
    51    12    50    1
    52    14    51    1
    53    14    52    1
    54    15    53    1
    55    16    54    1
    56    17    55    1
    57    18    56    1
    58    19    57    1
    59    20    58    1
    60    21    59    1
    61    22    60    1
    62    23    61    1
    63    24    62    1
    64    25    63    1
    65    26    64    1
