
     RDKit          3D

 64 65  0  0  0  0  0  0  0  0999 V2000
    6.8626    2.4384   -1.1594 C   0  0  0  0  0  0  0  0  0  0  0  0
    6.7480    0.9611   -1.4490 C   0  0  0  0  0  0  0  0  0  0  0  0
    6.5354    0.1684   -0.1640 C   0  0  0  0  0  0  0  0  0  0  0  0
    6.4283   -1.2982   -0.5163 C   0  0  0  0  0  0  0  0  0  0  0  0
    6.2186   -2.1557    0.7087 C   0  0  0  0  0  0  0  0  0  0  0  0
    4.9407   -1.7867    1.4596 C   0  0  0  0  0  0  0  0  0  0  0  0
    3.7385   -1.9626    0.5654 C   0  0  0  0  0  0  0  0  0  0  0  0
    2.4530   -1.6133    1.2719 C   0  0  0  0  0  0  0  0  0  0  0  0
    2.4684   -0.1794    1.7290 C   0  0  0  0  0  0  0  0  0  0  0  0
    1.1328    0.1005    2.4311 C   0  0  0  0  0  0  0  0  0  0  0  0
    0.0447   -0.1212    1.4995 N   0  0  0  0  0  0  0  0  0  0  0  0
   -0.4834    0.8229    0.6796 C   0  0  0  0  0  0  0  0  0  0  0  0
   -1.4925    0.2325   -0.0480 C   0  0  0  0  0  0  0  0  0  0  0  0
   -2.3527    0.8809   -1.0746 C   0  0  0  0  0  0  0  0  0  0  0  0
   -3.5420    1.4667   -0.5469 N   0  0  0  0  0  0  0  0  0  0  0  0
   -4.4162    0.4998    0.0852 C   0  0  1  0  0  0  0  0  0  0  0  0
   -5.5726    1.3049    0.6568 C   0  0  2  0  0  0  0  0  0  0  0  0
   -6.3191    0.6102    1.5725 O   0  0  0  0  0  0  0  0  0  0  0  0
   -6.3698    1.8438   -0.5083 C   0  0  1  0  0  0  0  0  0  0  0  0
   -5.4637    2.4884   -1.3545 O   0  0  0  0  0  0  0  0  0  0  0  0
   -7.0366    0.7323   -1.2899 C   0  0  2  0  0  0  0  0  0  0  0  0
   -8.3946    0.6635   -1.0853 O   0  0  0  0  0  0  0  0  0  0  0  0
   -6.4358   -0.6235   -0.9173 C   0  0  1  0  0  0  0  0  0  0  0  0
   -6.7723   -1.4927   -1.9559 O   0  0  0  0  0  0  0  0  0  0  0  0
   -4.9221   -0.5478   -0.8880 C   0  0  2  0  0  0  0  0  0  0  0  0
   -4.4766   -1.7867   -0.4576 O   0  0  0  0  0  0  0  0  0  0  0  0
   -1.5440   -1.0319    0.3472 N   0  0  0  0  0  0  0  0  0  0  0  0
   -0.6169   -1.2330    1.2763 N   0  0  0  0  0  0  0  0  0  0  0  0
    5.8857    2.9207   -1.3226 H   0  0  0  0  0  0  0  0  0  0  0  0
    7.6642    2.8829   -1.7865 H   0  0  0  0  0  0  0  0  0  0  0  0
    7.1645    2.5218   -0.0837 H   0  0  0  0  0  0  0  0  0  0  0  0
    7.6742    0.6329   -1.9496 H   0  0  0  0  0  0  0  0  0  0  0  0
    5.9132    0.7851   -2.1456 H   0  0  0  0  0  0  0  0  0  0  0  0
    5.5919    0.4812    0.3230 H   0  0  0  0  0  0  0  0  0  0  0  0
    7.3710    0.3606    0.5157 H   0  0  0  0  0  0  0  0  0  0  0  0
    7.3815   -1.6658   -0.9754 H   0  0  0  0  0  0  0  0  0  0  0  0
    5.6480   -1.4490   -1.2801 H   0  0  0  0  0  0  0  0  0  0  0  0
    6.1635   -3.2096    0.3640 H   0  0  0  0  0  0  0  0  0  0  0  0
    7.1030   -2.0316    1.3463 H   0  0  0  0  0  0  0  0  0  0  0  0
    4.9921   -0.7459    1.8240 H   0  0  0  0  0  0  0  0  0  0  0  0
    4.8245   -2.4748    2.3219 H   0  0  0  0  0  0  0  0  0  0  0  0
    3.6337   -3.0114    0.2167 H   0  0  0  0  0  0  0  0  0  0  0  0
    3.8354   -1.3434   -0.3657 H   0  0  0  0  0  0  0  0  0  0  0  0
    1.5890   -1.8612    0.6552 H   0  0  0  0  0  0  0  0  0  0  0  0
    2.4005   -2.2731    2.1813 H   0  0  0  0  0  0  0  0  0  0  0  0
    3.2378   -0.0016    2.5072 H   0  0  0  0  0  0  0  0  0  0  0  0
    2.5712    0.5330    0.9094 H   0  0  0  0  0  0  0  0  0  0  0  0
    1.1899    1.1533    2.7686 H   0  0  0  0  0  0  0  0  0  0  0  0
    1.0449   -0.6109    3.2833 H   0  0  0  0  0  0  0  0  0  0  0  0
   -0.1900    1.8496    0.5916 H   0  0  0  0  0  0  0  0  0  0  0  0
   -1.7550    1.7257   -1.5299 H   0  0  0  0  0  0  0  0  0  0  0  0
   -2.5709    0.1769   -1.8932 H   0  0  0  0  0  0  0  0  0  0  0  0
   -3.3697    2.2336    0.1226 H   0  0  0  0  0  0  0  0  0  0  0  0
   -3.8730    0.0624    0.9439 H   0  0  0  0  0  0  0  0  0  0  0  0
   -5.1214    2.1779    1.1683 H   0  0  0  0  0  0  0  0  0  0  0  0
   -7.2865    0.8115    1.5443 H   0  0  0  0  0  0  0  0  0  0  0  0
   -7.0890    2.6120   -0.1611 H   0  0  0  0  0  0  0  0  0  0  0  0
   -5.7713    2.4198   -2.2853 H   0  0  0  0  0  0  0  0  0  0  0  0
   -6.8552    0.8596   -2.3771 H   0  0  0  0  0  0  0  0  0  0  0  0
   -8.6570    0.0574   -0.3477 H   0  0  0  0  0  0  0  0  0  0  0  0
   -6.8511   -1.0360    0.0037 H   0  0  0  0  0  0  0  0  0  0  0  0
   -6.2183   -2.2920   -1.9890 H   0  0  0  0  0  0  0  0  0  0  0  0
   -4.5308   -0.3074   -1.8768 H   0  0  0  0  0  0  0  0  0  0  0  0
   -4.1006   -2.3257   -1.2097 H   0  0  0  0  0  0  0  0  0  0  0  0
  1  2  1  0
  2  3  1  0
  3  4  1  0
  4  5  1  0
  5  6  1  0
  6  7  1  0
  7  8  1  0
  8  9  1  0
  9 10  1  0
 10 11  1  0
 11 12  1  0
 12 13  2  0
 13 14  1  0
 14 15  1  0
 15 16  1  0
 16 17  1  0
 17 18  1  0
 17 19  1  0
 19 20  1  0
 19 21  1  0
 21 22  1  0
 21 23  1  0
 23 24  1  0
 23 25  1  0
 25 26  1  0
 13 27  1  0
 27 28  2  0
 28 11  1  0
 25 16  1  0
  1 29  1  0
  1 30  1  0
  1 31  1  0
  2 32  1  0
  2 33  1  0
  3 34  1  0
  3 35  1  0
  4 36  1  0
  4 37  1  0
  5 38  1  0
  5 39  1  0
  6 40  1  0
  6 41  1  0
  7 42  1  0
  7 43  1  0
  8 44  1  0
  8 45  1  0
  9 46  1  0
  9 47  1  0
 10 48  1  0
 10 49  1  0
 12 50  1  0
 14 51  1  0
 14 52  1  0
 15 53  1  0
 16 54  1  1
 17 55  1  1
 18 56  1  0
 19 57  1  1
 20 58  1  0
 21 59  1  6
 22 60  1  0
 23 61  1  1
 24 62  1  0
 25 63  1  6
 26 64  1  0
M  END
$$$$
