
     RDKit          3D

 36 36  0  0  0  0  0  0  0  0999 V2000
    4.7057    0.2911   -0.7010 C   0  0  0  0  0  0  0  0  0  0  0  0
    3.6223   -0.3223    0.1389 C   0  0  0  0  0  0  0  0  0  0  0  0
    2.2527    0.1547   -0.3784 C   0  0  0  0  0  0  0  0  0  0  0  0
    1.1388   -0.4174    0.4101 C   0  0  0  0  0  0  0  0  0  0  0  0
   -0.1951   -0.0695    0.0548 N   0  0  0  0  0  0  0  0  0  0  0  0
   -0.4892    1.3170    0.3222 C   0  0  0  0  0  0  0  0  0  0  0  0
   -1.8041    1.7969   -0.1553 C   0  0  2  0  0  0  0  0  0  0  0  0
   -2.3954    2.6554    0.7935 O   0  0  0  0  0  0  0  0  0  0  0  0
   -2.7889    0.7539   -0.5217 C   0  0  1  0  0  0  0  0  0  0  0  0
   -2.9261    0.6839   -1.9290 O   0  0  0  0  0  0  0  0  0  0  0  0
   -2.5773   -0.5887    0.0566 C   0  0  2  0  0  0  0  0  0  0  0  0
   -3.4947   -0.8983    1.0791 O   0  0  0  0  0  0  0  0  0  0  0  0
   -1.2136   -0.8645    0.6409 C   0  0  1  0  0  0  0  0  0  0  0  0
   -1.0352   -2.3488    0.5038 C   0  0  0  0  0  0  0  0  0  0  0  0
   -1.0030   -2.6639   -0.8740 O   0  0  0  0  0  0  0  0  0  0  0  0
    4.3029    0.8696   -1.5590 H   0  0  0  0  0  0  0  0  0  0  0  0
    5.3485    0.9944   -0.1066 H   0  0  0  0  0  0  0  0  0  0  0  0
    5.3639   -0.5122   -1.1133 H   0  0  0  0  0  0  0  0  0  0  0  0
    3.6635   -1.4229    0.1407 H   0  0  0  0  0  0  0  0  0  0  0  0
    3.7574    0.0489    1.1800 H   0  0  0  0  0  0  0  0  0  0  0  0
    2.2518   -0.1372   -1.4517 H   0  0  0  0  0  0  0  0  0  0  0  0
    2.3378    1.2522   -0.3562 H   0  0  0  0  0  0  0  0  0  0  0  0
    1.3845   -0.1659    1.4838 H   0  0  0  0  0  0  0  0  0  0  0  0
    1.2223   -1.5259    0.3605 H   0  0  0  0  0  0  0  0  0  0  0  0
    0.3145    1.9161   -0.1724 H   0  0  0  0  0  0  0  0  0  0  0  0
   -0.4500    1.4349    1.4379 H   0  0  0  0  0  0  0  0  0  0  0  0
   -1.6831    2.4734   -1.0504 H   0  0  0  0  0  0  0  0  0  0  0  0
   -1.9235    2.5121    1.6513 H   0  0  0  0  0  0  0  0  0  0  0  0
   -3.8207    1.0668   -0.1754 H   0  0  0  0  0  0  0  0  0  0  0  0
   -3.5397    1.4070   -2.2127 H   0  0  0  0  0  0  0  0  0  0  0  0
   -2.8133   -1.3407   -0.7476 H   0  0  0  0  0  0  0  0  0  0  0  0
   -3.5152   -0.1684    1.7391 H   0  0  0  0  0  0  0  0  0  0  0  0
   -1.2085   -0.6431    1.7487 H   0  0  0  0  0  0  0  0  0  0  0  0
   -1.9870   -2.8176    0.8544 H   0  0  0  0  0  0  0  0  0  0  0  0
   -0.2265   -2.8000    1.0542 H   0  0  0  0  0  0  0  0  0  0  0  0
   -0.5764   -1.9211   -1.3588 H   0  0  0  0  0  0  0  0  0  0  0  0
  1  2  1  0
  2  3  1  0
  3  4  1  0
  4  5  1  0
  5  6  1  0
  6  7  1  0
  7  8  1  0
  7  9  1  0
  9 10  1  0
  9 11  1  0
 11 12  1  0
 11 13  1  0
 13 14  1  0
 14 15  1  0
 13  5  1  0
  1 16  1  0
  1 17  1  0
  1 18  1  0
  2 19  1  0
  2 20  1  0
  3 21  1  0
  3 22  1  0
  4 23  1  0
  4 24  1  0
  6 25  1  0
  6 26  1  0
  7 27  1  6
  8 28  1  0
  9 29  1  1
 10 30  1  0
 11 31  1  6
 12 32  1  0
 13 33  1  1
 14 34  1  0
 14 35  1  0
 15 36  1  0
M  END
$$$$
