
     RDKit          3D

 53 55  0  0  0  0  0  0  0  0999 V2000
    6.0928   -1.2516   -1.4532 O   0  0  0  0  0  0  0  0  0  0  0  0
    6.6289   -0.9998   -0.2175 C   0  0  0  0  0  0  0  0  0  0  0  0
    5.5434   -0.9806    0.8249 C   0  0  0  0  0  0  0  0  0  0  0  0
    4.5713   -0.0511    0.6676 O   0  0  0  0  0  0  0  0  0  0  0  0
    3.8036   -0.0637   -0.4559 C   0  0  0  0  0  0  0  0  0  0  0  0
    2.7938    1.0903   -0.2928 C   0  0  0  0  0  0  0  0  0  0  0  0
    2.0080    0.8653    0.8732 N   0  0  0  0  0  0  0  0  0  0  0  0
    1.0649    1.8723    1.2108 C   0  0  0  0  0  0  0  0  0  0  0  0
   -0.3512    1.6622    0.7661 C   0  0  0  0  0  0  0  0  0  0  0  0
   -0.6869    0.2584    0.5595 N   0  0  0  0  0  0  0  0  0  0  0  0
    0.1523   -0.4294    1.5860 C   0  0  0  0  0  0  0  0  0  0  0  0
    1.5127   -0.4927    0.9770 C   0  0  0  0  0  0  0  0  0  0  0  0
   -2.0688   -0.0135    0.8777 C   0  0  0  0  0  0  0  0  0  0  0  0
   -2.9608    1.0852    0.3981 C   0  0  0  0  0  0  0  0  0  0  0  0
   -3.9291    1.6040    1.2596 C   0  0  0  0  0  0  0  0  0  0  0  0
   -4.7627    2.6146    0.8291 C   0  0  0  0  0  0  0  0  0  0  0  0
   -4.6822    3.1521   -0.4494 C   0  0  0  0  0  0  0  0  0  0  0  0
   -3.7029    2.5870   -1.2369 C   0  0  0  0  0  0  0  0  0  0  0  0
   -2.8318    1.5770   -0.8827 C   0  0  0  0  0  0  0  0  0  0  0  0
   -2.4701   -1.2500    0.1125 C   0  0  0  0  0  0  0  0  0  0  0  0
   -3.8227   -1.3274   -0.2400 C   0  0  0  0  0  0  0  0  0  0  0  0
   -4.4565   -2.3300   -0.9524 C   0  0  0  0  0  0  0  0  0  0  0  0
   -3.6455   -3.3686   -1.3555 C   0  0  0  0  0  0  0  0  0  0  0  0
   -4.3308   -4.6985   -2.2643 Cl  0  0  0  0  0  0  0  0  0  0  0  0
   -2.3031   -3.3620   -1.0460 C   0  0  0  0  0  0  0  0  0  0  0  0
   -1.7485   -2.3258   -0.3330 C   0  0  0  0  0  0  0  0  0  0  0  0
    6.3237   -2.1646   -1.7579 H   0  0  0  0  0  0  0  0  0  0  0  0
    7.4394   -1.7149    0.0678 H   0  0  0  0  0  0  0  0  0  0  0  0
    7.1211    0.0133   -0.1653 H   0  0  0  0  0  0  0  0  0  0  0  0
    6.0842   -0.7425    1.7925 H   0  0  0  0  0  0  0  0  0  0  0  0
    5.1421   -2.0119    1.0144 H   0  0  0  0  0  0  0  0  0  0  0  0
    4.3486    0.1922   -1.4110 H   0  0  0  0  0  0  0  0  0  0  0  0
    3.2743   -1.0098   -0.6641 H   0  0  0  0  0  0  0  0  0  0  0  0
    3.3660    2.0166   -0.2882 H   0  0  0  0  0  0  0  0  0  0  0  0
    2.1073    1.0288   -1.1848 H   0  0  0  0  0  0  0  0  0  0  0  0
    1.0860    2.1002    2.3084 H   0  0  0  0  0  0  0  0  0  0  0  0
    1.4628    2.8336    0.7575 H   0  0  0  0  0  0  0  0  0  0  0  0
   -1.0484    2.0299    1.5648 H   0  0  0  0  0  0  0  0  0  0  0  0
   -0.4943    2.2679   -0.1754 H   0  0  0  0  0  0  0  0  0  0  0  0
   -0.3053   -1.3508    1.9047 H   0  0  0  0  0  0  0  0  0  0  0  0
    0.1992    0.2814    2.4436 H   0  0  0  0  0  0  0  0  0  0  0  0
    2.1528   -1.1825    1.5217 H   0  0  0  0  0  0  0  0  0  0  0  0
    1.3614   -0.8267   -0.0929 H   0  0  0  0  0  0  0  0  0  0  0  0
   -2.1827   -0.2075    1.9348 H   0  0  0  0  0  0  0  0  0  0  0  0
   -4.0054    1.1971    2.2583 H   0  0  0  0  0  0  0  0  0  0  0  0
   -5.5115    2.9993    1.5290 H   0  0  0  0  0  0  0  0  0  0  0  0
   -5.3228    3.9393   -0.8024 H   0  0  0  0  0  0  0  0  0  0  0  0
   -3.5990    2.9706   -2.2438 H   0  0  0  0  0  0  0  0  0  0  0  0
   -2.1002    1.2075   -1.5890 H   0  0  0  0  0  0  0  0  0  0  0  0
   -4.4950   -0.5207    0.0639 H   0  0  0  0  0  0  0  0  0  0  0  0
   -5.5023   -2.2991   -1.1733 H   0  0  0  0  0  0  0  0  0  0  0  0
   -1.6204   -4.1510   -1.3378 H   0  0  0  0  0  0  0  0  0  0  0  0
   -0.7002   -2.3197   -0.1080 H   0  0  0  0  0  0  0  0  0  0  0  0
  1  2  1  0
  2  3  1  0
  3  4  1  0
  4  5  1  0
  5  6  1  0
  6  7  1  0
  7  8  1  0
  8  9  1  0
  9 10  1  0
 10 11  1  0
 11 12  1  0
 10 13  1  0
 13 14  1  0
 14 15  2  0
 15 16  1  0
 16 17  2  0
 17 18  1  0
 18 19  2  0
 13 20  1  0
 20 21  2  0
 21 22  1  0
 22 23  2  0
 23 24  1  0
 23 25  1  0
 25 26  2  0
 12  7  1  0
 19 14  1  0
 26 20  1  0
  1 27  1  0
  2 28  1  0
  2 29  1  0
  3 30  1  0
  3 31  1  0
  5 32  1  0
  5 33  1  0
  6 34  1  0
  6 35  1  0
  8 36  1  0
  8 37  1  0
  9 38  1  0
  9 39  1  0
 11 40  1  0
 11 41  1  0
 12 42  1  0
 12 43  1  0
 13 44  1  0
 15 45  1  0
 16 46  1  0
 17 47  1  0
 18 48  1  0
 19 49  1  0
 21 50  1  0
 22 51  1  0
 25 52  1  0
 26 53  1  0
M  END
$$$$
