@<TRIPOS>MOLECULE
*****
 53 55 0 0 0
SMALL
GASTEIGER

@<TRIPOS>ATOM
      1 O           6.0928   -1.2516   -1.4532 O.3     1  UNL1       -0.3927
      2 C           6.6289   -0.9998   -0.2175 C.3     1  UNL1        0.0676
      3 C           5.5434   -0.9806    0.8249 C.3     1  UNL1        0.0708
      4 O           4.5713   -0.0511    0.6676 O.3     1  UNL1       -0.3763
      5 C           3.8036   -0.0637   -0.4559 C.3     1  UNL1        0.0605
      6 C           2.7938    1.0903   -0.2928 C.3     1  UNL1        0.0224
      7 N           2.0080    0.8653    0.8732 N.3     1  UNL1       -0.2977
      8 C           1.0649    1.8723    1.2108 C.3     1  UNL1        0.0118
      9 C          -0.3512    1.6622    0.7661 C.3     1  UNL1        0.0126
     10 N          -0.6869    0.2584    0.5595 N.3     1  UNL1       -0.2891
     11 C           0.1523   -0.4294    1.5860 C.3     1  UNL1        0.0126
     12 C           1.5127   -0.4927    0.9770 C.3     1  UNL1        0.0118
     13 C          -2.0688   -0.0135    0.8777 C.3     1  UNL1        0.0610
     14 C          -2.9608    1.0852    0.3981 C.ar    1  UNL1       -0.0259
     15 C          -3.9291    1.6040    1.2596 C.ar    1  UNL1       -0.0568
     16 C          -4.7627    2.6146    0.8291 C.ar    1  UNL1       -0.0614
     17 C          -4.6822    3.1521   -0.4494 C.ar    1  UNL1       -0.0617
     18 C          -3.7029    2.5870   -1.2369 C.ar    1  UNL1       -0.0614
     19 C          -2.8318    1.5770   -0.8827 C.ar    1  UNL1       -0.0568
     20 C          -2.4701   -1.2500    0.1125 C.ar    1  UNL1       -0.0258
     21 C          -3.8227   -1.3274   -0.2400 C.ar    1  UNL1       -0.0554
     22 C          -4.4565   -2.3300   -0.9524 C.ar    1  UNL1       -0.0431
     23 C          -3.6455   -3.3686   -1.3555 C.ar    1  UNL1        0.0410
     24 CL         -4.3308   -4.6985   -2.2643 Cl      1  UNL1       -0.0835
     25 C          -2.3031   -3.3620   -1.0460 C.ar    1  UNL1       -0.0431
     26 C          -1.7485   -2.3258   -0.3330 C.ar    1  UNL1       -0.0554
     27 H           6.3237   -2.1646   -1.7579 H       1  UNL1        0.2095
     28 H           7.4394   -1.7149    0.0678 H       1  UNL1        0.0580
     29 H           7.1211    0.0133   -0.1653 H       1  UNL1        0.0580
     30 H           6.0842   -0.7425    1.7925 H       1  UNL1        0.0583
     31 H           5.1421   -2.0119    1.0144 H       1  UNL1        0.0583
     32 H           4.3486    0.1922   -1.4110 H       1  UNL1        0.0572
     33 H           3.2743   -1.0098   -0.6641 H       1  UNL1        0.0572
     34 H           3.3660    2.0166   -0.2882 H       1  UNL1        0.0449
     35 H           2.1073    1.0288   -1.1848 H       1  UNL1        0.0449
     36 H           1.0860    2.1002    2.3084 H       1  UNL1        0.0439
     37 H           1.4628    2.8336    0.7575 H       1  UNL1        0.0439
     38 H          -1.0484    2.0299    1.5648 H       1  UNL1        0.0439
     39 H          -0.4943    2.2679   -0.1754 H       1  UNL1        0.0439
     40 H          -0.3053   -1.3508    1.9047 H       1  UNL1        0.0439
     41 H           0.1992    0.2814    2.4436 H       1  UNL1        0.0439
     42 H           2.1528   -1.1825    1.5217 H       1  UNL1        0.0439
     43 H           1.3614   -0.8267   -0.0929 H       1  UNL1        0.0439
     44 H          -2.1827   -0.2075    1.9348 H       1  UNL1        0.0562
     45 H          -4.0054    1.1971    2.2583 H       1  UNL1        0.0621
     46 H          -5.5115    2.9993    1.5290 H       1  UNL1        0.0618
     47 H          -5.3228    3.9393   -0.8024 H       1  UNL1        0.0618
     48 H          -3.5990    2.9706   -2.2438 H       1  UNL1        0.0618
     49 H          -2.1002    1.2075   -1.5890 H       1  UNL1        0.0621
     50 H          -4.4950   -0.5207    0.0639 H       1  UNL1        0.0621
     51 H          -5.5023   -2.2991   -1.1733 H       1  UNL1        0.0632
     52 H          -1.6204   -4.1510   -1.3378 H       1  UNL1        0.0632
     53 H          -0.7002   -2.3197   -0.1080 H       1  UNL1        0.0621
@<TRIPOS>BOND
     1     1     2    1
     2     2     3    1
     3     3     4    1
     4     4     5    1
     5     5     6    1
     6     6     7    1
     7     7     8    1
     8     8     9    1
     9     9    10    1
    10    10    11    1
    11    11    12    1
    12    10    13    1
    13    13    14    1
    14    14    15   ar
    15    15    16   ar
    16    16    17   ar
    17    17    18   ar
    18    18    19   ar
    19    13    20    1
    20    20    21   ar
    21    21    22   ar
    22    22    23   ar
    23    23    24    1
    24    23    25   ar
    25    25    26   ar
    26    12     7    1
    27    19    14   ar
    28    26    20   ar
    29     1    27    1
    30     2    28    1
    31     2    29    1
    32     3    30    1
    33     3    31    1
    34     5    32    1
    35     5    33    1
    36     6    34    1
    37     6    35    1
    38     8    36    1
    39     8    37    1
    40     9    38    1
    41     9    39    1
    42    11    40    1
    43    11    41    1
    44    12    42    1
    45    12    43    1
    46    13    44    1
    47    15    45    1
    48    16    46    1
    49    17    47    1
    50    18    48    1
    51    19    49    1
    52    21    50    1
    53    22    51    1
    54    25    52    1
    55    26    53    1
