@<TRIPOS>MOLECULE
*****
 55 58 0 0 0
SMALL
GASTEIGER

@<TRIPOS>ATOM
      1 C           8.3742    0.2896    1.3618 C.3     1  UNL1        0.0790
      2 O           7.6116   -0.3561    0.3697 O.3     1  UNL1       -0.4914
      3 C           6.2383   -0.2267    0.4114 C.ar    1  UNL1        0.1635
      4 C           5.5689    0.4925    1.3797 C.ar    1  UNL1        0.0098
      5 C           4.1728    0.6136    1.3969 C.ar    1  UNL1        0.0782
      6 N           3.5288    1.3233    2.3101 N.ar    1  UNL1       -0.2546
      7 C           2.2045    1.4365    2.2767 C.ar    1  UNL1        0.0318
      8 C           1.4615    0.8370    1.3165 C.ar    1  UNL1       -0.0006
      9 C           2.0707    0.0830    0.3352 C.ar    1  UNL1        0.1391
     10 O           1.3770   -0.5604   -0.6995 O.3     1  UNL1       -0.4553
     11 C           0.0218   -0.2794   -0.7882 C.ar    1  UNL1        0.1291
     12 C          -1.0148   -0.9288   -0.1988 C.ar    1  UNL1       -0.0187
     13 C          -2.3504   -0.5386   -0.3667 C.ar    1  UNL1       -0.0498
     14 C          -2.6694    0.5405   -1.1506 C.ar    1  UNL1       -0.0056
     15 C          -3.9638    0.9511   -1.3173 C.ar    1  UNL1        0.0444
     16 C          -5.0904    0.3289   -0.6561 C.2     1  UNL1        0.2449
     17 O          -6.0972    0.0801   -1.3971 O.2     1  UNL1       -0.2702
     18 N          -5.1976   -0.0175    0.6874 N.am    1  UNL1       -0.3090
     19 C          -6.3492   -0.6206    1.3273 C.3     1  UNL1        0.0178
     20 C          -6.5510   -2.0706    0.9390 C.3     1  UNL1       -0.0469
     21 C          -6.4346   -0.4492    2.7863 C.3     1  UNL1       -0.0469
     22 C          -4.1698    2.0738   -2.1387 C.ar    1  UNL1       -0.0490
     23 C          -3.1779    2.7664   -2.7636 C.ar    1  UNL1       -0.0605
     24 C          -1.8934    2.3286   -2.5706 C.ar    1  UNL1       -0.0539
     25 C          -1.6262    1.2315   -1.7749 C.ar    1  UNL1       -0.0137
     26 C          -0.3401    0.8196   -1.5886 C.ar    1  UNL1       -0.0116
     27 C           3.4693   -0.0210    0.3952 C.ar    1  UNL1        0.0463
     28 C           4.1011   -0.7519   -0.5928 C.ar    1  UNL1       -0.0036
     29 C           5.4899   -0.8454   -0.5716 C.ar    1  UNL1        0.1623
     30 O           6.1776   -1.5640   -1.5331 O.3     1  UNL1       -0.4914
     31 C           5.5748   -2.2630   -2.6011 C.3     1  UNL1        0.0790
     32 H           8.1403   -0.0588    2.3825 H       1  UNL1        0.0660
     33 H           9.4776    0.0825    1.2284 H       1  UNL1        0.0660
     34 H           8.1963    1.4048    1.3576 H       1  UNL1        0.0660
     35 H           6.1323    0.9955    2.1734 H       1  UNL1        0.0677
     36 H           1.7014    2.0271    3.0452 H       1  UNL1        0.0831
     37 H           0.3898    0.9269    1.2924 H       1  UNL1        0.0670
     38 H          -0.7860   -1.7926    0.4391 H       1  UNL1        0.0654
     39 H          -3.1387   -1.1202    0.0936 H       1  UNL1        0.0625
     40 H          -4.3970    0.1772    1.3354 H       1  UNL1        0.1493
     41 H          -7.2333   -0.0977    0.8259 H       1  UNL1        0.0493
     42 H          -7.3587   -2.4674    1.6129 H       1  UNL1        0.0247
     43 H          -6.9923   -2.1512   -0.0814 H       1  UNL1        0.0247
     44 H          -5.6611   -2.6775    1.1048 H       1  UNL1        0.0247
     45 H          -5.7979    0.3811    3.1835 H       1  UNL1        0.0247
     46 H          -6.1770   -1.4170    3.2854 H       1  UNL1        0.0247
     47 H          -7.4953   -0.1797    3.0577 H       1  UNL1        0.0247
     48 H          -5.2016    2.3756   -2.2687 H       1  UNL1        0.0625
     49 H          -3.3693    3.6348   -3.4020 H       1  UNL1        0.0618
     50 H          -1.0935    2.8614   -3.0558 H       1  UNL1        0.0624
     51 H           0.4520    1.3707   -2.0844 H       1  UNL1        0.0660
     52 H           3.5081   -1.2266   -1.3449 H       1  UNL1        0.0663
     53 H           4.6551   -1.7749   -2.9750 H       1  UNL1        0.0660
     54 H           5.2731   -3.2986   -2.3063 H       1  UNL1        0.0660
     55 H           6.2586   -2.3255   -3.4831 H       1  UNL1        0.0660
@<TRIPOS>BOND
     1     1     2    1
     2     2     3    1
     3     3     4   ar
     4     4     5   ar
     5     5     6   ar
     6     6     7   ar
     7     7     8   ar
     8     8     9   ar
     9     9    10    1
    10    10    11    1
    11    11    12   ar
    12    12    13   ar
    13    13    14   ar
    14    14    15   ar
    15    15    16    1
    16    16    17    2
    17    16    18   am
    18    18    19    1
    19    19    20    1
    20    19    21    1
    21    15    22   ar
    22    22    23   ar
    23    23    24   ar
    24    24    25   ar
    25    25    26   ar
    26     9    27   ar
    27    27    28   ar
    28    28    29   ar
    29    29    30    1
    30    30    31    1
    31    29     3   ar
    32    27     5   ar
    33    26    11   ar
    34    25    14   ar
    35     1    32    1
    36     1    33    1
    37     1    34    1
    38     4    35    1
    39     7    36    1
    40     8    37    1
    41    12    38    1
    42    13    39    1
    43    18    40    1
    44    19    41    1
    45    20    42    1
    46    20    43    1
    47    20    44    1
    48    21    45    1
    49    21    46    1
    50    21    47    1
    51    22    48    1
    52    23    49    1
    53    24    50    1
    54    26    51    1
    55    28    52    1
    56    31    53    1
    57    31    54    1
    58    31    55    1
