
     RDKit          3D

 37 39  0  0  0  0  0  0  0  0999 V2000
   -2.3665    2.1082    1.0176 C   0  0  0  0  0  0  0  0  0  0  0  0
   -1.8131    1.8067   -0.2891 N   0  0  0  0  0  0  0  0  0  0  0  0
   -2.2247    0.4890   -0.7469 C   0  0  1  0  0  0  0  0  0  0  0  0
   -1.6091    0.2505   -2.1102 C   0  0  0  0  0  0  0  0  0  0  0  0
   -0.1203    0.4450   -1.9663 C   0  0  0  0  0  0  0  0  0  0  0  0
    0.4958   -0.5878   -1.0861 C   0  0  1  0  0  0  0  0  0  0  0  0
    1.8131   -0.1788   -0.5367 C   0  0  0  0  0  0  0  0  0  0  0  0
    2.8846   -1.0618   -0.4651 C   0  0  0  0  0  0  0  0  0  0  0  0
    4.1062   -0.7184    0.0348 C   0  0  0  0  0  0  0  0  0  0  0  0
    4.3284    0.5600    0.5024 C   0  0  0  0  0  0  0  0  0  0  0  0
    5.9129    0.9784    1.1424 Cl  0  0  0  0  0  0  0  0  0  0  0  0
    3.2993    1.4704    0.4529 C   0  0  0  0  0  0  0  0  0  0  0  0
    3.5850    3.0840    1.0447 Cl  0  0  0  0  0  0  0  0  0  0  0  0
    2.0663    1.1000   -0.0590 C   0  0  0  0  0  0  0  0  0  0  0  0
   -0.4339   -1.0725   -0.0294 C   0  0  0  0  0  0  0  0  0  0  0  0
   -0.0305   -2.0653    0.8396 C   0  0  0  0  0  0  0  0  0  0  0  0
   -0.8582   -2.5486    1.8375 C   0  0  0  0  0  0  0  0  0  0  0  0
   -2.1345   -2.0548    2.0093 C   0  0  0  0  0  0  0  0  0  0  0  0
   -2.5321   -1.0598    1.1347 C   0  0  0  0  0  0  0  0  0  0  0  0
   -1.7048   -0.5804    0.1412 C   0  0  0  0  0  0  0  0  0  0  0  0
   -2.1148    1.3244    1.7624 H   0  0  0  0  0  0  0  0  0  0  0  0
   -1.8500    3.0403    1.3672 H   0  0  0  0  0  0  0  0  0  0  0  0
   -3.4412    2.3287    0.9760 H   0  0  0  0  0  0  0  0  0  0  0  0
   -2.2274    2.4979   -0.9589 H   0  0  0  0  0  0  0  0  0  0  0  0
   -3.3240    0.4833   -0.8176 H   0  0  0  0  0  0  0  0  0  0  0  0
   -1.8550   -0.7943   -2.4444 H   0  0  0  0  0  0  0  0  0  0  0  0
   -1.9982    1.0119   -2.8015 H   0  0  0  0  0  0  0  0  0  0  0  0
    0.0525    1.4817   -1.6779 H   0  0  0  0  0  0  0  0  0  0  0  0
    0.3015    0.3428   -3.0098 H   0  0  0  0  0  0  0  0  0  0  0  0
    0.7206   -1.4778   -1.7482 H   0  0  0  0  0  0  0  0  0  0  0  0
    2.7528   -2.0746   -0.8221 H   0  0  0  0  0  0  0  0  0  0  0  0
    4.9350   -1.4383    0.0788 H   0  0  0  0  0  0  0  0  0  0  0  0
    1.2804    1.8203   -0.0887 H   0  0  0  0  0  0  0  0  0  0  0  0
    0.9779   -2.4830    0.7342 H   0  0  0  0  0  0  0  0  0  0  0  0
   -0.5400   -3.3259    2.5165 H   0  0  0  0  0  0  0  0  0  0  0  0
   -2.7897   -2.4292    2.7904 H   0  0  0  0  0  0  0  0  0  0  0  0
   -3.5445   -0.6722    1.2754 H   0  0  0  0  0  0  0  0  0  0  0  0
  1  2  1  0
  2  3  1  0
  3  4  1  0
  4  5  1  0
  5  6  1  0
  6  7  1  0
  7  8  2  0
  8  9  1  0
  9 10  2  0
 10 11  1  0
 10 12  1  0
 12 13  1  0
 12 14  2  0
  6 15  1  0
 15 16  2  0
 16 17  1  0
 17 18  2  0
 18 19  1  0
 19 20  2  0
 20  3  1  0
 14  7  1  0
 20 15  1  0
  1 21  1  0
  1 22  1  0
  1 23  1  0
  2 24  1  0
  3 25  1  6
  4 26  1  0
  4 27  1  0
  5 28  1  0
  5 29  1  0
  6 30  1  6
  8 31  1  0
  9 32  1  0
 14 33  1  0
 16 34  1  0
 17 35  1  0
 18 36  1  0
 19 37  1  0
M  END
$$$$
