@<TRIPOS>MOLECULE
*****
 37 39 0 0 0
SMALL
GASTEIGER

@<TRIPOS>ATOM
      1 C          -2.3665    2.1082    1.0176 C.3     1  UNL1       -0.0152
      2 N          -1.8131    1.8067   -0.2891 N.3     1  UNL1       -0.3123
      3 C          -2.2247    0.4890   -0.7469 C.3     1  UNL1        0.0329
      4 C          -1.6091    0.2505   -2.1102 C.3     1  UNL1       -0.0326
      5 C          -0.1203    0.4450   -1.9663 C.3     1  UNL1       -0.0405
      6 C           0.4958   -0.5878   -1.0861 C.3     1  UNL1        0.0096
      7 C           1.8131   -0.1788   -0.5367 C.ar    1  UNL1       -0.0385
      8 C           2.8846   -1.0618   -0.4651 C.ar    1  UNL1       -0.0565
      9 C           4.1062   -0.7184    0.0348 C.ar    1  UNL1       -0.0417
     10 C           4.3284    0.5600    0.5024 C.ar    1  UNL1        0.0593
     11 CL          5.9129    0.9784    1.1424 Cl      1  UNL1       -0.0820
     12 C           3.2993    1.4704    0.4529 C.ar    1  UNL1        0.0595
     13 CL          3.5850    3.0840    1.0447 Cl      1  UNL1       -0.0820
     14 C           2.0663    1.1000   -0.0590 C.ar    1  UNL1       -0.0382
     15 C          -0.4339   -1.0725   -0.0294 C.ar    1  UNL1       -0.0353
     16 C          -0.0305   -2.0653    0.8396 C.ar    1  UNL1       -0.0577
     17 C          -0.8582   -2.5486    1.8375 C.ar    1  UNL1       -0.0615
     18 C          -2.1345   -2.0548    2.0093 C.ar    1  UNL1       -0.0614
     19 C          -2.5321   -1.0598    1.1347 C.ar    1  UNL1       -0.0568
     20 C          -1.7048   -0.5804    0.1412 C.ar    1  UNL1       -0.0267
     21 H          -2.1148    1.3244    1.7624 H       1  UNL1        0.0388
     22 H          -1.8500    3.0403    1.3672 H       1  UNL1        0.0388
     23 H          -3.4412    2.3287    0.9760 H       1  UNL1        0.0388
     24 H          -2.2274    2.4979   -0.9589 H       1  UNL1        0.1222
     25 H          -3.3240    0.4833   -0.8176 H       1  UNL1        0.0510
     26 H          -1.8550   -0.7943   -2.4444 H       1  UNL1        0.0284
     27 H          -1.9982    1.0119   -2.8015 H       1  UNL1        0.0284
     28 H           0.0525    1.4817   -1.6779 H       1  UNL1        0.0275
     29 H           0.3015    0.3428   -3.0098 H       1  UNL1        0.0275
     30 H           0.7206   -1.4778   -1.7482 H       1  UNL1        0.0397
     31 H           2.7528   -2.0746   -0.8221 H       1  UNL1        0.0621
     32 H           4.9350   -1.4383    0.0788 H       1  UNL1        0.0633
     33 H           1.2804    1.8203   -0.0887 H       1  UNL1        0.0635
     34 H           0.9779   -2.4830    0.7342 H       1  UNL1        0.0621
     35 H          -0.5400   -3.3259    2.5165 H       1  UNL1        0.0618
     36 H          -2.7897   -2.4292    2.7904 H       1  UNL1        0.0618
     37 H          -3.5445   -0.6722    1.2754 H       1  UNL1        0.0621
@<TRIPOS>BOND
     1     1     2    1
     2     2     3    1
     3     3     4    1
     4     4     5    1
     5     5     6    1
     6     6     7    1
     7     7     8   ar
     8     8     9   ar
     9     9    10   ar
    10    10    11    1
    11    10    12   ar
    12    12    13    1
    13    12    14   ar
    14     6    15    1
    15    15    16   ar
    16    16    17   ar
    17    17    18   ar
    18    18    19   ar
    19    19    20   ar
    20    20     3    1
    21    14     7   ar
    22    20    15   ar
    23     1    21    1
    24     1    22    1
    25     1    23    1
    26     2    24    1
    27     3    25    1
    28     4    26    1
    29     4    27    1
    30     5    28    1
    31     5    29    1
    32     6    30    1
    33     8    31    1
    34     9    32    1
    35    14    33    1
    36    16    34    1
    37    17    35    1
    38    18    36    1
    39    19    37    1
