
     RDKit          3D

 55 58  0  0  0  0  0  0  0  0999 V2000
    7.1839    0.7332   -2.3149 C   0  0  0  0  0  0  0  0  0  0  0  0
    7.0209   -0.5294   -1.5105 C   0  0  0  0  0  0  0  0  0  0  0  0
    6.0761   -0.3814   -0.3722 C   0  0  0  0  0  0  0  0  0  0  0  0
    4.7086   -0.6152   -0.4196 C   0  0  0  0  0  0  0  0  0  0  0  0
    4.1873   -0.3700    0.8292 C   0  0  0  0  0  0  0  0  0  0  0  0
    2.8140   -0.4670    1.2949 C   0  0  0  0  0  0  0  0  0  0  0  0
    2.5217   -0.2031    2.4924 O   0  0  0  0  0  0  0  0  0  0  0  0
    1.7281   -0.8519    0.4720 N   0  0  0  0  0  0  0  0  0  0  0  0
    0.3475   -0.9522    0.9258 C   0  0  0  0  0  0  0  0  0  0  0  0
   -0.1098   -2.3488    0.7652 C   0  0  0  0  0  0  0  0  0  0  0  0
   -1.3981   -2.5291    0.0260 C   0  0  0  0  0  0  0  0  0  0  0  0
   -2.4123   -1.4551    0.3169 C   0  0  0  0  0  0  0  0  0  0  0  0
   -1.8277   -0.1469   -0.0205 C   0  0  0  0  0  0  0  0  0  0  0  0
   -0.5070    0.0751    0.2744 C   0  0  0  0  0  0  0  0  0  0  0  0
   -0.2550    1.3802   -0.1622 C   0  0  0  0  0  0  0  0  0  0  0  0
   -1.4054    1.8480   -0.6768 N   0  0  0  0  0  0  0  0  0  0  0  0
   -2.3693    0.9606   -0.6092 N   0  0  0  0  0  0  0  0  0  0  0  0
   -3.7199    1.1371   -1.0651 C   0  0  0  0  0  0  0  0  0  0  0  0
   -4.0721    1.0768   -2.3964 C   0  0  0  0  0  0  0  0  0  0  0  0
   -5.3880    1.2525   -2.8135 C   0  0  0  0  0  0  0  0  0  0  0  0
   -6.3618    1.4928   -1.8722 C   0  0  0  0  0  0  0  0  0  0  0  0
   -6.0398    1.5577   -0.5400 C   0  0  0  0  0  0  0  0  0  0  0  0
   -7.0603    1.8156    0.5224 C   0  0  0  0  0  0  0  0  0  0  0  0
   -4.7217    1.3794   -0.1479 C   0  0  0  0  0  0  0  0  0  0  0  0
   -4.3900    1.4542    1.2942 C   0  0  0  0  0  0  0  0  0  0  0  0
    5.2161    0.0011    1.6045 N   0  0  0  0  0  0  0  0  0  0  0  0
    5.1385    0.3649    3.0298 C   0  0  0  0  0  0  0  0  0  0  0  0
    6.3225   -0.0082    0.8923 N   0  0  0  0  0  0  0  0  0  0  0  0
    8.1621    1.2230   -2.1897 H   0  0  0  0  0  0  0  0  0  0  0  0
    7.0043    0.4604   -3.3854 H   0  0  0  0  0  0  0  0  0  0  0  0
    6.4175    1.4647   -1.9879 H   0  0  0  0  0  0  0  0  0  0  0  0
    8.0387   -0.7376   -1.0633 H   0  0  0  0  0  0  0  0  0  0  0  0
    6.8022   -1.4078   -2.1488 H   0  0  0  0  0  0  0  0  0  0  0  0
    4.1428   -0.9283   -1.2597 H   0  0  0  0  0  0  0  0  0  0  0  0
    1.9290   -1.0790   -0.5236 H   0  0  0  0  0  0  0  0  0  0  0  0
    0.2829   -0.6973    2.0266 H   0  0  0  0  0  0  0  0  0  0  0  0
   -0.2565   -2.8595    1.7661 H   0  0  0  0  0  0  0  0  0  0  0  0
    0.6936   -2.9499    0.2841 H   0  0  0  0  0  0  0  0  0  0  0  0
   -1.8727   -3.5019    0.2638 H   0  0  0  0  0  0  0  0  0  0  0  0
   -1.2046   -2.5266   -1.0669 H   0  0  0  0  0  0  0  0  0  0  0  0
   -3.3725   -1.6424   -0.1990 H   0  0  0  0  0  0  0  0  0  0  0  0
   -2.6454   -1.5077    1.4115 H   0  0  0  0  0  0  0  0  0  0  0  0
    0.6808    1.8899   -0.0911 H   0  0  0  0  0  0  0  0  0  0  0  0
   -3.3023    0.8884   -3.1310 H   0  0  0  0  0  0  0  0  0  0  0  0
   -5.6500    1.2011   -3.8733 H   0  0  0  0  0  0  0  0  0  0  0  0
   -7.4118    1.6374   -2.1613 H   0  0  0  0  0  0  0  0  0  0  0  0
   -6.7584    2.6721    1.1699 H   0  0  0  0  0  0  0  0  0  0  0  0
   -7.1573    0.9075    1.1190 H   0  0  0  0  0  0  0  0  0  0  0  0
   -8.0457    2.0171    0.0697 H   0  0  0  0  0  0  0  0  0  0  0  0
   -4.3395    2.5165    1.6457 H   0  0  0  0  0  0  0  0  0  0  0  0
   -5.1888    0.9634    1.8913 H   0  0  0  0  0  0  0  0  0  0  0  0
   -3.4297    0.9848    1.5024 H   0  0  0  0  0  0  0  0  0  0  0  0
    4.7383   -0.4801    3.5993 H   0  0  0  0  0  0  0  0  0  0  0  0
    6.1099    0.7394    3.3709 H   0  0  0  0  0  0  0  0  0  0  0  0
    4.4063    1.2028    3.1415 H   0  0  0  0  0  0  0  0  0  0  0  0
  1  2  1  0
  2  3  1  0
  3  4  1  0
  4  5  2  0
  5  6  1  0
  6  7  2  0
  6  8  1  0
  8  9  1  0
  9 10  1  0
 10 11  1  0
 11 12  1  0
 12 13  1  0
 13 14  2  0
 14 15  1  0
 15 16  2  0
 16 17  1  0
 17 18  1  0
 18 19  2  0
 19 20  1  0
 20 21  2  0
 21 22  1  0
 22 23  1  0
 22 24  2  0
 24 25  1  0
  5 26  1  0
 26 27  1  0
 26 28  1  0
 28  3  2  0
 14  9  1  0
 24 18  1  0
 17 13  1  0
  1 29  1  0
  1 30  1  0
  1 31  1  0
  2 32  1  0
  2 33  1  0
  4 34  1  0
  8 35  1  0
  9 36  1  0
 10 37  1  0
 10 38  1  0
 11 39  1  0
 11 40  1  0
 12 41  1  0
 12 42  1  0
 15 43  1  0
 19 44  1  0
 20 45  1  0
 21 46  1  0
 23 47  1  0
 23 48  1  0
 23 49  1  0
 25 50  1  0
 25 51  1  0
 25 52  1  0
 27 53  1  0
 27 54  1  0
 27 55  1  0
M  END
$$$$
