@<TRIPOS>MOLECULE
*****
 55 58 0 0 0
SMALL
GASTEIGER

@<TRIPOS>ATOM
      1 C           7.1839    0.7332   -2.3149 C.3     1  UNL1       -0.0598
      2 C           7.0209   -0.5294   -1.5105 C.3     1  UNL1       -0.0115
      3 C           6.0761   -0.3814   -0.3722 C.ar    1  UNL1        0.0635
      4 C           4.7086   -0.6152   -0.4196 C.ar    1  UNL1       -0.0086
      5 C           4.1873   -0.3700    0.8292 C.ar    1  UNL1        0.1232
      6 C           2.8140   -0.4670    1.2949 C.2     1  UNL1        0.2625
      7 O           2.5217   -0.2031    2.4924 O.2     1  UNL1       -0.2685
      8 N           1.7281   -0.8519    0.4720 N.am    1  UNL1       -0.3032
      9 C           0.3475   -0.9522    0.9258 C.3     1  UNL1        0.0519
     10 C          -0.1098   -2.3488    0.7652 C.3     1  UNL1       -0.0299
     11 C          -1.3981   -2.5291    0.0260 C.3     1  UNL1       -0.0456
     12 C          -2.4123   -1.4551    0.3169 C.3     1  UNL1       -0.0099
     13 C          -1.8277   -0.1469   -0.0205 C.ar    1  UNL1        0.0499
     14 C          -0.5070    0.0751    0.2744 C.ar    1  UNL1        0.0138
     15 C          -0.2550    1.3802   -0.1622 C.ar    1  UNL1        0.0550
     16 N          -1.4054    1.8480   -0.6768 N.ar    1  UNL1       -0.1742
     17 N          -2.3693    0.9606   -0.6092 N.ar    1  UNL1       -0.2361
     18 C          -3.7199    1.1371   -1.0651 C.ar    1  UNL1        0.0688
     19 C          -4.0721    1.0768   -2.3964 C.ar    1  UNL1       -0.0360
     20 C          -5.3880    1.2525   -2.8135 C.ar    1  UNL1       -0.0595
     21 C          -6.3618    1.4928   -1.8722 C.ar    1  UNL1       -0.0585
     22 C          -6.0398    1.5577   -0.5400 C.ar    1  UNL1       -0.0455
     23 C          -7.0603    1.8156    0.5224 C.3     1  UNL1       -0.0394
     24 C          -4.7217    1.3794   -0.1479 C.ar    1  UNL1       -0.0221
     25 C          -4.3900    1.4542    1.2942 C.3     1  UNL1       -0.0374
     26 N           5.2161    0.0011    1.6045 N.ar    1  UNL1       -0.2620
     27 C           5.1385    0.3649    3.0298 C.3     1  UNL1        0.0310
     28 N           6.3225   -0.0082    0.8923 N.ar    1  UNL1       -0.1758
     29 H           8.1621    1.2230   -2.1897 H       1  UNL1        0.0233
     30 H           7.0043    0.4604   -3.3854 H       1  UNL1        0.0233
     31 H           6.4175    1.4647   -1.9879 H       1  UNL1        0.0233
     32 H           8.0387   -0.7376   -1.0633 H       1  UNL1        0.0326
     33 H           6.8022   -1.4078   -2.1488 H       1  UNL1        0.0326
     34 H           4.1428   -0.9283   -1.2597 H       1  UNL1        0.0659
     35 H           1.9290   -1.0790   -0.5236 H       1  UNL1        0.1497
     36 H           0.2829   -0.6973    2.0266 H       1  UNL1        0.0549
     37 H          -0.2565   -2.8595    1.7661 H       1  UNL1        0.0286
     38 H           0.6936   -2.9499    0.2841 H       1  UNL1        0.0286
     39 H          -1.8727   -3.5019    0.2638 H       1  UNL1        0.0270
     40 H          -1.2046   -2.5266   -1.0669 H       1  UNL1        0.0270
     41 H          -3.3725   -1.6424   -0.1990 H       1  UNL1        0.0328
     42 H          -2.6454   -1.5077    1.4115 H       1  UNL1        0.0328
     43 H           0.6808    1.8899   -0.0911 H       1  UNL1        0.0851
     44 H          -3.3023    0.8884   -3.1310 H       1  UNL1        0.0639
     45 H          -5.6500    1.2011   -3.8733 H       1  UNL1        0.0618
     46 H          -7.4118    1.6374   -2.1613 H       1  UNL1        0.0620
     47 H          -6.7584    2.6721    1.1699 H       1  UNL1        0.0278
     48 H          -7.1573    0.9075    1.1190 H       1  UNL1        0.0278
     49 H          -8.0457    2.0171    0.0697 H       1  UNL1        0.0278
     50 H          -4.3395    2.5165    1.6457 H       1  UNL1        0.0278
     51 H          -5.1888    0.9634    1.8913 H       1  UNL1        0.0278
     52 H          -3.4297    0.9848    1.5024 H       1  UNL1        0.0278
     53 H           4.7383   -0.4801    3.5993 H       1  UNL1        0.0473
     54 H           6.1099    0.7394    3.3709 H       1  UNL1        0.0473
     55 H           4.4063    1.2028    3.1415 H       1  UNL1        0.0473
@<TRIPOS>BOND
     1     1     2    1
     2     2     3    1
     3     3     4   ar
     4     4     5   ar
     5     5     6    1
     6     6     7    2
     7     6     8   am
     8     8     9    1
     9     9    10    1
    10    10    11    1
    11    11    12    1
    12    12    13    1
    13    13    14   ar
    14    14    15   ar
    15    15    16   ar
    16    16    17   ar
    17    17    18    1
    18    18    19   ar
    19    19    20   ar
    20    20    21   ar
    21    21    22   ar
    22    22    23    1
    23    22    24   ar
    24    24    25    1
    25     5    26   ar
    26    26    27    1
    27    26    28   ar
    28    28     3   ar
    29    14     9    1
    30    24    18   ar
    31    17    13   ar
    32     1    29    1
    33     1    30    1
    34     1    31    1
    35     2    32    1
    36     2    33    1
    37     4    34    1
    38     8    35    1
    39     9    36    1
    40    10    37    1
    41    10    38    1
    42    11    39    1
    43    11    40    1
    44    12    41    1
    45    12    42    1
    46    15    43    1
    47    19    44    1
    48    20    45    1
    49    21    46    1
    50    23    47    1
    51    23    48    1
    52    23    49    1
    53    25    50    1
    54    25    51    1
    55    25    52    1
    56    27    53    1
    57    27    54    1
    58    27    55    1
