@<TRIPOS>MOLECULE
*****
 48 50 0 0 0
SMALL
GASTEIGER

@<TRIPOS>ATOM
      1 C          -5.5934   -0.5772    1.2008 C.3     1  UNL1        0.0820
      2 O          -4.3896   -1.1191    0.6897 O.3     1  UNL1       -0.4646
      3 C          -3.1591   -0.5466    0.8738 C.2     1  UNL1        0.3373
      4 O          -3.5922    0.4185    1.5408 O.2     1  UNL1       -0.2452
      5 C          -1.8796   -1.0150    0.3981 C.2     1  UNL1        0.0652
      6 C          -1.8492   -2.1277   -0.3040 C.2     1  UNL1        0.0157
      7 C          -3.0712   -2.9070   -0.6189 C.3     1  UNL1       -0.0260
      8 N          -0.5883   -2.5719   -0.7615 N.pl3   1  UNL1       -0.3207
      9 C           0.6381   -1.9007   -0.5147 C.2     1  UNL1        0.0157
     10 C           1.9659   -2.3641   -0.9940 C.3     1  UNL1       -0.0260
     11 C           0.5554   -0.7876    0.1949 C.2     1  UNL1        0.0652
     12 C          -0.6960   -0.1787    0.7543 C.3     1  UNL1        0.0528
     13 C          -0.8194    1.1399    0.0425 C.ar    1  UNL1       -0.0043
     14 C          -0.6102    1.1375   -1.3267 C.ar    1  UNL1       -0.0554
     15 C          -0.7096    2.3160   -2.0386 C.ar    1  UNL1       -0.0592
     16 C          -1.0135    3.5213   -1.4410 C.ar    1  UNL1       -0.0308
     17 C          -1.2220    3.5079   -0.0587 C.ar    1  UNL1        0.1345
     18 N          -1.5296    4.4471    0.8747 N.ar    1  UNL1       -0.0489
     19 O          -1.6099    3.8938    2.0434 O.2     1  UNL1       -0.2416
     20 N          -1.3664    2.6069    1.9343 N.ar    1  UNL1       -0.0486
     21 C          -1.1240    2.3378    0.6537 C.ar    1  UNL1        0.1382
     22 C           1.7301    0.0317    0.5418 C.2     1  UNL1        0.3378
     23 O           1.7898    1.1101    1.2096 O.2     1  UNL1       -0.2452
     24 O           3.0223   -0.2835    0.1608 O.3     1  UNL1       -0.4586
     25 C           4.1339    0.4865    0.4858 C.3     1  UNL1        0.0978
     26 C           5.1923   -0.2653    1.2568 C.3     1  UNL1       -0.0280
     27 C           4.7751    0.9481   -0.8068 C.3     1  UNL1       -0.0280
     28 H          -5.7700    0.4195    0.7226 H       1  UNL1        0.0661
     29 H          -6.4103   -1.2794    0.9295 H       1  UNL1        0.0661
     30 H          -5.5582   -0.4639    2.3028 H       1  UNL1        0.0661
     31 H          -2.7851   -3.8562   -1.1431 H       1  UNL1        0.0290
     32 H          -3.5030   -3.2521    0.3476 H       1  UNL1        0.0290
     33 H          -3.7669   -2.3181   -1.2154 H       1  UNL1        0.0290
     34 H          -0.5534   -3.4578   -1.3220 H       1  UNL1        0.1516
     35 H           2.6628   -2.5768   -0.1655 H       1  UNL1        0.0290
     36 H           1.8173   -3.2700   -1.6417 H       1  UNL1        0.0290
     37 H           2.3235   -1.5486   -1.6795 H       1  UNL1        0.0290
     38 H          -0.5972   -0.0156    1.8262 H       1  UNL1        0.0452
     39 H          -0.3659    0.2486   -1.8997 H       1  UNL1        0.0621
     40 H          -0.5461    2.3154   -3.1105 H       1  UNL1        0.0618
     41 H          -1.1030    4.4694   -1.9520 H       1  UNL1        0.0640
     42 H           3.9195    1.3959    1.0863 H       1  UNL1        0.0728
     43 H           6.1614    0.2498    1.0531 H       1  UNL1        0.0265
     44 H           5.0618   -0.1478    2.3690 H       1  UNL1        0.0265
     45 H           5.3142   -1.3120    0.9481 H       1  UNL1        0.0265
     46 H           5.4742    0.1634   -1.2108 H       1  UNL1        0.0265
     47 H           3.9696    1.0496   -1.5629 H       1  UNL1        0.0265
     48 H           5.2751    1.9282   -0.6730 H       1  UNL1        0.0265
@<TRIPOS>BOND
     1     1     2    1
     2     2     3    1
     3     3     4    2
     4     3     5    1
     5     5     6    2
     6     6     7    1
     7     6     8    1
     8     8     9    1
     9     9    10    1
    10     9    11    2
    11    11    12    1
    12    12    13    1
    13    13    14   ar
    14    14    15   ar
    15    15    16   ar
    16    16    17   ar
    17    17    18   ar
    18    18    19   ar
    19    19    20   ar
    20    20    21   ar
    21    11    22    1
    22    22    23    2
    23    22    24    1
    24    24    25    1
    25    25    26    1
    26    25    27    1
    27    12     5    1
    28    21    13   ar
    29    21    17   ar
    30     1    28    1
    31     1    29    1
    32     1    30    1
    33     7    31    1
    34     7    32    1
    35     7    33    1
    36     8    34    1
    37    10    35    1
    38    10    36    1
    39    10    37    1
    40    12    38    1
    41    14    39    1
    42    15    40    1
    43    16    41    1
    44    25    42    1
    45    26    43    1
    46    26    44    1
    47    26    45    1
    48    27    46    1
    49    27    47    1
    50    27    48    1
