@<TRIPOS>MOLECULE
*****
 115 120 0 0 0
SMALL
GASTEIGER

@<TRIPOS>ATOM
      1 C           8.9260    3.4127   -2.0971 C.3     1  UNL1        0.0788
      2 O           9.1399    2.4107   -1.1389 O.3     1  UNL1       -0.4943
      3 C           8.1668    1.5234   -0.7310 C.ar    1  UNL1        0.1339
      4 C           6.8832    1.6195   -1.3024 C.ar    1  UNL1        0.0020
      5 C           5.8475    0.7859   -0.9676 C.ar    1  UNL1        0.0359
      6 N           4.5527    0.8857   -1.5462 N.pl3   1  UNL1       -0.2992
      7 C           3.5436   -0.0349   -1.1687 C.ar    1  UNL1        0.1264
      8 C           2.7091    0.2336   -0.1044 C.ar    1  UNL1        0.0208
      9 C           1.7183   -0.6662    0.2865 C.ar    1  UNL1        0.1332
     10 O           0.8916   -0.3730    1.3598 O.3     1  UNL1       -0.4553
     11 C          -0.3401    0.2148    1.2511 C.ar    1  UNL1        0.1362
     12 C          -0.7970    0.5292   -0.0210 C.ar    1  UNL1       -0.0170
     13 C          -2.0261    1.1136   -0.1235 C.ar    1  UNL1       -0.0364
     14 C          -2.8091    1.3932    0.9914 C.ar    1  UNL1        0.0427
     15 N          -4.0807    1.9940    0.8045 N.am    1  UNL1       -0.2686
     16 C          -5.2704    1.2175    0.6329 C.2     1  UNL1        0.3082
     17 O          -5.1095   -0.0202    0.6759 O.2     1  UNL1       -0.2521
     18 N          -6.5313    1.7631    0.4289 N.am    1  UNL1       -0.2660
     19 C          -7.7279    1.0424    0.2400 C.ar    1  UNL1        0.0789
     20 C          -8.9037    1.4746    0.8693 C.ar    1  UNL1       -0.0330
     21 C         -10.1129    0.8512    0.7297 C.ar    1  UNL1       -0.0382
     22 C         -11.3103    1.3854    1.4295 C.3     1  UNL1       -0.0126
     23 C         -11.5130    0.7854    2.7838 C.3     1  UNL1       -0.0560
     24 C         -11.2090    2.8982    1.6049 C.3     1  UNL1       -0.0560
     25 C         -12.5298    1.1545    0.5310 C.3     1  UNL1       -0.0560
     26 C         -10.1549   -0.2573   -0.0751 C.ar    1  UNL1       -0.0317
     27 C          -9.0293   -0.7643   -0.7461 C.ar    1  UNL1        0.0946
     28 N          -9.1925   -1.9120   -1.5531 N.pl3   1  UNL1       -0.2018
     29 C          -9.0036   -3.1966   -0.8594 C.3     1  UNL1        0.0578
     30 C          -7.5914   -3.6956   -0.9423 C.3     1  UNL1        0.0616
     31 O          -7.2491   -3.8697   -2.2840 O.3     1  UNL1       -0.3934
     32 S          -9.6074   -1.9186   -3.1987 S.O2    1  UNL1        0.0428
     33 C         -11.2387   -1.1460   -3.3113 C.3     1  UNL1        0.0738
     34 O          -9.7888   -3.3405   -3.6755 O.2     1  UNL1       -0.1553
     35 O          -8.6487   -1.2399   -4.0935 O.2     1  UNL1       -0.1553
     36 C          -7.8521   -0.0952   -0.5652 C.ar    1  UNL1        0.1637
     37 O          -6.7079   -0.5285   -1.1833 O.3     1  UNL1       -0.4913
     38 C          -6.2987   -0.0244   -2.4232 C.3     1  UNL1        0.0790
     39 C          -2.3118    1.0611    2.2583 C.ar    1  UNL1        0.0069
     40 C          -3.0857    1.3360    3.3696 C.ar    1  UNL1       -0.0521
     41 C          -2.6416    1.0276    4.6387 C.ar    1  UNL1       -0.0611
     42 C          -1.3850    0.4284    4.7626 C.ar    1  UNL1       -0.0611
     43 C          -0.6184    0.1568    3.6499 C.ar    1  UNL1       -0.0505
     44 C          -1.0732    0.4702    2.3834 C.ar    1  UNL1        0.0262
     45 C           1.6002   -1.8377   -0.4302 C.ar    1  UNL1       -0.0011
     46 C           2.4462   -2.0846   -1.4914 C.ar    1  UNL1        0.0332
     47 N           3.3870   -1.1906   -1.8334 N.ar    1  UNL1       -0.2400
     48 C           6.1087   -0.1863   -0.0192 C.ar    1  UNL1       -0.0396
     49 C           7.3534   -0.2888    0.5433 C.ar    1  UNL1       -0.0443
     50 C           8.4168    0.5623    0.2039 C.ar    1  UNL1        0.0783
     51 C           9.7030    0.3846    0.8462 C.2     1  UNL1        0.2476
     52 O           9.7576   -0.5768    1.7103 O.2     1  UNL1       -0.2701
     53 N          10.8706    1.1362    0.6288 N.am    1  UNL1       -0.3100
     54 C          12.0994    0.8606    1.3310 C.3     1  UNL1        0.0247
     55 C          12.6380   -0.5052    1.0750 C.3     1  UNL1        0.0145
     56 N          12.9210   -0.7574   -0.3001 N.3     1  UNL1       -0.2991
     57 C          13.9907   -0.0366   -0.8830 C.3     1  UNL1        0.0103
     58 C          15.3215   -0.4685   -0.3659 C.3     1  UNL1        0.0362
     59 S          15.3558   -2.2442   -0.2177 S.O     1  UNL1        0.0246
     60 O          16.0589   -2.7436    1.0118 O.2     1  UNL1       -0.2571
     61 C          13.8119   -3.0316   -0.5763 C.3     1  UNL1        0.0362
     62 C          12.6734   -2.0696   -0.7743 C.3     1  UNL1        0.0103
     63 H           8.4633    3.0020   -3.0292 H       1  UNL1        0.0660
     64 H           9.9246    3.8697   -2.3565 H       1  UNL1        0.0660
     65 H           8.3185    4.2736   -1.6958 H       1  UNL1        0.0660
     66 H           6.7244    2.4040   -2.0461 H       1  UNL1        0.0673
     67 H           4.3197    1.6175   -2.2418 H       1  UNL1        0.1536
     68 H           2.8615    1.1731    0.4107 H       1  UNL1        0.0689
     69 H          -0.2187    0.3282   -0.9148 H       1  UNL1        0.0655
     70 H          -2.4597    1.3920   -1.0877 H       1  UNL1        0.0637
     71 H          -4.1367    3.0268    0.7964 H       1  UNL1        0.1564
     72 H          -6.6237    2.8250    0.4134 H       1  UNL1        0.1565
     73 H          -8.8377    2.3696    1.5107 H       1  UNL1        0.0640
     74 H         -12.0442    1.5286    3.4161 H       1  UNL1        0.0238
     75 H         -10.5378    0.6003    3.2523 H       1  UNL1        0.0238
     76 H         -12.1658   -0.1144    2.7662 H       1  UNL1        0.0238
     77 H         -10.8856    3.1674    2.6274 H       1  UNL1        0.0238
     78 H         -10.5313    3.2882    0.8108 H       1  UNL1        0.0238
     79 H         -12.2330    3.3511    1.4962 H       1  UNL1        0.0238
     80 H         -12.1552    1.0973   -0.5087 H       1  UNL1        0.0238
     81 H         -12.9938    0.1958    0.7739 H       1  UNL1        0.0238
     82 H         -13.2438    2.0185    0.6380 H       1  UNL1        0.0238
     83 H         -11.0962   -0.7917   -0.2197 H       1  UNL1        0.0641
     84 H          -9.2751   -3.1170    0.2062 H       1  UNL1        0.0505
     85 H          -9.7191   -3.9124   -1.3151 H       1  UNL1        0.0505
     86 H          -7.5154   -4.7390   -0.5014 H       1  UNL1        0.0573
     87 H          -6.8635   -3.1098   -0.3729 H       1  UNL1        0.0573
     88 H          -7.4440   -4.8095   -2.5985 H       1  UNL1        0.2095
     89 H         -11.0525   -0.0549   -3.1679 H       1  UNL1        0.0482
     90 H         -11.8190   -1.5563   -2.4607 H       1  UNL1        0.0482
     91 H         -11.6991   -1.3868   -4.2904 H       1  UNL1        0.0482
     92 H          -6.1099   -0.8675   -3.1389 H       1  UNL1        0.0660
     93 H          -7.0504    0.6267   -2.8708 H       1  UNL1        0.0660
     94 H          -5.3518    0.5660   -2.3435 H       1  UNL1        0.0660
     95 H          -4.0534    1.8041    3.1903 H       1  UNL1        0.0624
     96 H          -3.2473    1.2433    5.5113 H       1  UNL1        0.0618
     97 H          -0.9856    0.1643    5.7404 H       1  UNL1        0.0618
     98 H           0.3710   -0.3136    3.7296 H       1  UNL1        0.0625
     99 H           0.8285   -2.5542   -0.1362 H       1  UNL1        0.0669
    100 H           2.2958   -3.0288   -2.0129 H       1  UNL1        0.0831
    101 H           5.2994   -0.8498    0.2525 H       1  UNL1        0.0636
    102 H           7.5087   -1.0500    1.2687 H       1  UNL1        0.0627
    103 H          10.8747    1.9105   -0.0466 H       1  UNL1        0.1491
    104 H          11.9025    0.9438    2.4439 H       1  UNL1        0.0475
    105 H          12.8618    1.6555    1.1423 H       1  UNL1        0.0475
    106 H          11.8936   -1.2588    1.3931 H       1  UNL1        0.0442
    107 H          13.5256   -0.6649    1.7374 H       1  UNL1        0.0442
    108 H          13.9820   -0.2522   -1.9880 H       1  UNL1        0.0435
    109 H          13.8356    1.0731   -0.7873 H       1  UNL1        0.0435
    110 H          15.6511    0.0365    0.5507 H       1  UNL1        0.0413
    111 H          16.0817   -0.2085   -1.1628 H       1  UNL1        0.0413
    112 H          13.5946   -3.8369    0.1672 H       1  UNL1        0.0413
    113 H          13.9239   -3.5923   -1.5508 H       1  UNL1        0.0413
    114 H          11.8073   -2.4889   -0.2323 H       1  UNL1        0.0435
    115 H          12.3564   -2.0020   -1.8520 H       1  UNL1        0.0435
@<TRIPOS>BOND
     1     1     2    1
     2     2     3    1
     3     3     4   ar
     4     4     5   ar
     5     5     6    1
     6     6     7    1
     7     7     8   ar
     8     8     9   ar
     9     9    10    1
    10    10    11    1
    11    11    12   ar
    12    12    13   ar
    13    13    14   ar
    14    14    15    1
    15    15    16   am
    16    16    17    2
    17    16    18   am
    18    18    19    1
    19    19    20   ar
    20    20    21   ar
    21    21    22    1
    22    22    23    1
    23    22    24    1
    24    22    25    1
    25    21    26   ar
    26    26    27   ar
    27    27    28    1
    28    28    29    1
    29    29    30    1
    30    30    31    1
    31    28    32    1
    32    32    33    1
    33    32    34    2
    34    32    35    2
    35    27    36   ar
    36    36    37    1
    37    37    38    1
    38    14    39   ar
    39    39    40   ar
    40    40    41   ar
    41    41    42   ar
    42    42    43   ar
    43    43    44   ar
    44     9    45   ar
    45    45    46   ar
    46    46    47   ar
    47     5    48   ar
    48    48    49   ar
    49    49    50   ar
    50    50    51    1
    51    51    52    2
    52    51    53   am
    53    53    54    1
    54    54    55    1
    55    55    56    1
    56    56    57    1
    57    57    58    1
    58    58    59    1
    59    59    60    2
    60    59    61    1
    61    61    62    1
    62    50     3   ar
    63    62    56    1
    64    47     7   ar
    65    44    11   ar
    66    36    19   ar
    67    44    39   ar
    68     1    63    1
    69     1    64    1
    70     1    65    1
    71     4    66    1
    72     6    67    1
    73     8    68    1
    74    12    69    1
    75    13    70    1
    76    15    71    1
    77    18    72    1
    78    20    73    1
    79    23    74    1
    80    23    75    1
    81    23    76    1
    82    24    77    1
    83    24    78    1
    84    24    79    1
    85    25    80    1
    86    25    81    1
    87    25    82    1
    88    26    83    1
    89    29    84    1
    90    29    85    1
    91    30    86    1
    92    30    87    1
    93    31    88    1
    94    33    89    1
    95    33    90    1
    96    33    91    1
    97    38    92    1
    98    38    93    1
    99    38    94    1
   100    40    95    1
   101    41    96    1
   102    42    97    1
   103    43    98    1
   104    45    99    1
   105    46   100    1
   106    48   101    1
   107    49   102    1
   108    53   103    1
   109    54   104    1
   110    54   105    1
   111    55   106    1
   112    55   107    1
   113    57   108    1
   114    57   109    1
   115    58   110    1
   116    58   111    1
   117    61   112    1
   118    61   113    1
   119    62   114    1
   120    62   115    1
