@<TRIPOS>MOLECULE
*****
 60 64 0 0 0
SMALL
GASTEIGER

@<TRIPOS>ATOM
      1 C           0.8918   -0.7085   -2.4336 C.3     1  UNL1       -0.0390
      2 C           1.3615   -0.4378   -1.0373 C.ar    1  UNL1       -0.0381
      3 C           2.7124   -0.3107   -0.7690 C.ar    1  UNL1       -0.0182
      4 C           3.2353   -0.0561    0.4711 C.ar    1  UNL1        0.1216
      5 N           4.6039    0.0766    0.7237 N.pl3   1  UNL1       -0.3122
      6 C           5.5648    0.0956   -0.3488 C.3     1  UNL1        0.0287
      7 C           6.5703    1.2065   -0.0036 C.3     1  UNL1        0.0208
      8 C           7.4628    1.4591   -1.2098 C.3     1  UNL1       -0.0482
      9 N           7.2981    0.9410    1.1905 N.3     1  UNL1       -0.3081
     10 C           6.6186    0.0857    2.1263 C.3     1  UNL1        0.0208
     11 C           7.1521   -1.3066    1.9908 C.3     1  UNL1       -0.0482
     12 C           5.1316    0.1941    2.0753 C.3     1  UNL1        0.0287
     13 N           2.3127    0.0714    1.4746 N.ar    1  UNL1       -0.2397
     14 C           0.9939   -0.0439    1.2620 C.ar    1  UNL1        0.0376
     15 C           0.4656   -0.3035   -0.0038 C.ar    1  UNL1        0.0033
     16 C          -0.9751   -0.4322   -0.2014 C.ar    1  UNL1       -0.0161
     17 C          -1.7983    0.5596    0.3454 C.ar    1  UNL1       -0.0533
     18 C          -3.1682    0.4737    0.1882 C.ar    1  UNL1       -0.0505
     19 C          -3.7894   -0.5549   -0.4910 C.ar    1  UNL1        0.0174
     20 C          -5.2408   -0.5877   -0.6240 C.ar    1  UNL1        0.1431
     21 N          -5.9533    0.4162   -0.0731 N.ar    1  UNL1       -0.2113
     22 C          -7.2850    0.5182   -0.1172 C.ar    1  UNL1        0.1480
     23 C          -7.9890   -0.4576   -0.7640 C.ar    1  UNL1        0.0831
     24 C          -9.3235   -0.1245   -0.6686 C.ar    1  UNL1       -0.0297
     25 C          -9.3788    1.0429    0.0336 C.ar    1  UNL1        0.0070
     26 N          -8.1393    1.4484    0.3777 N.ar    1  UNL1       -0.3347
     27 C          -7.7268    2.6098    1.1120 C.3     1  UNL1        0.0132
     28 C          -7.2756   -1.4871   -1.3301 C.ar    1  UNL1        0.2610
     29 O          -7.9118   -2.3901   -1.9272 O.2     1  UNL1       -0.2671
     30 N          -5.9150   -1.5397   -1.2537 N.ar    1  UNL1       -0.3063
     31 C          -2.9692   -1.5231   -1.0232 C.ar    1  UNL1       -0.0505
     32 C          -1.5797   -1.4463   -0.8702 C.ar    1  UNL1       -0.0533
     33 H           0.9509   -1.7995   -2.6182 H       1  UNL1        0.0278
     34 H          -0.1547   -0.4031   -2.5847 H       1  UNL1        0.0278
     35 H           1.5798   -0.2452   -3.1748 H       1  UNL1        0.0278
     36 H           3.3587   -0.4316   -1.6225 H       1  UNL1        0.0655
     37 H           5.1708    0.3069   -1.3400 H       1  UNL1        0.0479
     38 H           6.1310   -0.8596   -0.4167 H       1  UNL1        0.0479
     39 H           5.9766    2.1357    0.1463 H       1  UNL1        0.0473
     40 H           6.9277    2.0530   -1.9873 H       1  UNL1        0.0245
     41 H           8.3627    2.0167   -0.9432 H       1  UNL1        0.0245
     42 H           7.6929    0.4784   -1.6826 H       1  UNL1        0.0245
     43 H           7.5804    1.8599    1.6377 H       1  UNL1        0.1225
     44 H           6.9289    0.4470    3.1516 H       1  UNL1        0.0473
     45 H           6.3693   -2.0919    1.9135 H       1  UNL1        0.0245
     46 H           7.7832   -1.6144    2.8786 H       1  UNL1        0.0245
     47 H           7.8813   -1.3665    1.1319 H       1  UNL1        0.0245
     48 H           4.7137   -0.6982    2.6278 H       1  UNL1        0.0479
     49 H           4.7551    1.0858    2.6096 H       1  UNL1        0.0479
     50 H           0.2998    0.0626    2.0711 H       1  UNL1        0.0836
     51 H          -1.3679    1.3882    0.8877 H       1  UNL1        0.0624
     52 H          -3.8235    1.2450    0.6135 H       1  UNL1        0.0625
     53 H         -10.1321   -0.7176   -1.0908 H       1  UNL1        0.0641
     54 H         -10.2880    1.6035    0.3002 H       1  UNL1        0.0809
     55 H          -8.6002    3.1426    1.5519 H       1  UNL1        0.0456
     56 H          -7.2474    3.3489    0.4080 H       1  UNL1        0.0456
     57 H          -6.9818    2.3722    1.8723 H       1  UNL1        0.0456
     58 H          -5.4192   -2.3337   -1.6942 H       1  UNL1        0.1704
     59 H          -3.4132   -2.3494   -1.5662 H       1  UNL1        0.0625
     60 H          -0.9914   -2.2308   -1.3022 H       1  UNL1        0.0624
@<TRIPOS>BOND
     1     1     2    1
     2     2     3   ar
     3     3     4   ar
     4     4     5    1
     5     5     6    1
     6     6     7    1
     7     7     8    1
     8     7     9    1
     9     9    10    1
    10    10    11    1
    11    10    12    1
    12     4    13   ar
    13    13    14   ar
    14    14    15   ar
    15    15    16    1
    16    16    17   ar
    17    17    18   ar
    18    18    19   ar
    19    19    20    1
    20    20    21   ar
    21    21    22   ar
    22    22    23   ar
    23    23    24   ar
    24    24    25   ar
    25    25    26   ar
    26    26    27    1
    27    23    28   ar
    28    28    29    2
    29    28    30   ar
    30    19    31   ar
    31    31    32   ar
    32    15     2   ar
    33    32    16   ar
    34    12     5    1
    35    30    20   ar
    36    26    22   ar
    37     1    33    1
    38     1    34    1
    39     1    35    1
    40     3    36    1
    41     6    37    1
    42     6    38    1
    43     7    39    1
    44     8    40    1
    45     8    41    1
    46     8    42    1
    47     9    43    1
    48    10    44    1
    49    11    45    1
    50    11    46    1
    51    11    47    1
    52    12    48    1
    53    12    49    1
    54    14    50    1
    55    17    51    1
    56    18    52    1
    57    24    53    1
    58    25    54    1
    59    27    55    1
    60    27    56    1
    61    27    57    1
    62    30    58    1
    63    31    59    1
    64    32    60    1
