
     RDKit          3D

 60 64  0  0  0  0  0  0  0  0999 V2000
    0.8918   -0.7085   -2.4336 C   0  0  0  0  0  0  0  0  0  0  0  0
    1.3615   -0.4378   -1.0373 C   0  0  0  0  0  0  0  0  0  0  0  0
    2.7124   -0.3107   -0.7690 C   0  0  0  0  0  0  0  0  0  0  0  0
    3.2353   -0.0561    0.4711 C   0  0  0  0  0  0  0  0  0  0  0  0
    4.6039    0.0766    0.7237 N   0  0  0  0  0  0  0  0  0  0  0  0
    5.5648    0.0956   -0.3488 C   0  0  0  0  0  0  0  0  0  0  0  0
    6.5703    1.2065   -0.0036 C   0  0  2  0  0  0  0  0  0  0  0  0
    7.4628    1.4591   -1.2098 C   0  0  0  0  0  0  0  0  0  0  0  0
    7.2981    0.9410    1.1905 N   0  0  0  0  0  0  0  0  0  0  0  0
    6.6186    0.0857    2.1263 C   0  0  2  0  0  0  0  0  0  0  0  0
    7.1521   -1.3066    1.9908 C   0  0  0  0  0  0  0  0  0  0  0  0
    5.1316    0.1941    2.0753 C   0  0  0  0  0  0  0  0  0  0  0  0
    2.3127    0.0714    1.4746 N   0  0  0  0  0  0  0  0  0  0  0  0
    0.9939   -0.0439    1.2620 C   0  0  0  0  0  0  0  0  0  0  0  0
    0.4656   -0.3035   -0.0038 C   0  0  0  0  0  0  0  0  0  0  0  0
   -0.9751   -0.4322   -0.2014 C   0  0  0  0  0  0  0  0  0  0  0  0
   -1.7983    0.5596    0.3454 C   0  0  0  0  0  0  0  0  0  0  0  0
   -3.1682    0.4737    0.1882 C   0  0  0  0  0  0  0  0  0  0  0  0
   -3.7894   -0.5549   -0.4910 C   0  0  0  0  0  0  0  0  0  0  0  0
   -5.2408   -0.5877   -0.6240 C   0  0  0  0  0  0  0  0  0  0  0  0
   -5.9533    0.4162   -0.0731 N   0  0  0  0  0  0  0  0  0  0  0  0
   -7.2850    0.5182   -0.1172 C   0  0  0  0  0  0  0  0  0  0  0  0
   -7.9890   -0.4576   -0.7640 C   0  0  0  0  0  0  0  0  0  0  0  0
   -9.3235   -0.1245   -0.6686 C   0  0  0  0  0  0  0  0  0  0  0  0
   -9.3788    1.0429    0.0336 C   0  0  0  0  0  0  0  0  0  0  0  0
   -8.1393    1.4484    0.3777 N   0  0  0  0  0  0  0  0  0  0  0  0
   -7.7268    2.6098    1.1120 C   0  0  0  0  0  0  0  0  0  0  0  0
   -7.2756   -1.4871   -1.3301 C   0  0  0  0  0  0  0  0  0  0  0  0
   -7.9118   -2.3901   -1.9272 O   0  0  0  0  0  0  0  0  0  0  0  0
   -5.9150   -1.5397   -1.2537 N   0  0  0  0  0  0  0  0  0  0  0  0
   -2.9692   -1.5231   -1.0232 C   0  0  0  0  0  0  0  0  0  0  0  0
   -1.5797   -1.4463   -0.8702 C   0  0  0  0  0  0  0  0  0  0  0  0
    0.9509   -1.7995   -2.6182 H   0  0  0  0  0  0  0  0  0  0  0  0
   -0.1547   -0.4031   -2.5847 H   0  0  0  0  0  0  0  0  0  0  0  0
    1.5798   -0.2452   -3.1748 H   0  0  0  0  0  0  0  0  0  0  0  0
    3.3587   -0.4316   -1.6225 H   0  0  0  0  0  0  0  0  0  0  0  0
    5.1708    0.3069   -1.3400 H   0  0  0  0  0  0  0  0  0  0  0  0
    6.1310   -0.8596   -0.4167 H   0  0  0  0  0  0  0  0  0  0  0  0
    5.9766    2.1357    0.1463 H   0  0  0  0  0  0  0  0  0  0  0  0
    6.9277    2.0530   -1.9873 H   0  0  0  0  0  0  0  0  0  0  0  0
    8.3627    2.0167   -0.9432 H   0  0  0  0  0  0  0  0  0  0  0  0
    7.6929    0.4784   -1.6826 H   0  0  0  0  0  0  0  0  0  0  0  0
    7.5804    1.8599    1.6377 H   0  0  0  0  0  0  0  0  0  0  0  0
    6.9289    0.4470    3.1516 H   0  0  0  0  0  0  0  0  0  0  0  0
    6.3693   -2.0919    1.9135 H   0  0  0  0  0  0  0  0  0  0  0  0
    7.7832   -1.6144    2.8786 H   0  0  0  0  0  0  0  0  0  0  0  0
    7.8813   -1.3665    1.1319 H   0  0  0  0  0  0  0  0  0  0  0  0
    4.7137   -0.6982    2.6278 H   0  0  0  0  0  0  0  0  0  0  0  0
    4.7551    1.0858    2.6096 H   0  0  0  0  0  0  0  0  0  0  0  0
    0.2998    0.0626    2.0711 H   0  0  0  0  0  0  0  0  0  0  0  0
   -1.3679    1.3882    0.8877 H   0  0  0  0  0  0  0  0  0  0  0  0
   -3.8235    1.2450    0.6135 H   0  0  0  0  0  0  0  0  0  0  0  0
  -10.1321   -0.7176   -1.0908 H   0  0  0  0  0  0  0  0  0  0  0  0
  -10.2880    1.6035    0.3002 H   0  0  0  0  0  0  0  0  0  0  0  0
   -8.6002    3.1426    1.5519 H   0  0  0  0  0  0  0  0  0  0  0  0
   -7.2474    3.3489    0.4080 H   0  0  0  0  0  0  0  0  0  0  0  0
   -6.9818    2.3722    1.8723 H   0  0  0  0  0  0  0  0  0  0  0  0
   -5.4192   -2.3337   -1.6942 H   0  0  0  0  0  0  0  0  0  0  0  0
   -3.4132   -2.3494   -1.5662 H   0  0  0  0  0  0  0  0  0  0  0  0
   -0.9914   -2.2308   -1.3022 H   0  0  0  0  0  0  0  0  0  0  0  0
  1  2  1  0
  2  3  2  0
  3  4  1  0
  4  5  1  0
  5  6  1  0
  6  7  1  0
  7  8  1  0
  7  9  1  0
  9 10  1  0
 10 11  1  0
 10 12  1  0
  4 13  2  0
 13 14  1  0
 14 15  2  0
 15 16  1  0
 16 17  2  0
 17 18  1  0
 18 19  2  0
 19 20  1  0
 20 21  2  0
 21 22  1  0
 22 23  2  0
 23 24  1  0
 24 25  2  0
 25 26  1  0
 26 27  1  0
 23 28  1  0
 28 29  2  0
 28 30  1  0
 19 31  1  0
 31 32  2  0
 15  2  1  0
 32 16  1  0
 12  5  1  0
 30 20  1  0
 26 22  1  0
  1 33  1  0
  1 34  1  0
  1 35  1  0
  3 36  1  0
  6 37  1  0
  6 38  1  0
  7 39  1  1
  8 40  1  0
  8 41  1  0
  8 42  1  0
  9 43  1  0
 10 44  1  1
 11 45  1  0
 11 46  1  0
 11 47  1  0
 12 48  1  0
 12 49  1  0
 14 50  1  0
 17 51  1  0
 18 52  1  0
 24 53  1  0
 25 54  1  0
 27 55  1  0
 27 56  1  0
 27 57  1  0
 30 58  1  0
 31 59  1  0
 32 60  1  0
M  END
$$$$
