
     RDKit          3D

 65 70  0  0  0  0  0  0  0  0999 V2000
   -0.6983   -0.8882   -2.3718 O   0  0  0  0  0  0  0  0  0  0  0  0
   -0.3614   -0.2529   -1.3394 C   0  0  0  0  0  0  0  0  0  0  0  0
   -1.4619    0.1263   -0.4913 N   0  0  0  0  0  0  0  0  0  0  0  0
   -2.8354   -0.2083   -0.8193 C   0  0  1  0  0  0  0  0  0  0  0  0
   -3.5384   -0.9556    0.2623 C   0  0  0  0  0  0  0  0  0  0  0  0
   -3.5912   -0.1981    1.5539 C   0  0  0  0  0  0  0  0  0  0  0  0
   -4.3016    1.1154    1.3685 C   0  0  0  0  0  0  0  0  0  0  0  0
   -3.5666    1.8778    0.2882 C   0  0  0  0  0  0  0  0  0  0  0  0
   -3.5606    1.1314   -1.0055 C   0  0  0  0  0  0  0  0  0  0  0  0
   -4.9875    0.8900   -1.4471 C   0  0  0  0  0  0  0  0  0  0  0  0
   -5.6832    0.1003   -0.3788 C   0  0  2  0  0  0  0  0  0  0  0  0
   -6.9898   -0.1616   -0.8040 O   0  0  0  0  0  0  0  0  0  0  0  0
   -5.7078    0.8738    0.9182 C   0  0  0  0  0  0  0  0  0  0  0  0
   -4.9614   -1.2012   -0.1871 C   0  0  0  0  0  0  0  0  0  0  0  0
    1.0079    0.0934   -0.9884 C   0  0  0  0  0  0  0  0  0  0  0  0
    1.4380    1.4017   -0.8353 C   0  0  0  0  0  0  0  0  0  0  0  0
    2.7206    1.6931   -0.5059 N   0  0  0  0  0  0  0  0  0  0  0  0
    3.5968    0.6961   -0.3231 C   0  0  0  0  0  0  0  0  0  0  0  0
    4.9473    0.9473    0.0226 N   0  0  0  0  0  0  0  0  0  0  0  0
    5.4552    2.2952    0.1993 C   0  0  1  0  0  0  0  0  0  0  0  0
    4.6809    2.9910    1.3170 C   0  0  0  0  0  0  0  0  0  0  0  0
    5.7409    3.8511    1.9315 C   0  0  0  0  0  0  0  0  0  0  0  0
    6.9502    3.5354    1.3671 O   0  0  0  0  0  0  0  0  0  0  0  0
    6.8445    2.2749    0.7983 C   0  0  0  0  0  0  0  0  0  0  0  0
    3.1961   -0.5706   -0.4676 N   0  0  0  0  0  0  0  0  0  0  0  0
    1.9115   -0.9049   -0.7989 C   0  0  0  0  0  0  0  0  0  0  0  0
    1.5324   -2.3067   -0.9430 C   0  0  0  0  0  0  0  0  0  0  0  0
    1.0265   -2.9480    0.3233 C   0  0  0  0  0  0  0  0  0  0  0  0
    1.3097   -4.4262    0.0152 C   0  0  0  0  0  0  0  0  0  0  0  0
    2.7476   -4.3524   -0.4092 C   0  0  0  0  0  0  0  0  0  0  0  0
    2.8236   -3.0968   -1.2083 C   0  0  0  0  0  0  0  0  0  0  0  0
   -1.2305    0.6531    0.3729 H   0  0  0  0  0  0  0  0  0  0  0  0
   -2.8763   -0.7957   -1.7605 H   0  0  0  0  0  0  0  0  0  0  0  0
   -3.0890   -1.9538    0.4448 H   0  0  0  0  0  0  0  0  0  0  0  0
   -4.2124   -0.7919    2.2759 H   0  0  0  0  0  0  0  0  0  0  0  0
   -2.6053   -0.0720    2.0427 H   0  0  0  0  0  0  0  0  0  0  0  0
   -4.2619    1.7011    2.3083 H   0  0  0  0  0  0  0  0  0  0  0  0
   -2.5565    2.1775    0.6214 H   0  0  0  0  0  0  0  0  0  0  0  0
   -4.1271    2.8405    0.1507 H   0  0  0  0  0  0  0  0  0  0  0  0
   -3.0541    1.7421   -1.7755 H   0  0  0  0  0  0  0  0  0  0  0  0
   -4.9685    0.2559   -2.3748 H   0  0  0  0  0  0  0  0  0  0  0  0
   -5.4524    1.8619   -1.6333 H   0  0  0  0  0  0  0  0  0  0  0  0
   -7.2034    0.3768   -1.6244 H   0  0  0  0  0  0  0  0  0  0  0  0
   -6.2468    1.8379    0.7410 H   0  0  0  0  0  0  0  0  0  0  0  0
   -6.2854    0.2700    1.6439 H   0  0  0  0  0  0  0  0  0  0  0  0
   -5.4780   -1.7619    0.6440 H   0  0  0  0  0  0  0  0  0  0  0  0
   -5.0240   -1.8391   -1.0763 H   0  0  0  0  0  0  0  0  0  0  0  0
    0.7046    2.1866   -0.9906 H   0  0  0  0  0  0  0  0  0  0  0  0
    5.6230    0.1664    0.1616 H   0  0  0  0  0  0  0  0  0  0  0  0
    5.4367    2.8790   -0.7321 H   0  0  0  0  0  0  0  0  0  0  0  0
    4.3359    2.2109    2.0331 H   0  0  0  0  0  0  0  0  0  0  0  0
    3.8272    3.5615    0.9005 H   0  0  0  0  0  0  0  0  0  0  0  0
    5.7549    3.7426    3.0351 H   0  0  0  0  0  0  0  0  0  0  0  0
    5.4737    4.9125    1.7021 H   0  0  0  0  0  0  0  0  0  0  0  0
    7.6146    2.1518   -0.0075 H   0  0  0  0  0  0  0  0  0  0  0  0
    6.8881    1.4691    1.5446 H   0  0  0  0  0  0  0  0  0  0  0  0
    0.8137   -2.5323   -1.7407 H   0  0  0  0  0  0  0  0  0  0  0  0
    1.5945   -2.6858    1.2153 H   0  0  0  0  0  0  0  0  0  0  0  0
   -0.0728   -2.8815    0.4394 H   0  0  0  0  0  0  0  0  0  0  0  0
    1.1264   -5.0729    0.8747 H   0  0  0  0  0  0  0  0  0  0  0  0
    0.7152   -4.7129   -0.8902 H   0  0  0  0  0  0  0  0  0  0  0  0
    3.3658   -4.3353    0.5203 H   0  0  0  0  0  0  0  0  0  0  0  0
    3.0676   -5.2334   -1.0083 H   0  0  0  0  0  0  0  0  0  0  0  0
    3.7115   -2.5156   -0.8198 H   0  0  0  0  0  0  0  0  0  0  0  0
    3.0065   -3.2359   -2.2801 H   0  0  0  0  0  0  0  0  0  0  0  0
  1  2  2  0
  2  3  1  0
  3  4  1  0
  4  5  1  0
  5  6  1  0
  6  7  1  0
  7  8  1  0
  8  9  1  0
  9 10  1  0
 10 11  1  0
 11 12  1  6
 11 13  1  0
 11 14  1  0
  2 15  1  0
 15 16  2  0
 16 17  1  0
 17 18  2  0
 18 19  1  0
 19 20  1  0
 20 21  1  0
 21 22  1  0
 22 23  1  0
 23 24  1  0
 18 25  1  0
 25 26  2  0
 26 27  1  0
 27 28  1  0
 28 29  1  0
 29 30  1  0
 30 31  1  0
  9  4  1  0
 26 15  1  0
 31 27  1  0
 14  5  1  0
 24 20  1  0
 13  7  1  0
  3 32  1  0
  4 33  1  6
  5 34  1  0
  6 35  1  0
  6 36  1  0
  7 37  1  0
  8 38  1  0
  8 39  1  0
  9 40  1  0
 10 41  1  0
 10 42  1  0
 12 43  1  0
 13 44  1  0
 13 45  1  0
 14 46  1  0
 14 47  1  0
 16 48  1  0
 19 49  1  0
 20 50  1  6
 21 51  1  0
 21 52  1  0
 22 53  1  0
 22 54  1  0
 24 55  1  0
 24 56  1  0
 27 57  1  0
 28 58  1  0
 28 59  1  0
 29 60  1  0
 29 61  1  0
 30 62  1  0
 30 63  1  0
 31 64  1  0
 31 65  1  0
M  END
$$$$
