@<TRIPOS>MOLECULE
*****
 65 70 0 0 0
SMALL
GASTEIGER

@<TRIPOS>ATOM
      1 O          -0.6983   -0.8882   -2.3718 O.2     1  UNL1       -0.2701
      2 C          -0.3614   -0.2529   -1.3394 C.2     1  UNL1        0.2475
      3 N          -1.4619    0.1263   -0.4913 N.am    1  UNL1       -0.3079
      4 C          -2.8354   -0.2083   -0.8193 C.3     1  UNL1        0.0292
      5 C          -3.5384   -0.9556    0.2623 C.3     1  UNL1       -0.0195
      6 C          -3.5912   -0.1981    1.5539 C.3     1  UNL1       -0.0455
      7 C          -4.3016    1.1154    1.3685 C.3     1  UNL1       -0.0378
      8 C          -3.5666    1.8778    0.2882 C.3     1  UNL1       -0.0455
      9 C          -3.5606    1.1314   -1.0055 C.3     1  UNL1       -0.0195
     10 C          -4.9875    0.8900   -1.4471 C.3     1  UNL1       -0.0195
     11 C          -5.6832    0.1003   -0.3788 C.3     1  UNL1        0.0670
     12 O          -6.9898   -0.1616   -0.8040 O.3     1  UNL1       -0.3885
     13 C          -5.7078    0.8738    0.9182 C.3     1  UNL1       -0.0211
     14 C          -4.9614   -1.2012   -0.1871 C.3     1  UNL1       -0.0195
     15 C           1.0079    0.0934   -0.9884 C.ar    1  UNL1        0.0764
     16 C           1.4380    1.4017   -0.8353 C.ar    1  UNL1        0.0450
     17 N           2.7206    1.6931   -0.5059 N.ar    1  UNL1       -0.2222
     18 C           3.5968    0.6961   -0.3231 C.ar    1  UNL1        0.2157
     19 N           4.9473    0.9473    0.0226 N.pl3   1  UNL1       -0.3083
     20 C           5.4552    2.2952    0.1993 C.3     1  UNL1        0.0487
     21 C           4.6809    2.9910    1.3170 C.3     1  UNL1       -0.0088
     22 C           5.7409    3.8511    1.9315 C.3     1  UNL1        0.0495
     23 O           6.9502    3.5354    1.3671 O.3     1  UNL1       -0.3779
     24 C           6.8445    2.2749    0.7983 C.3     1  UNL1        0.0661
     25 N           3.1961   -0.5706   -0.4676 N.ar    1  UNL1       -0.2184
     26 C           1.9115   -0.9049   -0.7989 C.ar    1  UNL1        0.0615
     27 C           1.5324   -2.3067   -0.9430 C.3     1  UNL1        0.0023
     28 C           1.0265   -2.9480    0.3233 C.3     1  UNL1       -0.0448
     29 C           1.3097   -4.4262    0.0152 C.3     1  UNL1       -0.0524
     30 C           2.7476   -4.3524   -0.4092 C.3     1  UNL1       -0.0524
     31 C           2.8236   -3.0968   -1.2083 C.3     1  UNL1       -0.0448
     32 H          -1.2305    0.6531    0.3729 H       1  UNL1        0.1493
     33 H          -2.8763   -0.7957   -1.7605 H       1  UNL1        0.0504
     34 H          -3.0890   -1.9538    0.4448 H       1  UNL1        0.0320
     35 H          -4.2124   -0.7919    2.2759 H       1  UNL1        0.0271
     36 H          -2.6053   -0.0720    2.0427 H       1  UNL1        0.0271
     37 H          -4.2619    1.7011    2.3083 H       1  UNL1        0.0302
     38 H          -2.5565    2.1775    0.6214 H       1  UNL1        0.0271
     39 H          -4.1271    2.8405    0.1507 H       1  UNL1        0.0271
     40 H          -3.0541    1.7421   -1.7755 H       1  UNL1        0.0320
     41 H          -4.9685    0.2559   -2.3748 H       1  UNL1        0.0296
     42 H          -5.4524    1.8619   -1.6333 H       1  UNL1        0.0296
     43 H          -7.2034    0.3768   -1.6244 H       1  UNL1        0.2102
     44 H          -6.2468    1.8379    0.7410 H       1  UNL1        0.0296
     45 H          -6.2854    0.2700    1.6439 H       1  UNL1        0.0296
     46 H          -5.4780   -1.7619    0.6440 H       1  UNL1        0.0296
     47 H          -5.0240   -1.8391   -1.0763 H       1  UNL1        0.0296
     48 H           0.7046    2.1866   -0.9906 H       1  UNL1        0.0839
     49 H           5.6230    0.1664    0.1616 H       1  UNL1        0.1493
     50 H           5.4367    2.8790   -0.7321 H       1  UNL1        0.0522
     51 H           4.3359    2.2109    2.0331 H       1  UNL1        0.0306
     52 H           3.8272    3.5615    0.9005 H       1  UNL1        0.0306
     53 H           5.7549    3.7426    3.0351 H       1  UNL1        0.0560
     54 H           5.4737    4.9125    1.7021 H       1  UNL1        0.0560
     55 H           7.6146    2.1518   -0.0075 H       1  UNL1        0.0578
     56 H           6.8881    1.4691    1.5446 H       1  UNL1        0.0578
     57 H           0.8137   -2.5323   -1.7407 H       1  UNL1        0.0364
     58 H           1.5945   -2.6858    1.2153 H       1  UNL1        0.0272
     59 H          -0.0728   -2.8815    0.4394 H       1  UNL1        0.0272
     60 H           1.1264   -5.0729    0.8747 H       1  UNL1        0.0265
     61 H           0.7152   -4.7129   -0.8902 H       1  UNL1        0.0265
     62 H           3.3658   -4.3353    0.5203 H       1  UNL1        0.0265
     63 H           3.0676   -5.2334   -1.0083 H       1  UNL1        0.0265
     64 H           3.7115   -2.5156   -0.8198 H       1  UNL1        0.0272
     65 H           3.0065   -3.2359   -2.2801 H       1  UNL1        0.0272
@<TRIPOS>BOND
     1     1     2    2
     2     2     3   am
     3     3     4    1
     4     4     5    1
     5     5     6    1
     6     6     7    1
     7     7     8    1
     8     8     9    1
     9     9    10    1
    10    10    11    1
    11    11    12    1
    12    11    13    1
    13    11    14    1
    14     2    15    1
    15    15    16   ar
    16    16    17   ar
    17    17    18   ar
    18    18    19    1
    19    19    20    1
    20    20    21    1
    21    21    22    1
    22    22    23    1
    23    23    24    1
    24    18    25   ar
    25    25    26   ar
    26    26    27    1
    27    27    28    1
    28    28    29    1
    29    29    30    1
    30    30    31    1
    31     9     4    1
    32    26    15   ar
    33    31    27    1
    34    14     5    1
    35    24    20    1
    36    13     7    1
    37     3    32    1
    38     4    33    1
    39     5    34    1
    40     6    35    1
    41     6    36    1
    42     7    37    1
    43     8    38    1
    44     8    39    1
    45     9    40    1
    46    10    41    1
    47    10    42    1
    48    12    43    1
    49    13    44    1
    50    13    45    1
    51    14    46    1
    52    14    47    1
    53    16    48    1
    54    19    49    1
    55    20    50    1
    56    21    51    1
    57    21    52    1
    58    22    53    1
    59    22    54    1
    60    24    55    1
    61    24    56    1
    62    27    57    1
    63    28    58    1
    64    28    59    1
    65    29    60    1
    66    29    61    1
    67    30    62    1
    68    30    63    1
    69    31    64    1
    70    31    65    1
