@<TRIPOS>MOLECULE
*****
 64 67 0 0 0
SMALL
GASTEIGER

@<TRIPOS>ATOM
      1 C           8.7797   -3.4476   -0.7617 C.3     1  UNL1       -0.0209
      2 C           7.5612   -2.5975   -0.8195 C.ar    1  UNL1        0.0563
      3 C           7.5983   -1.2673   -0.4597 C.ar    1  UNL1        0.0493
      4 N           6.4892   -0.5105   -0.5167 N.ar    1  UNL1       -0.2517
      5 C           5.2843   -1.0070   -0.9269 C.ar    1  UNL1        0.0890
      6 C           4.1123   -0.1434   -0.9703 C.ar    1  UNL1        0.0018
      7 C           4.2188    1.1906   -0.5934 C.ar    1  UNL1       -0.0522
      8 C           3.1372    2.0590   -0.6144 C.ar    1  UNL1       -0.0562
      9 C           1.8995    1.6124   -1.0189 C.ar    1  UNL1       -0.0271
     10 C           0.7583    2.5405   -1.0398 C.3     1  UNL1        0.0515
     11 C           1.1287    3.7959   -0.2690 C.3     1  UNL1       -0.0421
     12 N          -0.4399    2.0320   -0.4766 N.am    1  UNL1       -0.2605
     13 C          -0.5498    1.5753    0.8927 C.3     1  UNL1        0.0224
     14 C          -1.1748    0.2086    0.8587 C.3     1  UNL1        0.0076
     15 C          -2.6598    0.3765    0.4767 C.3     1  UNL1        0.1440
     16 C          -3.3652    0.6300    1.7590 C.3     1  UNL1        0.0199
     17 C          -4.8234    0.8349    1.7500 C.3     1  UNL1        0.0645
     18 C          -5.6811   -0.2701    1.2521 C.3     1  UNL1       -0.0362
     19 C          -5.2311    1.1154    3.2097 C.3     1  UNL1       -0.0362
     20 O          -5.1979    2.0240    1.0752 O.3     1  UNL1       -0.3890
     21 C          -3.1134   -0.8026   -0.2828 C.ar    1  UNL1       -0.0040
     22 C          -3.9826   -0.6479   -1.3312 C.ar    1  UNL1       -0.0548
     23 C          -4.4160   -1.7427   -2.0526 C.ar    1  UNL1       -0.0614
     24 C          -3.9626   -2.9934   -1.7043 C.ar    1  UNL1       -0.0617
     25 C          -3.0852   -3.1842   -0.6519 C.ar    1  UNL1       -0.0614
     26 C          -2.6687   -2.0541    0.0547 C.ar    1  UNL1       -0.0548
     27 O          -2.7551    1.4754   -0.4079 O.3     1  UNL1       -0.4387
     28 C          -1.6822    1.9145   -1.1894 C.2     1  UNL1        0.4042
     29 O          -1.7610    2.1893   -2.4032 O.2     1  UNL1       -0.2262
     30 C           1.7950    0.2894   -1.3925 C.ar    1  UNL1       -0.0562
     31 C           2.8804   -0.5951   -1.3748 C.ar    1  UNL1       -0.0522
     32 C           5.2632   -2.3302   -1.2811 C.ar    1  UNL1        0.0538
     33 N           6.3861   -3.1071   -1.2262 N.ar    1  UNL1       -0.2565
     34 H           8.6580   -4.2827   -1.4567 H       1  UNL1        0.0293
     35 H           9.6839   -2.8723   -1.0820 H       1  UNL1        0.0293
     36 H           8.9870   -3.8302    0.2556 H       1  UNL1        0.0293
     37 H           8.5586   -0.8725   -0.1330 H       1  UNL1        0.0848
     38 H           5.2074    1.5184   -0.2779 H       1  UNL1        0.0624
     39 H           3.2923    3.1000   -0.3042 H       1  UNL1        0.0621
     40 H           0.6255    2.8478   -2.1203 H       1  UNL1        0.0549
     41 H           1.8400    4.4366   -0.7876 H       1  UNL1        0.0251
     42 H           1.5707    3.4972    0.7010 H       1  UNL1        0.0251
     43 H           0.2131    4.4337   -0.0979 H       1  UNL1        0.0251
     44 H          -1.2416    2.3162    1.3844 H       1  UNL1        0.0467
     45 H           0.4267    1.5846    1.4184 H       1  UNL1        0.0467
     46 H          -0.6673   -0.4218    0.1292 H       1  UNL1        0.0322
     47 H          -1.0896   -0.2080    1.8826 H       1  UNL1        0.0322
     48 H          -2.9081    1.5603    2.2035 H       1  UNL1        0.0335
     49 H          -3.1407   -0.1664    2.5307 H       1  UNL1        0.0335
     50 H          -6.5579   -0.4388    1.9620 H       1  UNL1        0.0257
     51 H          -6.2189    0.0248    0.3043 H       1  UNL1        0.0257
     52 H          -5.2226   -1.2529    1.1644 H       1  UNL1        0.0257
     53 H          -5.1483    0.1406    3.7319 H       1  UNL1        0.0257
     54 H          -4.5884    1.9017    3.6367 H       1  UNL1        0.0257
     55 H          -6.3188    1.3978    3.2187 H       1  UNL1        0.0257
     56 H          -6.1056    2.3117    1.3272 H       1  UNL1        0.2101
     57 H          -4.3493    0.3594   -1.6137 H       1  UNL1        0.0622
     58 H          -5.1060   -1.5803   -2.8781 H       1  UNL1        0.0618
     59 H          -4.3036   -3.8699   -2.2746 H       1  UNL1        0.0618
     60 H          -2.7314   -4.1839   -0.3842 H       1  UNL1        0.0618
     61 H          -1.9859   -2.1987    0.8743 H       1  UNL1        0.0622
     62 H           0.8126   -0.0412   -1.7092 H       1  UNL1        0.0621
     63 H           2.7196   -1.6058   -1.6789 H       1  UNL1        0.0624
     64 H           4.3461   -2.7684   -1.6093 H       1  UNL1        0.0851
@<TRIPOS>BOND
     1     1     2    1
     2     2     3   ar
     3     3     4   ar
     4     4     5   ar
     5     5     6    1
     6     6     7   ar
     7     7     8   ar
     8     8     9   ar
     9     9    10    1
    10    10    11    1
    11    10    12    1
    12    12    13    1
    13    13    14    1
    14    14    15    1
    15    15    16    1
    16    16    17    1
    17    17    18    1
    18    17    19    1
    19    17    20    1
    20    15    21    1
    21    21    22   ar
    22    22    23   ar
    23    23    24   ar
    24    24    25   ar
    25    25    26   ar
    26    15    27    1
    27    27    28    1
    28    28    29    2
    29     9    30   ar
    30    30    31   ar
    31     5    32   ar
    32    32    33   ar
    33    33     2   ar
    34    31     6   ar
    35    28    12   am
    36    26    21   ar
    37     1    34    1
    38     1    35    1
    39     1    36    1
    40     3    37    1
    41     7    38    1
    42     8    39    1
    43    10    40    1
    44    11    41    1
    45    11    42    1
    46    11    43    1
    47    13    44    1
    48    13    45    1
    49    14    46    1
    50    14    47    1
    51    16    48    1
    52    16    49    1
    53    18    50    1
    54    18    51    1
    55    18    52    1
    56    19    53    1
    57    19    54    1
    58    19    55    1
    59    20    56    1
    60    22    57    1
    61    23    58    1
    62    24    59    1
    63    25    60    1
    64    26    61    1
    65    30    62    1
    66    31    63    1
    67    32    64    1
