@<TRIPOS>MOLECULE
*****
 61 64 0 0 0
SMALL
GASTEIGER

@<TRIPOS>ATOM
      1 O           4.4034    1.2007    1.5495 O.2     1  UNL1       -0.2702
      2 C           5.1202    0.6626    0.6461 C.2     1  UNL1        0.2444
      3 N           4.5501   -0.4604   -0.0029 N.am    1  UNL1       -0.3050
      4 C           3.2268   -0.9472    0.3600 C.3     1  UNL1        0.0604
      5 C           3.2009   -2.4037    0.6747 C.3     1  UNL1       -0.0309
      6 C           2.9741   -3.1316   -0.6276 C.3     1  UNL1       -0.0479
      7 C           2.8446   -2.0560   -1.6798 C.3     1  UNL1       -0.0138
      8 C           2.3668   -0.8604   -0.8846 C.3     1  UNL1        0.1216
      9 O           0.9930   -1.0228   -0.5993 O.3     1  UNL1       -0.4560
     10 C           0.0437   -0.1041   -0.9992 C.2     1  UNL1        0.3397
     11 O           0.4076    0.9076   -1.6358 O.2     1  UNL1       -0.2449
     12 C          -1.3401   -0.3149   -0.6844 C.ar    1  UNL1        0.0659
     13 C          -1.7859   -1.4116    0.0129 C.ar    1  UNL1       -0.0053
     14 C          -3.1072   -1.6138    0.3148 C.ar    1  UNL1        0.1320
     15 O          -3.5301   -2.7510    1.0322 O.3     1  UNL1       -0.5059
     16 C          -4.0495   -0.6794   -0.0943 C.ar    1  UNL1        0.1050
     17 C          -5.4453   -0.9462    0.1255 C.2     1  UNL1        0.2044
     18 O          -5.7547   -2.2099    0.2613 O.2     1  UNL1       -0.2863
     19 C          -6.5687   -0.0691    0.2119 C.ar    1  UNL1        0.0778
     20 C          -7.7765   -0.4938   -0.3989 C.ar    1  UNL1        0.1285
     21 O          -7.7565   -1.7200   -1.0534 O.3     1  UNL1       -0.5060
     22 C          -8.9195    0.2576   -0.3553 C.ar    1  UNL1       -0.0194
     23 C          -8.8800    1.4653    0.3080 C.ar    1  UNL1       -0.0575
     24 C          -7.7428    1.9229    0.9186 C.ar    1  UNL1       -0.0468
     25 C          -6.5726    1.1235    0.8624 C.ar    1  UNL1        0.0731
     26 C          -5.4939    1.5599    1.7110 C.2     1  UNL1        0.3376
     27 O          -4.5264    0.8495    2.0090 O.2     1  UNL1       -0.2451
     28 O          -5.5173    2.8569    2.2403 O.3     1  UNL1       -0.4771
     29 C          -3.6304    0.4444   -0.8052 C.ar    1  UNL1        0.1320
     30 O          -4.5461    1.4222   -1.2505 O.3     1  UNL1       -0.5059
     31 C          -2.2917    0.5872   -1.0744 C.ar    1  UNL1       -0.0053
     32 C           6.4256    1.1486    0.2932 C.ar    1  UNL1        0.0369
     33 C           7.1638    0.5441   -0.6814 C.ar    1  UNL1       -0.0462
     34 C           8.4407    1.0085   -1.0363 C.ar    1  UNL1       -0.0195
     35 C           8.9308    2.0992   -0.3682 C.ar    1  UNL1        0.1169
     36 O          10.1949    2.5979   -0.6852 O.3     1  UNL1       -0.5068
     37 C           8.2040    2.7168    0.6111 C.ar    1  UNL1       -0.0195
     38 C           6.9394    2.2403    0.9480 C.ar    1  UNL1       -0.0462
     39 H           5.0468   -0.9799   -0.7582 H       1  UNL1        0.1494
     40 H           2.7839   -0.3249    1.1738 H       1  UNL1        0.0535
     41 H           2.2922   -2.5980    1.3086 H       1  UNL1        0.0284
     42 H           4.0576   -2.7720    1.2455 H       1  UNL1        0.0284
     43 H           3.8454   -3.7945   -0.8267 H       1  UNL1        0.0267
     44 H           2.0580   -3.7364   -0.6417 H       1  UNL1        0.0267
     45 H           3.8406   -1.8973   -2.1245 H       1  UNL1        0.0301
     46 H           2.1021   -2.3586   -2.4489 H       1  UNL1        0.0301
     47 H           2.5786    0.0630   -1.4489 H       1  UNL1        0.0753
     48 H          -1.0441   -2.1557    0.3399 H       1  UNL1        0.0662
     49 H          -3.1031   -3.6421    0.7779 H       1  UNL1        0.2922
     50 H          -8.6026   -2.0913   -1.4420 H       1  UNL1        0.2922
     51 H          -9.8429   -0.0587   -0.8177 H       1  UNL1        0.0654
     52 H          -9.7877    2.0602    0.3380 H       1  UNL1        0.0619
     53 H          -7.7278    2.8794    1.4383 H       1  UNL1        0.0626
     54 H          -4.6496    3.2502    2.6252 H       1  UNL1        0.2954
     55 H          -4.2084    2.3844   -1.1507 H       1  UNL1        0.2922
     56 H          -1.9558    1.4715   -1.6334 H       1  UNL1        0.0662
     57 H           6.8500   -0.3168   -1.2525 H       1  UNL1        0.0626
     58 H           9.0264    0.5400   -1.7998 H       1  UNL1        0.0654
     59 H          10.2301    3.3000   -1.4005 H       1  UNL1        0.2921
     60 H           8.6002    3.5809    1.1357 H       1  UNL1        0.0654
     61 H           6.4150    2.7769    1.7348 H       1  UNL1        0.0626
@<TRIPOS>BOND
     1     1     2    2
     2     2     3   am
     3     3     4    1
     4     4     5    1
     5     5     6    1
     6     6     7    1
     7     7     8    1
     8     8     9    1
     9     9    10    1
    10    10    11    2
    11    10    12    1
    12    12    13   ar
    13    13    14   ar
    14    14    15    1
    15    14    16   ar
    16    16    17    1
    17    17    18    2
    18    17    19    1
    19    19    20   ar
    20    20    21    1
    21    20    22   ar
    22    22    23   ar
    23    23    24   ar
    24    24    25   ar
    25    25    26    1
    26    26    27    2
    27    26    28    1
    28    16    29   ar
    29    29    30    1
    30    29    31   ar
    31     2    32    1
    32    32    33   ar
    33    33    34   ar
    34    34    35   ar
    35    35    36    1
    36    35    37   ar
    37    37    38   ar
    38     8     4    1
    39    31    12   ar
    40    38    32   ar
    41    25    19   ar
    42     3    39    1
    43     4    40    1
    44     5    41    1
    45     5    42    1
    46     6    43    1
    47     6    44    1
    48     7    45    1
    49     7    46    1
    50     8    47    1
    51    13    48    1
    52    15    49    1
    53    21    50    1
    54    22    51    1
    55    23    52    1
    56    24    53    1
    57    28    54    1
    58    30    55    1
    59    31    56    1
    60    33    57    1
    61    34    58    1
    62    36    59    1
    63    37    60    1
    64    38    61    1
