
     RDKit          3D

 61 64  0  0  0  0  0  0  0  0999 V2000
    4.4034    1.2007    1.5495 O   0  0  0  0  0  0  0  0  0  0  0  0
    5.1202    0.6626    0.6461 C   0  0  0  0  0  0  0  0  0  0  0  0
    4.5501   -0.4604   -0.0029 N   0  0  0  0  0  0  0  0  0  0  0  0
    3.2268   -0.9472    0.3600 C   0  0  2  0  0  0  0  0  0  0  0  0
    3.2009   -2.4037    0.6747 C   0  0  0  0  0  0  0  0  0  0  0  0
    2.9741   -3.1316   -0.6276 C   0  0  0  0  0  0  0  0  0  0  0  0
    2.8446   -2.0560   -1.6798 C   0  0  0  0  0  0  0  0  0  0  0  0
    2.3668   -0.8604   -0.8846 C   0  0  1  0  0  0  0  0  0  0  0  0
    0.9930   -1.0228   -0.5993 O   0  0  0  0  0  0  0  0  0  0  0  0
    0.0437   -0.1041   -0.9992 C   0  0  0  0  0  0  0  0  0  0  0  0
    0.4076    0.9076   -1.6358 O   0  0  0  0  0  0  0  0  0  0  0  0
   -1.3401   -0.3149   -0.6844 C   0  0  0  0  0  0  0  0  0  0  0  0
   -1.7859   -1.4116    0.0129 C   0  0  0  0  0  0  0  0  0  0  0  0
   -3.1072   -1.6138    0.3148 C   0  0  0  0  0  0  0  0  0  0  0  0
   -3.5301   -2.7510    1.0322 O   0  0  0  0  0  0  0  0  0  0  0  0
   -4.0495   -0.6794   -0.0943 C   0  0  0  0  0  0  0  0  0  0  0  0
   -5.4453   -0.9462    0.1255 C   0  0  0  0  0  0  0  0  0  0  0  0
   -5.7547   -2.2099    0.2613 O   0  0  0  0  0  0  0  0  0  0  0  0
   -6.5687   -0.0691    0.2119 C   0  0  0  0  0  0  0  0  0  0  0  0
   -7.7765   -0.4938   -0.3989 C   0  0  0  0  0  0  0  0  0  0  0  0
   -7.7565   -1.7200   -1.0534 O   0  0  0  0  0  0  0  0  0  0  0  0
   -8.9195    0.2576   -0.3553 C   0  0  0  0  0  0  0  0  0  0  0  0
   -8.8800    1.4653    0.3080 C   0  0  0  0  0  0  0  0  0  0  0  0
   -7.7428    1.9229    0.9186 C   0  0  0  0  0  0  0  0  0  0  0  0
   -6.5726    1.1235    0.8624 C   0  0  0  0  0  0  0  0  0  0  0  0
   -5.4939    1.5599    1.7110 C   0  0  0  0  0  0  0  0  0  0  0  0
   -4.5264    0.8495    2.0090 O   0  0  0  0  0  0  0  0  0  0  0  0
   -5.5173    2.8569    2.2403 O   0  0  0  0  0  0  0  0  0  0  0  0
   -3.6304    0.4444   -0.8052 C   0  0  0  0  0  0  0  0  0  0  0  0
   -4.5461    1.4222   -1.2505 O   0  0  0  0  0  0  0  0  0  0  0  0
   -2.2917    0.5872   -1.0744 C   0  0  0  0  0  0  0  0  0  0  0  0
    6.4256    1.1486    0.2932 C   0  0  0  0  0  0  0  0  0  0  0  0
    7.1638    0.5441   -0.6814 C   0  0  0  0  0  0  0  0  0  0  0  0
    8.4407    1.0085   -1.0363 C   0  0  0  0  0  0  0  0  0  0  0  0
    8.9308    2.0992   -0.3682 C   0  0  0  0  0  0  0  0  0  0  0  0
   10.1949    2.5979   -0.6852 O   0  0  0  0  0  0  0  0  0  0  0  0
    8.2040    2.7168    0.6111 C   0  0  0  0  0  0  0  0  0  0  0  0
    6.9394    2.2403    0.9480 C   0  0  0  0  0  0  0  0  0  0  0  0
    5.0468   -0.9799   -0.7582 H   0  0  0  0  0  0  0  0  0  0  0  0
    2.7839   -0.3249    1.1738 H   0  0  0  0  0  0  0  0  0  0  0  0
    2.2922   -2.5980    1.3086 H   0  0  0  0  0  0  0  0  0  0  0  0
    4.0576   -2.7720    1.2455 H   0  0  0  0  0  0  0  0  0  0  0  0
    3.8454   -3.7945   -0.8267 H   0  0  0  0  0  0  0  0  0  0  0  0
    2.0580   -3.7364   -0.6417 H   0  0  0  0  0  0  0  0  0  0  0  0
    3.8406   -1.8973   -2.1245 H   0  0  0  0  0  0  0  0  0  0  0  0
    2.1021   -2.3586   -2.4489 H   0  0  0  0  0  0  0  0  0  0  0  0
    2.5786    0.0630   -1.4489 H   0  0  0  0  0  0  0  0  0  0  0  0
   -1.0441   -2.1557    0.3399 H   0  0  0  0  0  0  0  0  0  0  0  0
   -3.1031   -3.6421    0.7779 H   0  0  0  0  0  0  0  0  0  0  0  0
   -8.6026   -2.0913   -1.4420 H   0  0  0  0  0  0  0  0  0  0  0  0
   -9.8429   -0.0587   -0.8177 H   0  0  0  0  0  0  0  0  0  0  0  0
   -9.7877    2.0602    0.3380 H   0  0  0  0  0  0  0  0  0  0  0  0
   -7.7278    2.8794    1.4383 H   0  0  0  0  0  0  0  0  0  0  0  0
   -4.6496    3.2502    2.6252 H   0  0  0  0  0  0  0  0  0  0  0  0
   -4.2084    2.3844   -1.1507 H   0  0  0  0  0  0  0  0  0  0  0  0
   -1.9558    1.4715   -1.6334 H   0  0  0  0  0  0  0  0  0  0  0  0
    6.8500   -0.3168   -1.2525 H   0  0  0  0  0  0  0  0  0  0  0  0
    9.0264    0.5400   -1.7998 H   0  0  0  0  0  0  0  0  0  0  0  0
   10.2301    3.3000   -1.4005 H   0  0  0  0  0  0  0  0  0  0  0  0
    8.6002    3.5809    1.1357 H   0  0  0  0  0  0  0  0  0  0  0  0
    6.4150    2.7769    1.7348 H   0  0  0  0  0  0  0  0  0  0  0  0
  1  2  2  0
  2  3  1  0
  3  4  1  0
  4  5  1  0
  5  6  1  0
  6  7  1  0
  7  8  1  0
  8  9  1  0
  9 10  1  0
 10 11  2  0
 10 12  1  0
 12 13  2  0
 13 14  1  0
 14 15  1  0
 14 16  2  0
 16 17  1  0
 17 18  2  0
 17 19  1  0
 19 20  2  0
 20 21  1  0
 20 22  1  0
 22 23  2  0
 23 24  1  0
 24 25  2  0
 25 26  1  0
 26 27  2  0
 26 28  1  0
 16 29  1  0
 29 30  1  0
 29 31  2  0
  2 32  1  0
 32 33  2  0
 33 34  1  0
 34 35  2  0
 35 36  1  0
 35 37  1  0
 37 38  2  0
  8  4  1  0
 31 12  1  0
 38 32  1  0
 25 19  1  0
  3 39  1  0
  4 40  1  1
  5 41  1  0
  5 42  1  0
  6 43  1  0
  6 44  1  0
  7 45  1  0
  7 46  1  0
  8 47  1  6
 13 48  1  0
 15 49  1  0
 21 50  1  0
 22 51  1  0
 23 52  1  0
 24 53  1  0
 28 54  1  0
 30 55  1  0
 31 56  1  0
 33 57  1  0
 34 58  1  0
 36 59  1  0
 37 60  1  0
 38 61  1  0
M  END
$$$$
