@<TRIPOS>MOLECULE
*****
 30 30 0 0 0
SMALL
GASTEIGER

@<TRIPOS>ATOM
      1 N1          2.0471    1.1164   -1.6153 N.3     1  <1>        -0.3165
      2 C1          2.8789    0.6573   -0.5183 C.3     1  <1>         0.1290
      3 C2          2.0197    0.2901    0.6929 C.3     1  <1>         0.1020
      4 O1          1.1307   -0.7131    0.3838 O.3     1  <1>        -0.2361
      5 S1          0.1639   -1.1517    1.6828 S.O2    1  <1>         0.0863
      6 O2         -0.3484   -2.5548    1.5619 O.2     1  <1>        -0.1469
      7 O3          1.0126   -1.0795    2.9216 O.2     1  <1>        -0.1469
      8 C3         -1.1738   -0.0054    1.8913 C.3     1  <1>         0.1178
      9 C4         -2.0496    0.0655    0.6980 C.ar    1  <1>        -0.0241
     10 C5         -3.1427   -0.7784    0.5862 C.ar    1  <1>        -0.0569
     11 C6         -4.0059   -0.7754   -0.4911 C.ar    1  <1>        -0.0615
     12 C7         -3.7743    0.1210   -1.5276 C.ar    1  <1>        -0.0617
     13 C8         -2.6817    0.9747   -1.4309 C.ar    1  <1>        -0.0615
     14 C9         -1.8254    0.9569   -0.3402 C.ar    1  <1>        -0.0569
     15 C10         3.7056   -0.4784   -0.9762 C.2     1  <1>         0.3241
     16 O4          4.6020   -1.1370   -0.1681 O.3     1  <1>        -0.4795
     17 O5          3.6732   -0.9519   -2.1375 O.2     1  <1>        -0.2492
     18 H1          2.5953    1.7259   -2.2639 H       1  <1>         0.1190
     19 H2          1.2518    1.7052   -1.2295 H       1  <1>         0.1190
     20 H3          3.5630    1.4820   -0.2410 H       1  <1>         0.0598
     21 H4          2.6721    0.0996    1.5501 H       1  <1>         0.0605
     22 H5          1.4213    1.2117    0.9082 H       1  <1>         0.0605
     23 H6         -1.7269   -0.2477    2.8205 H       1  <1>         0.0575
     24 H7         -0.6996    1.0023    2.0523 H       1  <1>         0.0575
     25 H8         -3.3235   -1.4708    1.3843 H       1  <1>         0.0621
     26 H9         -4.8547   -1.4336   -0.5737 H       1  <1>         0.0618
     27 H10        -4.4007    0.1945   -2.4150 H       1  <1>         0.0618
     28 H11        -2.4402    1.7056   -2.2106 H       1  <1>         0.0618
     29 H12        -0.9699    1.6214   -0.2586 H       1  <1>         0.0621
     30 H13         4.6802   -2.1523   -0.1249 H       1  <1>         0.2951
@<TRIPOS>BOND
     1     1     2    1
     2     2     3    1
     3     3     4    1
     4     4     5    1
     5     5     6    2
     6     5     7    2
     7     5     8    1
     8     8     9    1
     9     9    10   ar
    10    10    11   ar
    11    11    12   ar
    12    12    13   ar
    13    13    14   ar
    14     2    15    1
    15    15    16    1
    16    15    17    2
    17    14     9   ar
    18     1    18    1
    19     1    19    1
    20     2    20    1
    21     3    21    1
    22     3    22    1
    23     8    23    1
    24     8    24    1
    25    10    25    1
    26    11    26    1
    27    12    27    1
    28    13    28    1
    29    14    29    1
    30    16    30    1
