
     RDKit          3D

 30 30  0  0  0  0  0  0  0  0999 V2000
    2.0471    1.1164   -1.6153 N   0  0  0  0  0  0  0  0  0  0  0  0
    2.8789    0.6573   -0.5183 C   0  0  1  0  0  0  0  0  0  0  0  0
    2.0197    0.2901    0.6929 C   0  0  0  0  0  0  0  0  0  0  0  0
    1.1307   -0.7131    0.3838 O   0  0  0  0  0  0  0  0  0  0  0  0
    0.1639   -1.1517    1.6828 S   0  0  0  0  0  0  0  0  0  0  0  0
   -0.3484   -2.5548    1.5619 O   0  0  0  0  0  0  0  0  0  0  0  0
    1.0126   -1.0795    2.9216 O   0  0  0  0  0  0  0  0  0  0  0  0
   -1.1738   -0.0054    1.8913 C   0  0  0  0  0  0  0  0  0  0  0  0
   -2.0496    0.0655    0.6980 C   0  0  0  0  0  0  0  0  0  0  0  0
   -3.1427   -0.7784    0.5862 C   0  0  0  0  0  0  0  0  0  0  0  0
   -4.0059   -0.7754   -0.4911 C   0  0  0  0  0  0  0  0  0  0  0  0
   -3.7743    0.1210   -1.5276 C   0  0  0  0  0  0  0  0  0  0  0  0
   -2.6817    0.9747   -1.4309 C   0  0  0  0  0  0  0  0  0  0  0  0
   -1.8254    0.9569   -0.3402 C   0  0  0  0  0  0  0  0  0  0  0  0
    3.7056   -0.4784   -0.9762 C   0  0  0  0  0  0  0  0  0  0  0  0
    4.6020   -1.1370   -0.1681 O   0  0  0  0  0  0  0  0  0  0  0  0
    3.6732   -0.9519   -2.1375 O   0  0  0  0  0  0  0  0  0  0  0  0
    2.5953    1.7259   -2.2639 H   0  0  0  0  0  0  0  0  0  0  0  0
    1.2518    1.7052   -1.2295 H   0  0  0  0  0  0  0  0  0  0  0  0
    3.5630    1.4820   -0.2410 H   0  0  0  0  0  0  0  0  0  0  0  0
    2.6721    0.0996    1.5501 H   0  0  0  0  0  0  0  0  0  0  0  0
    1.4213    1.2117    0.9082 H   0  0  0  0  0  0  0  0  0  0  0  0
   -1.7269   -0.2477    2.8205 H   0  0  0  0  0  0  0  0  0  0  0  0
   -0.6996    1.0023    2.0523 H   0  0  0  0  0  0  0  0  0  0  0  0
   -3.3235   -1.4708    1.3843 H   0  0  0  0  0  0  0  0  0  0  0  0
   -4.8547   -1.4336   -0.5737 H   0  0  0  0  0  0  0  0  0  0  0  0
   -4.4007    0.1945   -2.4150 H   0  0  0  0  0  0  0  0  0  0  0  0
   -2.4402    1.7056   -2.2106 H   0  0  0  0  0  0  0  0  0  0  0  0
   -0.9699    1.6214   -0.2586 H   0  0  0  0  0  0  0  0  0  0  0  0
    4.6802   -2.1523   -0.1249 H   0  0  0  0  0  0  0  0  0  0  0  0
  1  2  1  0
  2  3  1  0
  3  4  1  0
  4  5  1  0
  5  6  2  0
  5  7  2  0
  5  8  1  0
  8  9  1  0
  9 10  2  0
 10 11  1  0
 11 12  2  0
 12 13  1  0
 13 14  2  0
  2 15  1  0
 15 16  1  0
 15 17  2  0
 14  9  1  0
  1 18  1  0
  1 19  1  0
  2 20  1  1
  3 21  1  0
  3 22  1  0
  8 23  1  0
  8 24  1  0
 10 25  1  0
 11 26  1  0
 12 27  1  0
 13 28  1  0
 14 29  1  0
 16 30  1  0
M  END
$$$$
