
     RDKit          3D

 54 58  0  0  0  0  0  0  0  0999 V2000
    9.2623    0.6397    0.9695 Cl  0  0  0  0  0  0  0  0  0  0  0  0
    7.5860    0.3305    0.5135 C   0  0  0  0  0  0  0  0  0  0  0  0
    7.3548   -0.6204   -0.4532 C   0  0  0  0  0  0  0  0  0  0  0  0
    6.0584   -0.8843   -0.8331 C   0  0  0  0  0  0  0  0  0  0  0  0
    4.9906   -0.2212   -0.2702 C   0  0  0  0  0  0  0  0  0  0  0  0
    5.2194    0.7362    0.7024 C   0  0  0  0  0  0  0  0  0  0  0  0
    6.5191    1.0010    1.0835 C   0  0  0  0  0  0  0  0  0  0  0  0
    3.7998   -0.6333   -0.7908 N   0  0  0  0  0  0  0  0  0  0  0  0
    2.4981   -0.1367   -0.4102 C   0  0  0  0  0  0  0  0  0  0  0  0
    1.5470   -1.2447   -0.2010 C   0  0  0  0  0  0  0  0  0  0  0  0
    0.0711   -0.9142   -0.3296 C   0  0  0  0  0  0  0  0  0  0  0  0
   -0.1771    0.4427   -0.5206 N   0  0  0  0  0  0  0  0  0  0  0  0
   -0.7474    1.2936    0.4002 C   0  0  0  0  0  0  0  0  0  0  0  0
   -2.2169    1.1457    0.6147 C   0  0  0  0  0  0  0  0  0  0  0  0
   -2.5899   -0.2278    1.0626 C   0  0  0  0  0  0  0  0  0  0  0  0
   -4.0538   -0.1959    1.3288 N   0  0  0  0  0  0  0  0  0  0  0  0
   -4.5042    0.1228    2.5680 C   0  0  0  0  0  0  0  0  0  0  0  0
   -3.7930    0.4278    3.5852 O   0  0  0  0  0  0  0  0  0  0  0  0
   -5.8441    0.0803    2.6115 N   0  0  0  0  0  0  0  0  0  0  0  0
   -6.2647   -0.2718    1.3787 C   0  0  0  0  0  0  0  0  0  0  0  0
   -7.5084   -0.4814    0.7941 C   0  0  0  0  0  0  0  0  0  0  0  0
   -7.5337   -0.8429   -0.5349 C   0  0  0  0  0  0  0  0  0  0  0  0
   -6.4261   -1.0112   -1.3237 C   0  0  0  0  0  0  0  0  0  0  0  0
   -5.1832   -0.8032   -0.7440 C   0  0  0  0  0  0  0  0  0  0  0  0
   -5.1306   -0.4418    0.5795 C   0  0  0  0  0  0  0  0  0  0  0  0
    0.5872    0.9673   -1.5915 C   0  0  0  0  0  0  0  0  0  0  0  0
    2.0721    0.9953   -1.2916 C   0  0  0  0  0  0  0  0  0  0  0  0
    4.1858   -1.5615   -1.6813 C   0  0  0  0  0  0  0  0  0  0  0  0
    3.4165   -2.2245   -2.4168 O   0  0  0  0  0  0  0  0  0  0  0  0
    5.5118   -1.7365   -1.7334 N   0  0  0  0  0  0  0  0  0  0  0  0
    8.1722   -1.1542   -0.9116 H   0  0  0  0  0  0  0  0  0  0  0  0
    4.4151    1.2774    1.1663 H   0  0  0  0  0  0  0  0  0  0  0  0
    6.7167    1.7393    1.8379 H   0  0  0  0  0  0  0  0  0  0  0  0
    2.6339    0.3434    0.6127 H   0  0  0  0  0  0  0  0  0  0  0  0
    1.6711   -1.6873    0.8365 H   0  0  0  0  0  0  0  0  0  0  0  0
    1.7372   -2.1156   -0.8594 H   0  0  0  0  0  0  0  0  0  0  0  0
   -0.4012   -1.3910    0.5662 H   0  0  0  0  0  0  0  0  0  0  0  0
   -0.3404   -1.4768   -1.1989 H   0  0  0  0  0  0  0  0  0  0  0  0
   -0.5785    2.3875    0.1201 H   0  0  0  0  0  0  0  0  0  0  0  0
   -0.2611    1.2146    1.4335 H   0  0  0  0  0  0  0  0  0  0  0  0
   -2.6817    1.3633   -0.4013 H   0  0  0  0  0  0  0  0  0  0  0  0
   -2.6278    1.9373    1.2969 H   0  0  0  0  0  0  0  0  0  0  0  0
   -2.0652   -0.5577    1.9621 H   0  0  0  0  0  0  0  0  0  0  0  0
   -2.5360   -0.9542    0.2029 H   0  0  0  0  0  0  0  0  0  0  0  0
   -6.4752    0.2796    3.4326 H   0  0  0  0  0  0  0  0  0  0  0  0
   -8.3859   -0.3621    1.3779 H   0  0  0  0  0  0  0  0  0  0  0  0
   -8.4927   -1.0127   -1.0076 H   0  0  0  0  0  0  0  0  0  0  0  0
   -6.4909   -1.2942   -2.3725 H   0  0  0  0  0  0  0  0  0  0  0  0
   -4.2847   -0.9226   -1.3317 H   0  0  0  0  0  0  0  0  0  0  0  0
    0.4028    0.3232   -2.5017 H   0  0  0  0  0  0  0  0  0  0  0  0
    0.2101    1.9720   -1.8610 H   0  0  0  0  0  0  0  0  0  0  0  0
    2.5898    0.9264   -2.2641 H   0  0  0  0  0  0  0  0  0  0  0  0
    2.2995    1.9951   -0.8724 H   0  0  0  0  0  0  0  0  0  0  0  0
    6.0661   -2.3870   -2.3295 H   0  0  0  0  0  0  0  0  0  0  0  0
  1  2  1  0
  2  3  2  0
  3  4  1  0
  4  5  2  0
  5  6  1  0
  6  7  2  0
  5  8  1  0
  8  9  1  0
  9 10  1  0
 10 11  1  0
 11 12  1  0
 12 13  1  0
 13 14  1  0
 14 15  1  0
 15 16  1  0
 16 17  1  0
 17 18  2  0
 17 19  1  0
 19 20  1  0
 20 21  2  0
 21 22  1  0
 22 23  2  0
 23 24  1  0
 24 25  2  0
 12 26  1  0
 26 27  1  0
  8 28  1  0
 28 29  2  0
 28 30  1  0
  7  2  1  0
 27  9  1  0
 30  4  1  0
 25 16  1  0
 25 20  1  0
  3 31  1  0
  6 32  1  0
  7 33  1  0
  9 34  1  0
 10 35  1  0
 10 36  1  0
 11 37  1  0
 11 38  1  0
 13 39  1  0
 13 40  1  0
 14 41  1  0
 14 42  1  0
 15 43  1  0
 15 44  1  0
 19 45  1  0
 21 46  1  0
 22 47  1  0
 23 48  1  0
 24 49  1  0
 26 50  1  0
 26 51  1  0
 27 52  1  0
 27 53  1  0
 30 54  1  0
M  END
$$$$
