@<TRIPOS>MOLECULE
*****
 14 14 0 0 0
SMALL
GASTEIGER

@<TRIPOS>ATOM
      1 N          -1.6782   -0.3482   -0.8747 N.pl3   1  UNL1       -0.2506
      2 C          -0.9386   -0.0161    0.2948 C.2     1  UNL1        0.3647
      3 N          -1.7572    0.0813    1.2902 N.2     1  UNL1       -0.2914
      4 N           0.4636    0.1218    0.0903 N.ar    1  UNL1       -0.0974
      5 C           1.3156    1.1642    0.0595 C.ar    1  UNL1        0.1845
      6 N           2.5412    0.6612   -0.1801 N.ar    1  UNL1       -0.2061
      7 C           2.4587   -0.6768   -0.2977 C.ar    1  UNL1        0.1545
      8 N           1.1474   -1.0091   -0.1263 N.ar    1  UNL1       -0.0914
      9 H          -2.6888   -0.3142   -1.1066 H       1  UNL1        0.2413
     10 H          -1.3255   -0.7146   -1.7860 H       1  UNL1        0.2413
     11 H          -2.6700   -0.1291    0.8294 H       1  UNL1        0.2544
     12 H          -1.1105    0.3250    2.0823 H       1  UNL1        0.2544
     13 H           0.9304    2.1695    0.2174 H       1  UNL1        0.1236
     14 H           3.3119   -1.3149   -0.4926 H       1  UNL1        0.1080
@<TRIPOS>UNITY_ATOM_ATTR
3 1
charge 1
@<TRIPOS>BOND
     1     1     2    1
     2     2     3    2
     3     2     4    1
     4     4     5   ar
     5     5     6   ar
     6     6     7   ar
     7     7     8   ar
     8     8     4   ar
     9     1     9    1
    10     1    10    1
    11     3    11    1
    12     3    12    1
    13     5    13    1
    14     7    14    1
