
     RDKit          3D

 14 14  0  0  0  0  0  0  0  0999 V2000
   -1.6782   -0.3482   -0.8747 N   0  0  0  0  0  0  0  0  0  0  0  0
   -0.9386   -0.0161    0.2948 C   0  0  0  0  0  0  0  0  0  0  0  0
   -1.7572    0.0813    1.2902 N   0  0  0  0  0  4  0  0  0  0  0  0
    0.4636    0.1218    0.0903 N   0  0  0  0  0  0  0  0  0  0  0  0
    1.3156    1.1642    0.0595 C   0  0  0  0  0  0  0  0  0  0  0  0
    2.5412    0.6612   -0.1801 N   0  0  0  0  0  0  0  0  0  0  0  0
    2.4587   -0.6768   -0.2977 C   0  0  0  0  0  0  0  0  0  0  0  0
    1.1474   -1.0091   -0.1263 N   0  0  0  0  0  0  0  0  0  0  0  0
   -2.6888   -0.3142   -1.1066 H   0  0  0  0  0  0  0  0  0  0  0  0
   -1.3255   -0.7146   -1.7860 H   0  0  0  0  0  0  0  0  0  0  0  0
   -2.6700   -0.1291    0.8294 H   0  0  0  0  0  0  0  0  0  0  0  0
   -1.1105    0.3250    2.0823 H   0  0  0  0  0  0  0  0  0  0  0  0
    0.9304    2.1695    0.2174 H   0  0  0  0  0  0  0  0  0  0  0  0
    3.3119   -1.3149   -0.4926 H   0  0  0  0  0  0  0  0  0  0  0  0
  1  2  1  0
  2  3  2  0
  2  4  1  0
  4  5  1  0
  5  6  2  0
  6  7  1  0
  7  8  2  0
  8  4  1  0
  1  9  1  0
  1 10  1  0
  3 11  1  0
  3 12  1  0
  5 13  1  0
  7 14  1  0
M  CHG  1   3   1
M  END
$$$$
