
     RDKit          3D

 48 51  0  0  0  0  0  0  0  0999 V2000
   -1.1350   -0.9708    0.3200 C   0  0  2  0  0  0  0  0  0  0  0  0
   -2.6675   -1.0329    0.3585 C   0  0  0  0  0  0  0  0  0  0  0  0
   -3.1850    0.1394   -0.2314 O   0  0  0  0  0  0  0  0  0  0  0  0
   -4.5284    0.3970   -0.3553 C   0  0  0  0  0  0  0  0  0  0  0  0
   -5.5565   -0.4420    0.0734 C   0  0  0  0  0  0  0  0  0  0  0  0
   -6.8880   -0.1405   -0.0728 C   0  0  0  0  0  0  0  0  0  0  0  0
   -7.2374    1.0547   -0.6750 C   0  0  0  0  0  0  0  0  0  0  0  0
   -6.2309    1.9098   -1.1117 C   0  0  0  0  0  0  0  0  0  0  0  0
   -4.8853    1.5966   -0.9597 C   0  0  0  0  0  0  0  0  0  0  0  0
   -0.7699    0.3244    1.0123 C   0  0  0  0  0  0  0  0  0  0  0  0
   -0.6552    1.2960   -0.1275 C   0  0  0  0  0  0  0  0  0  0  0  0
   -0.5440    0.4921   -1.4049 C   0  0  0  0  0  0  0  0  0  0  0  0
   -0.6786   -0.8768   -1.0293 N   0  0  0  0  0  0  0  0  0  0  0  0
    0.7058   -1.8264   -1.3889 S   0  0  0  0  0  0  0  0  0  0  0  0
    0.9535   -1.6965   -2.8754 O   0  0  0  0  0  0  0  0  0  0  0  0
    0.4260   -3.2710   -1.1199 O   0  0  0  0  0  0  0  0  0  0  0  0
    2.1444   -1.3236   -0.5738 C   0  0  0  0  0  0  0  0  0  0  0  0
    2.9802   -0.3816   -1.1838 C   0  0  0  0  0  0  0  0  0  0  0  0
    4.1603    0.1067   -0.6417 C   0  0  0  0  0  0  0  0  0  0  0  0
    4.5536   -0.3623    0.5923 C   0  0  0  0  0  0  0  0  0  0  0  0
    3.7606   -1.2925    1.2320 C   0  0  0  0  0  0  0  0  0  0  0  0
    2.5874   -1.7670    0.6748 C   0  0  0  0  0  0  0  0  0  0  0  0
    5.7735    0.2959    0.8970 N   0  0  0  0  0  0  0  0  0  0  0  0
    6.5674    0.1215    2.1004 C   0  0  0  0  0  0  0  0  0  0  0  0
    6.1639    1.1899   -0.1450 C   0  0  0  0  0  0  0  0  0  0  0  0
    7.1693    1.9266   -0.2178 O   0  0  0  0  0  0  0  0  0  0  0  0
    5.1151    1.0706   -1.1516 C   0  0  0  0  0  0  0  0  0  0  0  0
    5.0954    1.7065   -2.2346 O   0  0  0  0  0  0  0  0  0  0  0  0
   -0.7899   -1.8291    0.8958 H   0  0  0  0  0  0  0  0  0  0  0  0
   -2.9982   -1.0369    1.4252 H   0  0  0  0  0  0  0  0  0  0  0  0
   -3.0361   -1.9378   -0.1304 H   0  0  0  0  0  0  0  0  0  0  0  0
   -5.2745   -1.3646    0.5382 H   0  0  0  0  0  0  0  0  0  0  0  0
   -7.6708   -0.7825    0.2552 H   0  0  0  0  0  0  0  0  0  0  0  0
   -8.2583    1.3885   -0.8389 H   0  0  0  0  0  0  0  0  0  0  0  0
   -6.4786    2.8498   -1.5855 H   0  0  0  0  0  0  0  0  0  0  0  0
   -4.1163    2.2771   -1.3071 H   0  0  0  0  0  0  0  0  0  0  0  0
   -1.5594    0.6211    1.7343 H   0  0  0  0  0  0  0  0  0  0  0  0
    0.1653    0.2041    1.5598 H   0  0  0  0  0  0  0  0  0  0  0  0
   -1.5268    1.9800   -0.2066 H   0  0  0  0  0  0  0  0  0  0  0  0
    0.2814    1.8617    0.0031 H   0  0  0  0  0  0  0  0  0  0  0  0
    0.4005    0.6994   -1.9314 H   0  0  0  0  0  0  0  0  0  0  0  0
   -1.3718    0.7455   -2.1015 H   0  0  0  0  0  0  0  0  0  0  0  0
    2.6846   -0.0019   -2.1569 H   0  0  0  0  0  0  0  0  0  0  0  0
    4.0779   -1.6489    2.1910 H   0  0  0  0  0  0  0  0  0  0  0  0
    1.9570   -2.4896    1.1551 H   0  0  0  0  0  0  0  0  0  0  0  0
    7.5730   -0.2736    1.8347 H   0  0  0  0  0  0  0  0  0  0  0  0
    6.0432   -0.5771    2.7837 H   0  0  0  0  0  0  0  0  0  0  0  0
    6.7030    1.0711    2.6262 H   0  0  0  0  0  0  0  0  0  0  0  0
  1  2  1  0
  2  3  1  0
  3  4  1  0
  4  5  2  0
  5  6  1  0
  6  7  2  0
  7  8  1  0
  8  9  2  0
  1 10  1  0
 10 11  1  0
 11 12  1  0
 12 13  1  0
 13 14  1  0
 14 15  2  0
 14 16  2  0
 14 17  1  0
 17 18  2  0
 18 19  1  0
 19 20  2  0
 20 21  1  0
 21 22  2  0
 20 23  1  0
 23 24  1  0
 23 25  1  0
 25 26  2  0
 25 27  1  0
 27 28  2  0
 13  1  1  0
 22 17  1  0
  9  4  1  0
 27 19  1  0
  1 29  1  1
  2 30  1  0
  2 31  1  0
  5 32  1  0
  6 33  1  0
  7 34  1  0
  8 35  1  0
  9 36  1  0
 10 37  1  0
 10 38  1  0
 11 39  1  0
 11 40  1  0
 12 41  1  0
 12 42  1  0
 18 43  1  0
 21 44  1  0
 22 45  1  0
 24 46  1  0
 24 47  1  0
 24 48  1  0
M  END
$$$$
