@<TRIPOS>MOLECULE
*****
 48 51 0 0 0
SMALL
GASTEIGER

@<TRIPOS>ATOM
      1 C          -1.1350   -0.9708    0.3200 C.3     1  UNL1        0.0659
      2 C          -2.6675   -1.0329    0.3585 C.3     1  UNL1        0.1067
      3 O          -3.1850    0.1394   -0.2314 O.3     1  UNL1       -0.4904
      4 C          -4.5284    0.3970   -0.3553 C.ar    1  UNL1        0.1206
      5 C          -5.5565   -0.4420    0.0734 C.ar    1  UNL1       -0.0199
      6 C          -6.8880   -0.1405   -0.0728 C.ar    1  UNL1       -0.0583
      7 C          -7.2374    1.0547   -0.6750 C.ar    1  UNL1       -0.0615
      8 C          -6.2309    1.9098   -1.1117 C.ar    1  UNL1       -0.0583
      9 C          -4.8853    1.5966   -0.9597 C.ar    1  UNL1       -0.0199
     10 C          -0.7699    0.3244    1.0123 C.3     1  UNL1       -0.0313
     11 C          -0.6552    1.2960   -0.1275 C.3     1  UNL1       -0.0370
     12 C          -0.5440    0.4921   -1.4049 C.3     1  UNL1        0.0210
     13 N          -0.6786   -0.8768   -1.0293 N.3     1  UNL1       -0.1703
     14 S           0.7058   -1.8264   -1.3889 S.O2    1  UNL1        0.0612
     15 O           0.9535   -1.6965   -2.8754 O.2     1  UNL1       -0.1528
     16 O           0.4260   -3.2710   -1.1199 O.2     1  UNL1       -0.1528
     17 C           2.1444   -1.3236   -0.5738 C.ar    1  UNL1        0.1063
     18 C           2.9802   -0.3816   -1.1838 C.ar    1  UNL1       -0.0226
     19 C           4.1603    0.1067   -0.6417 C.ar    1  UNL1        0.0501
     20 C           4.5536   -0.3623    0.5923 C.ar    1  UNL1        0.0474
     21 C           3.7606   -1.2925    1.2320 C.ar    1  UNL1       -0.0377
     22 C           2.5874   -1.7670    0.6748 C.ar    1  UNL1       -0.0335
     23 N           5.7735    0.2959    0.8970 N.am    1  UNL1       -0.2672
     24 C           6.5674    0.1215    2.1004 C.3     1  UNL1        0.0087
     25 C           6.1639    1.1899   -0.1450 C.2     1  UNL1        0.2910
     26 O           7.1693    1.9266   -0.2178 O.2     1  UNL1       -0.2661
     27 C           5.1151    1.0706   -1.1516 C.2     1  UNL1        0.2496
     28 O           5.0954    1.7065   -2.2346 O.2     1  UNL1       -0.2817
     29 H          -0.7899   -1.8291    0.8958 H       1  UNL1        0.0513
     30 H          -2.9982   -1.0369    1.4252 H       1  UNL1        0.0713
     31 H          -3.0361   -1.9378   -0.1304 H       1  UNL1        0.0713
     32 H          -5.2745   -1.3646    0.5382 H       1  UNL1        0.0654
     33 H          -7.6708   -0.7825    0.2552 H       1  UNL1        0.0619
     34 H          -8.2583    1.3885   -0.8389 H       1  UNL1        0.0618
     35 H          -6.4786    2.8498   -1.5855 H       1  UNL1        0.0619
     36 H          -4.1163    2.2771   -1.3071 H       1  UNL1        0.0654
     37 H          -1.5594    0.6211    1.7343 H       1  UNL1        0.0282
     38 H           0.1653    0.2041    1.5598 H       1  UNL1        0.0282
     39 H          -1.5268    1.9800   -0.2066 H       1  UNL1        0.0279
     40 H           0.2814    1.8617    0.0031 H       1  UNL1        0.0279
     41 H           0.4005    0.6994   -1.9314 H       1  UNL1        0.0444
     42 H          -1.3718    0.7455   -2.1015 H       1  UNL1        0.0444
     43 H           2.6846   -0.0019   -2.1569 H       1  UNL1        0.0645
     44 H           4.0779   -1.6489    2.1910 H       1  UNL1        0.0637
     45 H           1.9570   -2.4896    1.1551 H       1  UNL1        0.0638
     46 H           7.5730   -0.2736    1.8347 H       1  UNL1        0.0433
     47 H           6.0432   -0.5771    2.7837 H       1  UNL1        0.0433
     48 H           6.7030    1.0711    2.6262 H       1  UNL1        0.0433
@<TRIPOS>BOND
     1     1     2    1
     2     2     3    1
     3     3     4    1
     4     4     5   ar
     5     5     6   ar
     6     6     7   ar
     7     7     8   ar
     8     8     9   ar
     9     1    10    1
    10    10    11    1
    11    11    12    1
    12    12    13    1
    13    13    14    1
    14    14    15    2
    15    14    16    2
    16    14    17    1
    17    17    18   ar
    18    18    19   ar
    19    19    20   ar
    20    20    21   ar
    21    21    22   ar
    22    20    23    1
    23    23    24    1
    24    23    25   am
    25    25    26    2
    26    25    27    1
    27    27    28    2
    28    13     1    1
    29    22    17   ar
    30     9     4   ar
    31    27    19    1
    32     1    29    1
    33     2    30    1
    34     2    31    1
    35     5    32    1
    36     6    33    1
    37     7    34    1
    38     8    35    1
    39     9    36    1
    40    10    37    1
    41    10    38    1
    42    11    39    1
    43    11    40    1
    44    12    41    1
    45    12    42    1
    46    18    43    1
    47    21    44    1
    48    22    45    1
    49    24    46    1
    50    24    47    1
    51    24    48    1
