@<TRIPOS>MOLECULE
*****
 22 21 0 0 0
SMALL
GASTEIGER

@<TRIPOS>ATOM
      1 C           0.3324   -2.0418   -0.5269 C.3     1  UNL1       -0.0361
      2 C           0.2192   -0.5323   -0.2738 C.3     1  UNL1        0.0927
      3 O           0.7635   -0.2342    0.9541 O.3     1  UNL1       -0.2816
      4 P           2.1113    0.7507    0.7716 P.3     1  UNL1        0.4727
      5 O           1.9038    1.8863   -0.4624 O.3     1  UNL1       -0.3026
      6 O           3.4908   -0.1577    0.3559 O.3     1  UNL1       -0.3026
      7 O           2.4565    1.4928    2.0467 O.2     1  UNL1       -0.2275
      8 CA         -1.2209   -0.1906   -0.4421 C.3     1  UNL1        0.1299
      9 N          -1.9668   -0.9377    0.5581 N.3     1  UNL1       -0.3163
     10 C          -1.5458    1.2370   -0.4420 C.2     1  UNL1        0.3243
     11 O          -2.4033    2.0416    0.2953 O.3     1  UNL1       -0.4795
     12 OXT        -1.1017    2.1779   -1.1615 O.2     1  UNL1       -0.2492
     13 H          -0.5845   -2.4613   -0.9835 H       1  UNL1        0.0255
     14 H           1.1618   -2.2644   -1.2308 H       1  UNL1        0.0255
     15 H           0.4659   -2.5514    0.4480 H       1  UNL1        0.0255
     16 H           0.8250   -0.0319   -1.0773 H       1  UNL1        0.0620
     17 H           1.4274    2.6916   -0.1314 H       1  UNL1        0.2220
     18 H           3.3627   -1.1236    0.5109 H       1  UNL1        0.2220
     19 HA         -1.5253   -0.6014   -1.4350 H       1  UNL1        0.0600
     20 H1         -1.9840   -0.4007    1.4539 H       1  UNL1        0.1190
     21 H2         -2.9099   -1.1680    0.1831 H       1  UNL1        0.1190
     22 H          -3.2781    2.4190   -0.0153 H       1  UNL1        0.2951
@<TRIPOS>BOND
     1     1     2    1
     2     2     3    1
     3     3     4    1
     4     4     5    1
     5     4     6    1
     6     4     7    2
     7     2     8    1
     8     8     9    1
     9     8    10    1
    10    10    11    1
    11    10    12    2
    12     1    13    1
    13     1    14    1
    14     1    15    1
    15     2    16    1
    16     5    17    1
    17     6    18    1
    18     8    19    1
    19     9    20    1
    20     9    21    1
    21    11    22    1
