
     RDKit          3D

 22 21  0  0  0  0  0  0  0  0999 V2000
    0.3324   -2.0418   -0.5269 C   0  0  0  0  0  0  0  0  0  0  0  0
    0.2192   -0.5323   -0.2738 C   0  0  2  0  0  0  0  0  0  0  0  0
    0.7635   -0.2342    0.9541 O   0  0  0  0  0  0  0  0  0  0  0  0
    2.1113    0.7507    0.7716 P   0  0  0  0  0  0  0  0  0  0  0  0
    1.9038    1.8863   -0.4624 O   0  0  0  0  0  0  0  0  0  0  0  0
    3.4908   -0.1577    0.3559 O   0  0  0  0  0  0  0  0  0  0  0  0
    2.4565    1.4928    2.0467 O   0  0  0  0  0  0  0  0  0  0  0  0
   -1.2209   -0.1906   -0.4421 C   0  0  1  0  0  0  0  0  0  0  0  0
   -1.9668   -0.9377    0.5581 N   0  0  0  0  0  0  0  0  0  0  0  0
   -1.5458    1.2370   -0.4420 C   0  0  0  0  0  0  0  0  0  0  0  0
   -2.4033    2.0416    0.2953 O   0  0  0  0  0  0  0  0  0  0  0  0
   -1.1017    2.1779   -1.1615 O   0  0  0  0  0  0  0  0  0  0  0  0
   -0.5845   -2.4613   -0.9835 H   0  0  0  0  0  0  0  0  0  0  0  0
    1.1618   -2.2644   -1.2308 H   0  0  0  0  0  0  0  0  0  0  0  0
    0.4659   -2.5514    0.4480 H   0  0  0  0  0  0  0  0  0  0  0  0
    0.8250   -0.0319   -1.0773 H   0  0  0  0  0  0  0  0  0  0  0  0
    1.4274    2.6916   -0.1314 H   0  0  0  0  0  0  0  0  0  0  0  0
    3.3627   -1.1236    0.5109 H   0  0  0  0  0  0  0  0  0  0  0  0
   -1.5253   -0.6014   -1.4350 H   0  0  0  0  0  0  0  0  0  0  0  0
   -1.9840   -0.4007    1.4539 H   0  0  0  0  0  0  0  0  0  0  0  0
   -2.9099   -1.1680    0.1831 H   0  0  0  0  0  0  0  0  0  0  0  0
   -3.2781    2.4190   -0.0153 H   0  0  0  0  0  0  0  0  0  0  0  0
  1  2  1  0
  2  3  1  0
  3  4  1  0
  4  5  1  0
  4  6  1  0
  4  7  2  0
  2  8  1  0
  8  9  1  0
  8 10  1  0
 10 11  1  0
 10 12  2  0
  1 13  1  0
  1 14  1  0
  1 15  1  0
  2 16  1  6
  5 17  1  0
  6 18  1  0
  8 19  1  6
  9 20  1  0
  9 21  1  0
 11 22  1  0
M  END
$$$$
