@<TRIPOS>MOLECULE
*****
 48 50 0 0 0
SMALL
GASTEIGER

@<TRIPOS>ATOM
      1 O          -7.3866   -0.7068   -1.0568 O.3     1  UNL1       -0.2952
      2 N          -6.2497   -1.1384   -0.4192 N.am    1  UNL1       -0.1974
      3 C          -5.0219   -0.3856   -0.5214 C.2     1  UNL1        0.2375
      4 O          -5.3050    0.5986   -1.2490 O.2     1  UNL1       -0.2737
      5 C          -3.9635   -1.0484    0.2414 C.3     1  UNL1        0.0515
      6 C          -2.6212   -0.3292    0.1915 C.3     1  UNL1        0.1053
      7 C          -2.0585   -0.1889   -1.1780 C.3     1  UNL1       -0.0034
      8 C          -2.2993    1.0988   -1.8739 C.3     1  UNL1        0.0497
      9 O          -2.6387    2.1694   -1.0900 O.3     1  UNL1       -0.3796
     10 C          -2.0594    2.1048    0.1741 C.3     1  UNL1        0.0497
     11 C          -2.6958    0.9749    0.9138 C.3     1  UNL1       -0.0034
     12 S          -1.5422   -1.3777    1.1775 S.O2    1  UNL1        0.0031
     13 O          -2.1579   -1.4647    2.5364 O.2     1  UNL1       -0.1688
     14 O          -1.5269   -2.7387    0.5786 O.2     1  UNL1       -0.1688
     15 C           0.0677   -0.7783    1.2823 C.ar    1  UNL1        0.0890
     16 C           0.5360    0.0894    2.2497 C.ar    1  UNL1       -0.0334
     17 C           1.8077    0.5775    2.3536 C.ar    1  UNL1       -0.0175
     18 C           2.7326    0.1782    1.4105 C.ar    1  UNL1        0.1285
     19 O           4.0233    0.6625    1.5009 O.3     1  UNL1       -0.4560
     20 C           5.0377    0.3428    0.6259 C.ar    1  UNL1        0.1285
     21 C           5.9065   -0.7109    0.7611 C.ar    1  UNL1       -0.0180
     22 C           6.8590   -0.8711   -0.2191 C.ar    1  UNL1       -0.0399
     23 C           6.9343   -0.0088   -1.2892 C.ar    1  UNL1        0.0412
     24 CL          8.2101   -0.3730   -2.4325 Cl      1  UNL1       -0.0835
     25 C           6.0651    1.0545   -1.4349 C.ar    1  UNL1       -0.0399
     26 C           5.1010    1.2203   -0.4466 C.ar    1  UNL1       -0.0180
     27 C           2.3558   -0.6883    0.4048 C.ar    1  UNL1       -0.0175
     28 C           1.0542   -1.1435    0.3584 C.ar    1  UNL1       -0.0334
     29 H          -7.4388    0.2737   -0.8847 H       1  UNL1        0.2414
     30 H          -6.5246   -2.0281    0.0715 H       1  UNL1        0.1822
     31 H          -4.2150   -1.1338    1.3156 H       1  UNL1        0.0381
     32 H          -3.7872   -2.1010   -0.1253 H       1  UNL1        0.0381
     33 H          -0.9453   -0.3460   -1.0950 H       1  UNL1        0.0309
     34 H          -2.3930   -1.0008   -1.8614 H       1  UNL1        0.0309
     35 H          -1.3511    1.3945   -2.4160 H       1  UNL1        0.0560
     36 H          -3.0350    0.9927   -2.7266 H       1  UNL1        0.0560
     37 H          -0.9523    2.0091    0.1235 H       1  UNL1        0.0560
     38 H          -2.2889    3.0446    0.7002 H       1  UNL1        0.0560
     39 H          -3.7667    1.2523    1.1000 H       1  UNL1        0.0309
     40 H          -2.2387    0.9602    1.9397 H       1  UNL1        0.0309
     41 H          -0.1591    0.4242    3.0059 H       1  UNL1        0.0638
     42 H           2.0920    1.2605    3.1518 H       1  UNL1        0.0655
     43 H           5.7466   -1.3190    1.6460 H       1  UNL1        0.0655
     44 H           7.5271   -1.7274   -0.0630 H       1  UNL1        0.0633
     45 H           6.2006    1.6755   -2.3045 H       1  UNL1        0.0633
     46 H           4.4467    2.0660   -0.6076 H       1  UNL1        0.0655
     47 H           3.0852   -0.9978   -0.3317 H       1  UNL1        0.0655
     48 H           0.8328   -1.8191   -0.4560 H       1  UNL1        0.0638
@<TRIPOS>BOND
     1     1     2    1
     2     2     3   am
     3     3     4    2
     4     3     5    1
     5     5     6    1
     6     6     7    1
     7     7     8    1
     8     8     9    1
     9     9    10    1
    10    10    11    1
    11     6    12    1
    12    12    13    2
    13    12    14    2
    14    12    15    1
    15    15    16   ar
    16    16    17   ar
    17    17    18   ar
    18    18    19    1
    19    19    20    1
    20    20    21   ar
    21    21    22   ar
    22    22    23   ar
    23    23    24    1
    24    23    25   ar
    25    25    26   ar
    26    18    27   ar
    27    27    28   ar
    28    11     6    1
    29    28    15   ar
    30    26    20   ar
    31     1    29    1
    32     2    30    1
    33     5    31    1
    34     5    32    1
    35     7    33    1
    36     7    34    1
    37     8    35    1
    38     8    36    1
    39    10    37    1
    40    10    38    1
    41    11    39    1
    42    11    40    1
    43    16    41    1
    44    17    42    1
    45    21    43    1
    46    22    44    1
    47    25    45    1
    48    26    46    1
    49    27    47    1
    50    28    48    1
