
     RDKit          3D

 66 69  0  0  0  0  0  0  0  0999 V2000
    3.4845    2.9491    0.3505 O   0  0  0  0  0  0  0  0  0  0  0  0
    3.3088    1.6918    0.9541 C   0  0  0  0  0  0  0  0  0  0  0  0
    3.6689    0.6600   -0.0649 C   0  0  1  0  0  0  0  0  0  0  0  0
    5.1234    0.8167   -0.4957 C   0  0  1  0  0  0  0  0  0  0  0  0
    5.4334    2.1572   -0.5352 O   0  0  0  0  0  0  0  0  0  0  0  0
    6.0173    0.1162    0.5368 C   0  0  2  0  0  0  0  0  0  0  0  0
    7.3213    0.4746    0.3154 O   0  0  0  0  0  0  0  0  0  0  0  0
    5.7995   -1.3764    0.4261 C   0  0  1  0  0  0  0  0  0  0  0  0
    5.8558   -1.9542    1.6921 O   0  0  0  0  0  0  0  0  0  0  0  0
    4.3818   -1.6294   -0.0982 C   0  0  0  0  0  0  0  0  0  0  0  0
    3.5185   -0.6621    0.4691 N   0  0  0  0  0  0  0  0  0  0  0  0
    2.2159   -1.0561    0.7982 C   0  0  0  0  0  0  0  0  0  0  0  0
    1.3203   -1.3795   -0.3893 C   0  0  0  0  0  0  0  0  0  0  0  0
   -0.0168   -1.7649    0.2105 C   0  0  0  0  0  0  0  0  0  0  0  0
   -0.9878   -2.1307   -0.8813 C   0  0  0  0  0  0  0  0  0  0  0  0
   -1.2094   -0.9784   -1.7863 C   0  0  0  0  0  0  0  0  0  0  0  0
   -1.6844    0.2541   -1.1834 C   0  0  0  0  0  0  0  0  0  0  0  0
   -2.9995    0.2829   -0.5100 C   0  0  0  0  0  0  0  0  0  0  0  0
   -3.1390    1.7996   -0.0920 C   0  0  0  0  0  0  0  0  0  0  0  0
   -4.5231    2.0980    0.3965 C   0  0  0  0  0  0  0  0  0  0  0  0
   -5.5300    1.7627   -0.6585 C   0  0  0  0  0  0  0  0  0  0  0  0
   -5.4312    0.2813   -0.9565 C   0  0  0  0  0  0  0  0  0  0  0  0
   -5.5616   -0.5785    0.2759 C   0  0  0  0  0  0  0  0  0  0  0  0
   -4.5697   -0.1722    1.3185 C   0  0  0  0  0  0  0  0  0  0  0  0
   -4.7383    1.2730    1.6578 C   0  0  0  0  0  0  0  0  0  0  0  0
   -3.1593   -0.4230    0.7865 C   0  0  0  0  0  0  0  0  0  0  0  0
   -4.0638    0.0243   -1.5277 C   0  0  0  0  0  0  0  0  0  0  0  0
    3.0559    2.8833   -0.5599 H   0  0  0  0  0  0  0  0  0  0  0  0
    2.2265    1.6176    1.1668 H   0  0  0  0  0  0  0  0  0  0  0  0
    3.8867    1.5918    1.8754 H   0  0  0  0  0  0  0  0  0  0  0  0
    3.0124    0.8031   -0.9581 H   0  0  0  0  0  0  0  0  0  0  0  0
    5.2974    0.2923   -1.4435 H   0  0  0  0  0  0  0  0  0  0  0  0
    6.1940    2.3405    0.0504 H   0  0  0  0  0  0  0  0  0  0  0  0
    5.6296    0.4267    1.5294 H   0  0  0  0  0  0  0  0  0  0  0  0
    7.7522    0.6182    1.2061 H   0  0  0  0  0  0  0  0  0  0  0  0
    6.5567   -1.7990   -0.2366 H   0  0  0  0  0  0  0  0  0  0  0  0
    5.5864   -2.9176    1.6126 H   0  0  0  0  0  0  0  0  0  0  0  0
    4.0435   -2.6481    0.1594 H   0  0  0  0  0  0  0  0  0  0  0  0
    4.4041   -1.5579   -1.2095 H   0  0  0  0  0  0  0  0  0  0  0  0
    2.2822   -2.0204    1.3819 H   0  0  0  0  0  0  0  0  0  0  0  0
    1.7524   -0.3324    1.4931 H   0  0  0  0  0  0  0  0  0  0  0  0
    1.7985   -2.2282   -0.9225 H   0  0  0  0  0  0  0  0  0  0  0  0
    1.2772   -0.5318   -1.0812 H   0  0  0  0  0  0  0  0  0  0  0  0
   -0.3505   -0.8658    0.7950 H   0  0  0  0  0  0  0  0  0  0  0  0
    0.0812   -2.6231    0.9074 H   0  0  0  0  0  0  0  0  0  0  0  0
   -0.4262   -2.9109   -1.5504 H   0  0  0  0  0  0  0  0  0  0  0  0
   -1.8953   -2.6401   -0.5287 H   0  0  0  0  0  0  0  0  0  0  0  0
   -1.8620   -1.2961   -2.6780 H   0  0  0  0  0  0  0  0  0  0  0  0
   -0.2207   -0.7613   -2.3139 H   0  0  0  0  0  0  0  0  0  0  0  0
   -0.9218    0.6865   -0.4349 H   0  0  0  0  0  0  0  0  0  0  0  0
   -1.7150    1.0944   -1.9535 H   0  0  0  0  0  0  0  0  0  0  0  0
   -2.4267    1.8842    0.7666 H   0  0  0  0  0  0  0  0  0  0  0  0
   -2.8163    2.4234   -0.9335 H   0  0  0  0  0  0  0  0  0  0  0  0
   -4.5355    3.1756    0.6666 H   0  0  0  0  0  0  0  0  0  0  0  0
   -6.5478    2.1055   -0.4600 H   0  0  0  0  0  0  0  0  0  0  0  0
   -5.1902    2.2813   -1.5990 H   0  0  0  0  0  0  0  0  0  0  0  0
   -6.2273    0.0359   -1.6722 H   0  0  0  0  0  0  0  0  0  0  0  0
   -5.3091   -1.6170   -0.0448 H   0  0  0  0  0  0  0  0  0  0  0  0
   -6.5914   -0.6091    0.6840 H   0  0  0  0  0  0  0  0  0  0  0  0
   -4.7023   -0.8135    2.2179 H   0  0  0  0  0  0  0  0  0  0  0  0
   -3.9224    1.5630    2.3640 H   0  0  0  0  0  0  0  0  0  0  0  0
   -5.7124    1.4525    2.1303 H   0  0  0  0  0  0  0  0  0  0  0  0
   -2.4515    0.0681    1.5082 H   0  0  0  0  0  0  0  0  0  0  0  0
   -2.9845   -1.4752    0.8544 H   0  0  0  0  0  0  0  0  0  0  0  0
   -3.9667   -0.9806   -1.9744 H   0  0  0  0  0  0  0  0  0  0  0  0
   -3.8965    0.7480   -2.3666 H   0  0  0  0  0  0  0  0  0  0  0  0
  1  2  1  0
  2  3  1  0
  3  4  1  0
  4  5  1  0
  4  6  1  0
  6  7  1  0
  6  8  1  0
  8  9  1  0
  8 10  1  0
 10 11  1  0
 11 12  1  0
 12 13  1  0
 13 14  1  0
 14 15  1  0
 15 16  1  0
 16 17  1  0
 17 18  1  0
 18 19  1  0
 19 20  1  0
 20 21  1  0
 21 22  1  0
 22 23  1  0
 23 24  1  0
 24 25  1  0
 24 26  1  0
 22 27  1  0
 11  3  1  0
 26 18  1  0
 27 18  1  0
 25 20  1  0
  1 28  1  0
  2 29  1  0
  2 30  1  0
  3 31  1  6
  4 32  1  6
  5 33  1  0
  6 34  1  1
  7 35  1  0
  8 36  1  6
  9 37  1  0
 10 38  1  0
 10 39  1  0
 12 40  1  0
 12 41  1  0
 13 42  1  0
 13 43  1  0
 14 44  1  0
 14 45  1  0
 15 46  1  0
 15 47  1  0
 16 48  1  0
 16 49  1  0
 17 50  1  0
 17 51  1  0
 19 52  1  0
 19 53  1  0
 20 54  1  0
 21 55  1  0
 21 56  1  0
 22 57  1  0
 23 58  1  0
 23 59  1  0
 24 60  1  0
 25 61  1  0
 25 62  1  0
 26 63  1  0
 26 64  1  0
 27 65  1  0
 27 66  1  0
M  END
$$$$
