@<TRIPOS>MOLECULE
*****
 66 69 0 0 0
SMALL
GASTEIGER

@<TRIPOS>ATOM
      1 O           3.4845    2.9491    0.3505 O.3     1  UNL1       -0.3934
      2 C           3.3088    1.6918    0.9541 C.3     1  UNL1        0.0622
      3 C           3.6689    0.6600   -0.0649 C.3     1  UNL1        0.0621
      4 C           5.1234    0.8167   -0.4957 C.3     1  UNL1        0.1011
      5 O           5.4334    2.1572   -0.5352 O.3     1  UNL1       -0.3875
      6 C           6.0173    0.1162    0.5368 C.3     1  UNL1        0.1095
      7 O           7.3213    0.4746    0.3154 O.3     1  UNL1       -0.3866
      8 C           5.7995   -1.3764    0.4261 C.3     1  UNL1        0.0962
      9 O           5.8558   -1.9542    1.6921 O.3     1  UNL1       -0.3879
     10 C           4.3818   -1.6294   -0.0982 C.3     1  UNL1        0.0279
     11 N           3.5185   -0.6621    0.4691 N.3     1  UNL1       -0.2923
     12 C           2.2159   -1.0561    0.7982 C.3     1  UNL1       -0.0006
     13 C           1.3203   -1.3795   -0.3893 C.3     1  UNL1       -0.0402
     14 C          -0.0168   -1.7649    0.2105 C.3     1  UNL1       -0.0519
     15 C          -0.9878   -2.1307   -0.8813 C.3     1  UNL1       -0.0530
     16 C          -1.2094   -0.9784   -1.7863 C.3     1  UNL1       -0.0526
     17 C          -1.6844    0.2541   -1.1834 C.3     1  UNL1       -0.0473
     18 C          -2.9995    0.2829   -0.5100 C.3     1  UNL1       -0.0285
     19 C          -3.1390    1.7996   -0.0920 C.3     1  UNL1       -0.0445
     20 C          -4.5231    2.0980    0.3965 C.3     1  UNL1       -0.0400
     21 C          -5.5300    1.7627   -0.6585 C.3     1  UNL1       -0.0473
     22 C          -5.4312    0.2813   -0.9565 C.3     1  UNL1       -0.0400
     23 C          -5.5616   -0.5785    0.2759 C.3     1  UNL1       -0.0473
     24 C          -4.5697   -0.1722    1.3185 C.3     1  UNL1       -0.0400
     25 C          -4.7383    1.2730    1.6578 C.3     1  UNL1       -0.0473
     26 C          -3.1593   -0.4230    0.7865 C.3     1  UNL1       -0.0445
     27 C          -4.0638    0.0243   -1.5277 C.3     1  UNL1       -0.0445
     28 H           3.0559    2.8833   -0.5599 H       1  UNL1        0.2095
     29 H           2.2265    1.6176    1.1668 H       1  UNL1        0.0573
     30 H           3.8867    1.5918    1.8754 H       1  UNL1        0.0573
     31 H           3.0124    0.8031   -0.9581 H       1  UNL1        0.0511
     32 H           5.2974    0.2923   -1.4435 H       1  UNL1        0.0636
     33 H           6.1940    2.3405    0.0504 H       1  UNL1        0.2100
     34 H           5.6296    0.4267    1.5294 H       1  UNL1        0.0646
     35 H           7.7522    0.6182    1.2061 H       1  UNL1        0.2100
     36 H           6.5567   -1.7990   -0.2366 H       1  UNL1        0.0633
     37 H           5.5864   -2.9176    1.6126 H       1  UNL1        0.2099
     38 H           4.0435   -2.6481    0.1594 H       1  UNL1        0.0453
     39 H           4.4041   -1.5579   -1.2095 H       1  UNL1        0.0453
     40 H           2.2822   -2.0204    1.3819 H       1  UNL1        0.0427
     41 H           1.7524   -0.3324    1.4931 H       1  UNL1        0.0427
     42 H           1.7985   -2.2282   -0.9225 H       1  UNL1        0.0278
     43 H           1.2772   -0.5318   -1.0812 H       1  UNL1        0.0278
     44 H          -0.3505   -0.8658    0.7950 H       1  UNL1        0.0266
     45 H           0.0812   -2.6231    0.9074 H       1  UNL1        0.0266
     46 H          -0.4262   -2.9109   -1.5504 H       1  UNL1        0.0265
     47 H          -1.8953   -2.6401   -0.5287 H       1  UNL1        0.0265
     48 H          -1.8620   -1.2961   -2.6780 H       1  UNL1        0.0265
     49 H          -0.2207   -0.7613   -2.3139 H       1  UNL1        0.0265
     50 H          -0.9218    0.6865   -0.4349 H       1  UNL1        0.0271
     51 H          -1.7150    1.0944   -1.9535 H       1  UNL1        0.0271
     52 H          -2.4267    1.8842    0.7666 H       1  UNL1        0.0273
     53 H          -2.8163    2.4234   -0.9335 H       1  UNL1        0.0273
     54 H          -4.5355    3.1756    0.6666 H       1  UNL1        0.0301
     55 H          -6.5478    2.1055   -0.4600 H       1  UNL1        0.0271
     56 H          -5.1902    2.2813   -1.5990 H       1  UNL1        0.0271
     57 H          -6.2273    0.0359   -1.6722 H       1  UNL1        0.0301
     58 H          -5.3091   -1.6170   -0.0448 H       1  UNL1        0.0271
     59 H          -6.5914   -0.6091    0.6840 H       1  UNL1        0.0271
     60 H          -4.7023   -0.8135    2.2179 H       1  UNL1        0.0301
     61 H          -3.9224    1.5630    2.3640 H       1  UNL1        0.0271
     62 H          -5.7124    1.4525    2.1303 H       1  UNL1        0.0271
     63 H          -2.4515    0.0681    1.5082 H       1  UNL1        0.0273
     64 H          -2.9845   -1.4752    0.8544 H       1  UNL1        0.0273
     65 H          -3.9667   -0.9806   -1.9744 H       1  UNL1        0.0273
     66 H          -3.8965    0.7480   -2.3666 H       1  UNL1        0.0273
@<TRIPOS>BOND
     1     1     2    1
     2     2     3    1
     3     3     4    1
     4     4     5    1
     5     4     6    1
     6     6     7    1
     7     6     8    1
     8     8     9    1
     9     8    10    1
    10    10    11    1
    11    11    12    1
    12    12    13    1
    13    13    14    1
    14    14    15    1
    15    15    16    1
    16    16    17    1
    17    17    18    1
    18    18    19    1
    19    19    20    1
    20    20    21    1
    21    21    22    1
    22    22    23    1
    23    23    24    1
    24    24    25    1
    25    24    26    1
    26    22    27    1
    27    11     3    1
    28    26    18    1
    29    27    18    1
    30    25    20    1
    31     1    28    1
    32     2    29    1
    33     2    30    1
    34     3    31    1
    35     4    32    1
    36     5    33    1
    37     6    34    1
    38     7    35    1
    39     8    36    1
    40     9    37    1
    41    10    38    1
    42    10    39    1
    43    12    40    1
    44    12    41    1
    45    13    42    1
    46    13    43    1
    47    14    44    1
    48    14    45    1
    49    15    46    1
    50    15    47    1
    51    16    48    1
    52    16    49    1
    53    17    50    1
    54    17    51    1
    55    19    52    1
    56    19    53    1
    57    20    54    1
    58    21    55    1
    59    21    56    1
    60    22    57    1
    61    23    58    1
    62    23    59    1
    63    24    60    1
    64    25    61    1
    65    25    62    1
    66    26    63    1
    67    26    64    1
    68    27    65    1
    69    27    66    1
