@<TRIPOS>MOLECULE
*****
 58 60 0 0 0
SMALL
GASTEIGER

@<TRIPOS>ATOM
      1 C          -4.3144   -2.3037    0.1207 C.3     1  UNL1       -0.0493
      2 C          -4.5212   -1.3235   -0.9667 C.3     1  UNL1        0.0123
      3 N          -3.6875   -0.1524   -0.9794 N.am    1  UNL1       -0.2946
      4 C          -2.5107   -0.0908   -1.7308 C.3     1  UNL1        0.0539
      5 C          -1.1668   -0.3854   -1.2200 C.3     1  UNL1        0.1917
      6 O          -0.2307   -0.1955   -2.2804 O.3     1  UNL1       -0.3774
      7 C          -0.7554    0.5537   -0.1098 C.3     1  UNL1        0.0508
      8 N           0.5490    0.3802    0.4234 N.am    1  UNL1       -0.3081
      9 C           1.7922    0.5389   -0.2286 C.2     1  UNL1        0.2490
     10 O           1.8176    0.8861   -1.4247 O.2     1  UNL1       -0.2700
     11 C           3.0695    0.3122    0.4371 C.ar    1  UNL1        0.0958
     12 C           3.2201   -0.0726    1.7441 C.ar    1  UNL1        0.0638
     13 N           4.5462   -0.1691    1.9430 N.ar    1  UNL1       -0.1723
     14 N           5.2135    0.1359    0.8287 N.ar    1  UNL1       -0.2182
     15 C           6.6300    0.1300    0.6991 C.ar    1  UNL1        0.0676
     16 C           7.3178    0.9930   -0.1273 C.ar    1  UNL1       -0.0335
     17 C           8.6965    0.9660   -0.2373 C.ar    1  UNL1       -0.0244
     18 C           9.4251    0.0525    0.4962 C.ar    1  UNL1        0.1235
     19 F          10.7871    0.0169    0.3968 F       1  UNL1       -0.2055
     20 C           8.7620   -0.8275    1.3351 C.ar    1  UNL1       -0.0244
     21 C           7.3674   -0.7783    1.4272 C.ar    1  UNL1       -0.0335
     22 C           4.3309    0.4358   -0.1124 C.ar    1  UNL1        0.1320
     23 N           4.6224    0.8139   -1.4372 N.pl3   1  UNL1       -0.3424
     24 C          -0.8853   -1.7754   -0.7298 C.3     1  UNL1        0.4212
     25 F          -1.1067   -2.7284   -1.6970 F       1  UNL1       -0.1675
     26 F           0.5509   -1.7961   -0.6186 F       1  UNL1       -0.1675
     27 F          -1.2954   -2.0744    0.5182 F       1  UNL1       -0.1675
     28 C          -4.1421    0.9894   -0.2684 C.2     1  UNL1        0.2495
     29 O          -3.4641    2.0558   -0.2249 O.2     1  UNL1       -0.2699
     30 C          -5.3970    1.0462    0.4560 C.ar    1  UNL1        0.0734
     31 C          -5.5619    0.8509    1.7915 C.ar    1  UNL1        0.0545
     32 CL         -4.1528    0.5137    2.7741 Cl      1  UNL1       -0.0827
     33 C          -6.7917    0.9194    2.4326 C.ar    1  UNL1       -0.0426
     34 C          -7.9266    1.1993    1.7058 C.ar    1  UNL1       -0.0590
     35 C          -7.7933    1.4033    0.3504 C.ar    1  UNL1       -0.0426
     36 C          -6.5534    1.3314   -0.2786 C.ar    1  UNL1        0.0545
     37 CL         -6.4258    1.6211   -1.9903 Cl      1  UNL1       -0.0827
     38 H          -3.9128   -1.8406    1.0208 H       1  UNL1        0.0245
     39 H          -5.3196   -2.7664    0.3493 H       1  UNL1        0.0245
     40 H          -3.6390   -3.1253   -0.2643 H       1  UNL1        0.0245
     41 H          -5.6196   -1.0407   -1.0719 H       1  UNL1        0.0462
     42 H          -4.3210   -1.8302   -1.9676 H       1  UNL1        0.0462
     43 H          -2.6103   -0.6754   -2.7218 H       1  UNL1        0.0496
     44 H          -2.4651    0.9772   -2.1596 H       1  UNL1        0.0496
     45 H          -0.2188   -1.0311   -2.8118 H       1  UNL1        0.2106
     46 H          -0.7903    1.5983   -0.5371 H       1  UNL1        0.0494
     47 H          -1.4806    0.5279    0.7355 H       1  UNL1        0.0494
     48 H           0.6489    0.0905    1.4506 H       1  UNL1        0.1491
     49 H           2.4764   -0.2723    2.5043 H       1  UNL1        0.0856
     50 H           6.7474    1.6986   -0.6942 H       1  UNL1        0.0640
     51 H           9.2449    1.6383   -0.8810 H       1  UNL1        0.0647
     52 H           9.3570   -1.5199    1.8875 H       1  UNL1        0.0647
     53 H           6.8870   -1.4710    2.0838 H       1  UNL1        0.0640
     54 H           4.2281    1.6907   -1.8376 H       1  UNL1        0.1437
     55 H           5.2339    0.2367   -2.0496 H       1  UNL1        0.1437
     56 H          -6.8732    0.7580    3.4869 H       1  UNL1        0.0632
     57 H          -8.9168    1.2602    2.1916 H       1  UNL1        0.0618
     58 H          -8.6720    1.6238   -0.2352 H       1  UNL1        0.0632
@<TRIPOS>BOND
     1     1     2    1
     2     2     3    1
     3     3     4    1
     4     4     5    1
     5     5     6    1
     6     5     7    1
     7     7     8    1
     8     8     9   am
     9     9    10    2
    10     9    11    1
    11    11    12   ar
    12    12    13   ar
    13    13    14   ar
    14    14    15    1
    15    15    16   ar
    16    16    17   ar
    17    17    18   ar
    18    18    19    1
    19    18    20   ar
    20    20    21   ar
    21    14    22   ar
    22    22    23    1
    23     5    24    1
    24    24    25    1
    25    24    26    1
    26    24    27    1
    27     3    28   am
    28    28    29    2
    29    28    30    1
    30    30    31   ar
    31    31    32    1
    32    31    33   ar
    33    33    34   ar
    34    34    35   ar
    35    35    36   ar
    36    36    37    1
    37    22    11   ar
    38    36    30   ar
    39    21    15   ar
    40     1    38    1
    41     1    39    1
    42     1    40    1
    43     2    41    1
    44     2    42    1
    45     4    43    1
    46     4    44    1
    47     6    45    1
    48     7    46    1
    49     7    47    1
    50     8    48    1
    51    12    49    1
    52    16    50    1
    53    17    51    1
    54    20    52    1
    55    21    53    1
    56    23    54    1
    57    23    55    1
    58    33    56    1
    59    34    57    1
    60    35    58    1
