@<TRIPOS>MOLECULE
*****
 12 11 0 0 0
SMALL
GASTEIGER

@<TRIPOS>ATOM
      1 O          -2.1884    0.2322    0.7073 O.3     1  UNL1       -0.4751
      2 C          -1.5839   -0.2631   -0.4587 C.2     1  UNL1        0.3730
      3 O          -2.3469   -0.7012   -1.3612 O.2     1  UNL1       -0.2419
      4 C          -0.1415   -0.2804   -0.6401 C.2     1  UNL1        0.2445
      5 O           0.1744   -0.7667   -1.7572 O.2     1  UNL1       -0.2847
      6 C           0.7067    0.2539    0.4688 C.3     1  UNL1        0.0566
      7 C           2.1397    0.1796    0.1611 C.2     1  UNL1        0.0494
      8 O           3.0183   -0.7845    0.6931 O.co2   1  UNL1       -0.5494
      9 O           2.5672    1.0724   -0.6483 O.co2   1  UNL1       -0.5494
     10 H          -3.1868    0.1073    0.8267 H       1  UNL1        0.2955
     11 H           0.4613   -0.3450    1.3720 H       1  UNL1        0.0408
     12 H           0.3798    1.2955    0.6367 H       1  UNL1        0.0408
@<TRIPOS>UNITY_ATOM_ATTR
8 1
charge -1
@<TRIPOS>BOND
     1     1     2    1
     2     2     3    2
     3     2     4    1
     4     4     5    2
     5     4     6    1
     6     6     7    1
     7     7     8   ar
     8     7     9   ar
     9     1    10    1
    10     6    11    1
    11     6    12    1
