@<TRIPOS>MOLECULE
*****
 177 177 0 0 0
SMALL
GASTEIGER

@<TRIPOS>ATOM
      1 C          11.4044    7.3612    1.9039 C.3     1  UNL1        0.0365
      2 O          11.6048    6.2993    1.0481 O.3     1  UNL1       -0.3809
      3 C          10.4147    5.7159    0.7252 C.3     1  UNL1        0.0732
      4 C           9.6155    5.1624    1.8611 C.3     1  UNL1        0.1314
      5 N          10.2881    4.1636    2.6169 N.3     1  UNL1       -0.2943
      6 C           9.4390    3.6464    3.6495 C.3     1  UNL1       -0.0122
      7 C          11.0268    3.1937    1.8856 C.3     1  UNL1       -0.0122
      8 C           8.3121    4.6710    1.3531 C.2     1  UNL1        0.3271
      9 O           7.8510    5.5239    0.5127 O.2     1  UNL1       -0.2490
     10 O           7.6110    3.5122    1.6488 O.3     1  UNL1       -0.4595
     11 C           6.4018    3.1674    1.0692 C.3     1  UNL1        0.1114
     12 C           5.1690    3.2523    1.9445 C.3     1  UNL1        0.0032
     13 C           3.9904    2.7777    1.0850 C.2     1  UNL1       -0.0805
     14 C           3.1468    1.8119    1.2490 C.2     1  UNL1       -0.0654
     15 C           2.0676    0.8631    1.1009 C.2     1  UNL1       -0.0553
     16 C           1.5350    1.2795   -0.0851 C.2     1  UNL1        0.0225
     17 C           0.6150    1.3136   -1.2807 C.2     1  UNL1        0.3322
     18 O           0.1030    1.6997   -2.3627 O.2     1  UNL1       -0.2456
     19 O          -0.1588    0.1867   -1.0215 O.3     1  UNL1       -0.4576
     20 C          -1.1842   -0.3246   -1.8122 C.3     1  UNL1        0.1117
     21 C          -0.4961   -1.4447   -2.6484 C.3     1  UNL1        0.0030
     22 C           0.1656   -2.4468   -1.8100 C.2     1  UNL1       -0.0820
     23 C          -0.1286   -3.7653   -1.8125 C.2     1  UNL1       -0.0595
     24 C           0.2488   -5.0644   -1.1793 C.3     1  UNL1        0.0767
     25 O          -0.8691   -5.5272   -0.5121 O.3     1  UNL1       -0.3758
     26 C          -1.3187   -6.7499   -1.0061 C.3     1  UNL1        0.0372
     27 C           1.4260   -4.8730   -0.2247 C.3     1  UNL1       -0.0201
     28 C           2.6274   -4.3447   -0.9186 C.3     1  UNL1       -0.0378
     29 C           3.1131   -5.3713   -1.9481 C.3     1  UNL1       -0.0620
     30 C           3.7373   -3.9082    0.0044 C.3     1  UNL1       -0.0318
     31 C           4.8584   -3.3055   -0.8107 C.2     1  UNL1       -0.0823
     32 C           6.1328   -3.6188   -0.9431 C.2     1  UNL1       -0.0482
     33 C           6.8509   -4.7264   -0.2701 C.3     1  UNL1       -0.0414
     34 C           7.0069   -2.8769   -1.8604 C.3     1  UNL1        0.0791
     35 O           6.2266   -2.0998   -2.7466 O.3     1  UNL1       -0.3755
     36 C           6.3009   -2.5573   -4.0514 C.3     1  UNL1        0.0372
     37 C           8.1125   -2.0891   -1.2767 C.3     1  UNL1       -0.0224
     38 C           7.8219   -0.7711   -0.6580 C.3     1  UNL1       -0.0455
     39 C           6.8404   -0.6355    0.4215 C.3     1  UNL1       -0.0173
     40 C           7.0581   -1.6646    1.5403 C.3     1  UNL1       -0.0601
     41 C           6.9085    0.7431    1.0615 C.3     1  UNL1        0.0637
     42 O           8.2646    0.8810    1.4456 O.3     1  UNL1       -0.3911
     43 C           6.4565    1.8601    0.2479 C.3     1  UNL1        0.0199
     44 C           7.3084    2.2014   -0.9360 C.3     1  UNL1       -0.0567
     45 C          -2.3487   -0.8052   -1.0924 C.3     1  UNL1        0.0199
     46 C          -1.9756   -1.8704   -0.0679 C.3     1  UNL1       -0.0567
     47 C          -3.1645    0.2428   -0.4041 C.3     1  UNL1        0.0637
     48 O          -2.2850    0.8523    0.5263 O.3     1  UNL1       -0.3911
     49 C          -3.6487    1.3163   -1.3013 C.3     1  UNL1       -0.0173
     50 C          -4.4430    0.6481   -2.4488 C.3     1  UNL1       -0.0601
     51 C          -4.7131    2.1594   -0.5266 C.3     1  UNL1       -0.0448
     52 C          -5.8519    1.2217   -0.1624 C.3     1  UNL1       -0.0150
     53 C          -7.0017    1.9129    0.4447 C.3     1  UNL1        0.1091
     54 O          -7.6637    2.8432   -0.2274 O.3     1  UNL1       -0.4599
     55 C          -8.2355    3.8077   -0.7574 C.2     1  UNL1        0.3245
     56 O          -7.6315    4.1908    0.2506 O.2     1  UNL1       -0.2491
     57 C          -9.0855    4.2778   -1.8513 C.3     1  UNL1        0.1050
     58 C         -10.4216    4.7510   -1.2831 C.3     1  UNL1       -0.0391
     59 N          -9.3522    3.2212   -2.7789 N.3     1  UNL1       -0.2963
     60 C         -10.0726    2.1376   -2.1886 C.3     1  UNL1       -0.0123
     61 C          -9.8507    3.6752   -4.0367 C.3     1  UNL1       -0.0123
     62 C          -7.9539    1.0266    1.2813 C.3     1  UNL1        0.0309
     63 C          -7.1923    0.5008    2.4823 C.3     1  UNL1       -0.0556
     64 C          -8.5326   -0.1195    0.4879 C.3     1  UNL1        0.1149
     65 O          -9.5140   -0.6875    1.4295 O.3     1  UNL1       -0.4606
     66 C         -10.8403   -0.7733    1.0571 C.2     1  UNL1        0.3042
     67 C         -11.9578   -1.3341    1.8365 C.3     1  UNL1        0.0332
     68 O         -11.0783   -0.3074   -0.0898 O.2     1  UNL1       -0.2512
     69 C          -7.6307   -1.3289    0.3237 C.3     1  UNL1        0.0132
     70 C          -8.3932   -2.3584   -0.5610 C.3     1  UNL1       -0.0555
     71 C          -7.5072   -2.0940    1.6355 C.2     1  UNL1       -0.0636
     72 C          -6.6086   -2.5990    2.4813 C.2     1  UNL1       -0.0049
     73 N          -7.1842   -3.2619    3.6388 N.am    1  UNL1       -0.2839
     74 C          -6.9940   -2.8825    5.0192 C.3     1  UNL1        0.0075
     75 C          -8.0143   -4.3693    3.3724 C.2     1  UNL1        0.2060
     76 O          -8.2635   -4.8629    2.2295 O.2     1  UNL1       -0.2790
     77 H          10.7397    8.1586    1.4740 H       1  UNL1        0.0523
     78 H          11.0635    6.9949    2.8907 H       1  UNL1        0.0523
     79 H          12.3988    7.8772    1.9907 H       1  UNL1        0.0523
     80 H          10.5112    4.9364   -0.0818 H       1  UNL1        0.0581
     81 H           9.7807    6.5104    0.2297 H       1  UNL1        0.0581
     82 H           9.3530    5.9845    2.5862 H       1  UNL1        0.0601
     83 H           8.5795    4.3460    3.8373 H       1  UNL1        0.0391
     84 H           8.9817    2.6687    3.3899 H       1  UNL1        0.0391
     85 H           9.9855    3.5816    4.6260 H       1  UNL1        0.0391
     86 H          10.4528    2.4652    1.3081 H       1  UNL1        0.0391
     87 H          11.7562    3.7506    1.2452 H       1  UNL1        0.0391
     88 H          11.5940    2.5876    2.6519 H       1  UNL1        0.0391
     89 H           6.2064    3.9718    0.2817 H       1  UNL1        0.0740
     90 H           4.9621    4.3258    2.1176 H       1  UNL1        0.0343
     91 H           5.1730    2.6107    2.8183 H       1  UNL1        0.0343
     92 H           3.9174    3.4128    0.1960 H       1  UNL1        0.0573
     93 H           3.4602    1.3881    2.2302 H       1  UNL1        0.0615
     94 H           1.6417    0.0393    1.5965 H       1  UNL1        0.0620
     95 H           1.8335    2.1060   -0.7356 H       1  UNL1        0.0689
     96 H          -1.4376    0.3880   -2.6687 H       1  UNL1        0.0740
     97 H          -1.3232   -1.9604   -3.2211 H       1  UNL1        0.0343
     98 H           0.1541   -1.0096   -3.4255 H       1  UNL1        0.0343
     99 H           0.8450   -1.7257   -1.3130 H       1  UNL1        0.0571
    100 H          -0.9393   -3.9999   -2.5286 H       1  UNL1        0.0594
    101 H           0.5035   -5.7920   -1.9729 H       1  UNL1        0.0640
    102 H          -1.5788   -6.6560   -2.0591 H       1  UNL1        0.0524
    103 H          -0.5602   -7.5186   -0.7710 H       1  UNL1        0.0524
    104 H          -2.2334   -7.0332   -0.4465 H       1  UNL1        0.0524
    105 H           1.6302   -5.9076    0.1659 H       1  UNL1        0.0296
    106 H           1.1836   -4.2245    0.6173 H       1  UNL1        0.0296
    107 H           2.3646   -3.4452   -1.5442 H       1  UNL1        0.0302
    108 H           4.1314   -5.0621   -2.2999 H       1  UNL1        0.0233
    109 H           3.1070   -6.3819   -1.5289 H       1  UNL1        0.0233
    110 H           2.4447   -5.3357   -2.8071 H       1  UNL1        0.0233
    111 H           4.1450   -4.7889    0.5269 H       1  UNL1        0.0310
    112 H           3.3919   -3.1609    0.7236 H       1  UNL1        0.0310
    113 H           4.3628   -2.4811   -1.2992 H       1  UNL1        0.0572
    114 H           7.1418   -5.4189   -1.1265 H       1  UNL1        0.0275
    115 H           7.7669   -4.4637    0.2463 H       1  UNL1        0.0275
    116 H           6.1640   -5.2588    0.4316 H       1  UNL1        0.0275
    117 H           7.4547   -3.6574   -2.5514 H       1  UNL1        0.0643
    118 H           5.6632   -1.9477   -4.7342 H       1  UNL1        0.0524
    119 H           7.3460   -2.3912   -4.4582 H       1  UNL1        0.0524
    120 H           6.0539   -3.6046   -4.1821 H       1  UNL1        0.0524
    121 H           8.8300   -1.8841   -2.1455 H       1  UNL1        0.0293
    122 H           8.7272   -2.7563   -0.6180 H       1  UNL1        0.0293
    123 H           7.4818   -0.1444   -1.5524 H       1  UNL1        0.0270
    124 H           8.7973   -0.3024   -0.3122 H       1  UNL1        0.0270
    125 H           5.8105   -0.7586    0.0475 H       1  UNL1        0.0323
    126 H           7.3953   -1.2108    2.4783 H       1  UNL1        0.0233
    127 H           6.1128   -2.2225    1.6525 H       1  UNL1        0.0233
    128 H           7.8213   -2.3612    1.1511 H       1  UNL1        0.0233
    129 H           6.3912    0.6971    2.0747 H       1  UNL1        0.0600
    130 H           8.4801    0.4739    2.2936 H       1  UNL1        0.2098
    131 H           5.4094    1.7458   -0.1320 H       1  UNL1        0.0359
    132 H           6.8422    1.9488   -1.9213 H       1  UNL1        0.0234
    133 H           7.3758    3.3512   -1.0341 H       1  UNL1        0.0234
    134 H           8.3430    1.8936   -0.9061 H       1  UNL1        0.0234
    135 H          -3.0679   -1.3547   -1.8469 H       1  UNL1        0.0359
    136 H          -0.9219   -1.8440    0.2456 H       1  UNL1        0.0234
    137 H          -2.3467   -2.8670   -0.3312 H       1  UNL1        0.0234
    138 H          -2.5312   -1.6452    0.9109 H       1  UNL1        0.0234
    139 H          -3.9721   -0.2819    0.0910 H       1  UNL1        0.0600
    140 H          -2.8272    1.1113    1.3142 H       1  UNL1        0.2098
    141 H          -2.9489    2.0147   -1.7134 H       1  UNL1        0.0323
    142 H          -3.7565    0.6003   -3.3136 H       1  UNL1        0.0233
    143 H          -4.7648   -0.3499   -2.1600 H       1  UNL1        0.0233
    144 H          -5.2661    1.3206   -2.7619 H       1  UNL1        0.0233
    145 H          -4.9931    3.0521   -1.0629 H       1  UNL1        0.0270
    146 H          -4.2015    2.4389    0.4124 H       1  UNL1        0.0270
    147 H          -5.4433    0.5508    0.5907 H       1  UNL1        0.0301
    148 H          -6.1240    0.6155   -1.0622 H       1  UNL1        0.0301
    149 H          -6.4973    2.4933    1.3271 H       1  UNL1        0.0738
    150 H          -8.5717    5.1231   -2.3622 H       1  UNL1        0.0575
    151 H         -11.2559    4.2420   -1.8530 H       1  UNL1        0.0250
    152 H         -10.5359    5.8692   -1.3912 H       1  UNL1        0.0250
    153 H         -10.4523    4.4883   -0.2192 H       1  UNL1        0.0250
    154 H          -9.5898    1.1448   -2.4597 H       1  UNL1        0.0391
    155 H         -10.1647    2.1837   -1.1013 H       1  UNL1        0.0391
    156 H         -11.1051    2.1169   -2.6219 H       1  UNL1        0.0391
    157 H          -9.0979    3.3944   -4.8222 H       1  UNL1        0.0391
    158 H          -9.9387    4.7776   -4.0393 H       1  UNL1        0.0391
    159 H         -10.8172    3.1734   -4.2751 H       1  UNL1        0.0391
    160 H          -8.7434    1.7040    1.6463 H       1  UNL1        0.0370
    161 H          -7.8409   -0.1449    3.1073 H       1  UNL1        0.0235
    162 H          -6.1936    0.1682    2.2879 H       1  UNL1        0.0235
    163 H          -7.0659    1.4295    3.1390 H       1  UNL1        0.0235
    164 H          -9.0516    0.1047   -0.4051 H       1  UNL1        0.0743
    165 H         -11.6509   -2.3661    2.1868 H       1  UNL1        0.0342
    166 H         -12.1885   -0.7334    2.7130 H       1  UNL1        0.0342
    167 H         -12.8599   -1.4858    1.1967 H       1  UNL1        0.0342
    168 H          -6.6763   -1.2424   -0.0976 H       1  UNL1        0.0377
    169 H          -9.4173   -2.4511   -0.1849 H       1  UNL1        0.0237
    170 H          -8.3845   -1.9424   -1.5891 H       1  UNL1        0.0237
    171 H          -7.8646   -3.3388   -0.4781 H       1  UNL1        0.0237
    172 H          -8.5614   -2.2318    1.9122 H       1  UNL1        0.0588
    173 H          -5.6514   -2.3319    1.9886 H       1  UNL1        0.0781
    174 H          -7.9468   -2.5627    5.5020 H       1  UNL1        0.0432
    175 H          -6.5641   -3.7016    5.6258 H       1  UNL1        0.0432
    176 H          -6.3347   -1.9691    5.0820 H       1  UNL1        0.0432
    177 H          -8.2986   -4.8744    2.4517 H       1  UNL1        0.1257
@<TRIPOS>BOND
     1     1     2    1
     2     2     3    1
     3     3     4    1
     4     4     5    1
     5     5     6    1
     6     5     7    1
     7     4     8    1
     8     8     9    2
     9     8    10    1
    10    10    11    1
    11    11    12    1
    12    12    13    1
    13    13    14    2
    14    14    15    1
    15    15    16    2
    16    16    17    1
    17    17    18    2
    18    17    19    1
    19    19    20    1
    20    20    21    1
    21    21    22    1
    22    22    23    2
    23    23    24    1
    24    24    25    1
    25    25    26    1
    26    24    27    1
    27    27    28    1
    28    28    29    1
    29    28    30    1
    30    30    31    1
    31    31    32    2
    32    32    33    1
    33    32    34    1
    34    34    35    1
    35    35    36    1
    36    34    37    1
    37    37    38    1
    38    38    39    1
    39    39    40    1
    40    39    41    1
    41    41    42    1
    42    41    43    1
    43    43    44    1
    44    20    45    1
    45    45    46    1
    46    45    47    1
    47    47    48    1
    48    47    49    1
    49    49    50    1
    50    49    51    1
    51    51    52    1
    52    52    53    1
    53    53    54    1
    54    54    55    1
    55    55    56    2
    56    55    57    1
    57    57    58    1
    58    57    59    1
    59    59    60    1
    60    59    61    1
    61    53    62    1
    62    62    63    1
    63    62    64    1
    64    64    65    1
    65    65    66    1
    66    66    67    1
    67    66    68    2
    68    64    69    1
    69    69    70    1
    70    69    71    1
    71    71    72    2
    72    72    73    1
    73    73    74    1
    74    73    75   am
    75    75    76    2
    76    43    11    1
    77     1    77    1
    78     1    78    1
    79     1    79    1
    80     3    80    1
    81     3    81    1
    82     4    82    1
    83     6    83    1
    84     6    84    1
    85     6    85    1
    86     7    86    1
    87     7    87    1
    88     7    88    1
    89    11    89    1
    90    12    90    1
    91    12    91    1
    92    13    92    1
    93    14    93    1
    94    15    94    1
    95    16    95    1
    96    20    96    1
    97    21    97    1
    98    21    98    1
    99    22    99    1
   100    23   100    1
   101    24   101    1
   102    26   102    1
   103    26   103    1
   104    26   104    1
   105    27   105    1
   106    27   106    1
   107    28   107    1
   108    29   108    1
   109    29   109    1
   110    29   110    1
   111    30   111    1
   112    30   112    1
   113    31   113    1
   114    33   114    1
   115    33   115    1
   116    33   116    1
   117    34   117    1
   118    36   118    1
   119    36   119    1
   120    36   120    1
   121    37   121    1
   122    37   122    1
   123    38   123    1
   124    38   124    1
   125    39   125    1
   126    40   126    1
   127    40   127    1
   128    40   128    1
   129    41   129    1
   130    42   130    1
   131    43   131    1
   132    44   132    1
   133    44   133    1
   134    44   134    1
   135    45   135    1
   136    46   136    1
   137    46   137    1
   138    46   138    1
   139    47   139    1
   140    48   140    1
   141    49   141    1
   142    50   142    1
   143    50   143    1
   144    50   144    1
   145    51   145    1
   146    51   146    1
   147    52   147    1
   148    52   148    1
   149    53   149    1
   150    57   150    1
   151    58   151    1
   152    58   152    1
   153    58   153    1
   154    60   154    1
   155    60   155    1
   156    60   156    1
   157    61   157    1
   158    61   158    1
   159    61   159    1
   160    62   160    1
   161    63   161    1
   162    63   162    1
   163    63   163    1
   164    64   164    1
   165    67   165    1
   166    67   166    1
   167    67   167    1
   168    69   168    1
   169    70   169    1
   170    70   170    1
   171    70   171    1
   172    71   172    1
   173    72   173    1
   174    74   174    1
   175    74   175    1
   176    74   176    1
   177    75   177    1
