@<TRIPOS>MOLECULE
*****
 48 51 0 0 0
SMALL
GASTEIGER

@<TRIPOS>ATOM
      1 CA         -3.4718   -0.2810   -1.4393 C.3     1  UNL1        0.0718
      2 C          -3.4261    0.4464   -2.7422 C.3     1  UNL1        0.0667
      3 O          -2.3445   -0.0113   -3.4808 O.3     1  UNL1       -0.3928
      4 N          -2.2449   -0.0272   -0.7288 N.am    1  UNL1       -0.3011
      5 C          -1.2366   -0.9397   -0.3638 C.2     1  UNL1        0.2609
      6 O          -1.4043   -2.1393   -0.6884 O.2     1  UNL1       -0.2686
      7 CA         -0.0424   -0.5322    0.3592 C.ar    1  UNL1        0.1024
      8 C           0.9751   -1.3822    0.7432 C.ar    1  UNL1       -0.0226
      9 C           1.9309   -0.6132    1.4067 C.ar    1  UNL1        0.0207
     10 C           1.4574    0.6726    1.4000 C.ar    1  UNL1        0.0116
     11 N           0.2702    0.7008    0.7658 N.ar    1  UNL1       -0.3565
     12 C           3.1328   -1.2739    1.9266 C.ar    1  UNL1        0.1016
     13 N           3.0427   -2.2482    2.8774 N.ar    1  UNL1       -0.1732
     14 N           4.2437   -2.6842    3.1805 N.ar    1  UNL1       -0.2835
     15 C           5.1526   -2.0050    2.4343 C.ar    1  UNL1        0.0306
     16 C           4.4850   -1.0983    1.6235 C.ar    1  UNL1        0.0273
     17 C           4.9364   -0.1243    0.6368 C.ar    1  UNL1       -0.0130
     18 C           4.4452   -0.4241   -0.6283 C.ar    1  UNL1       -0.0538
     19 C           4.7343    0.3535   -1.7347 C.ar    1  UNL1       -0.0598
     20 C           5.5399    1.4635   -1.5635 C.ar    1  UNL1       -0.0434
     21 C           6.0305    1.7660   -0.3098 C.ar    1  UNL1        0.0416
     22 CL          7.0594    3.1567   -0.0085 Cl      1  UNL1       -0.0835
     23 C           5.7389    0.9878    0.7878 C.ar    1  UNL1       -0.0356
     24 C          -4.6923   -0.0012   -0.6607 C.ar    1  UNL1       -0.0235
     25 C          -4.8696    1.1394    0.1024 C.ar    1  UNL1       -0.0356
     26 C          -6.0271    1.3638    0.8172 C.ar    1  UNL1        0.0764
     27 CL         -6.2729    2.8058    1.7925 Cl      1  UNL1       -0.0806
     28 C          -7.0745    0.4641    0.8124 C.ar    1  UNL1        0.1416
     29 F          -8.2240    0.6180    1.4818 F       1  UNL1       -0.2040
     30 C          -6.9301   -0.6787    0.0645 C.ar    1  UNL1       -0.0247
     31 C          -5.7627   -0.8823   -0.6430 C.ar    1  UNL1       -0.0539
     32 HA         -3.4814   -1.3873   -1.6640 H       1  UNL1        0.0571
     33 H1         -4.3873    0.3639   -3.3123 H       1  UNL1        0.0579
     34 H2         -3.2054    1.5320   -2.5388 H       1  UNL1        0.0579
     35 H          -2.0566    0.6248   -4.1840 H       1  UNL1        0.2095
     36 H          -2.1489    1.0013   -0.4765 H       1  UNL1        0.1497
     37 H           0.9764   -2.4627    0.5352 H       1  UNL1        0.0647
     38 H           2.0463    1.4512    1.8677 H       1  UNL1        0.0813
     39 H          -0.2888    1.5851    0.6355 H       1  UNL1        0.1655
     40 H           4.5363   -3.4309    3.8737 H       1  UNL1        0.1882
     41 H           6.2392   -2.0783    2.3977 H       1  UNL1        0.0830
     42 H           3.7980   -1.2728   -0.8966 H       1  UNL1        0.0624
     43 H           4.3746    0.1582   -2.7360 H       1  UNL1        0.0618
     44 H           5.7873    2.0947   -2.4042 H       1  UNL1        0.0632
     45 H           6.0618    1.1228    1.8110 H       1  UNL1        0.0638
     46 H          -4.0681    1.8664    0.1289 H       1  UNL1        0.0636
     47 H          -7.6927   -1.4677   -0.0182 H       1  UNL1        0.0647
     48 H          -5.6418   -1.7887   -1.2394 H       1  UNL1        0.0622
@<TRIPOS>BOND
     1     1     2    1
     2     2     3    1
     3     1     4    1
     4     4     5   am
     5     5     6    2
     6     5     7    1
     7     7     8   ar
     8     8     9   ar
     9     9    10   ar
    10    10    11   ar
    11     9    12    1
    12    12    13   ar
    13    13    14   ar
    14    14    15   ar
    15    15    16   ar
    16    16    17    1
    17    17    18   ar
    18    18    19   ar
    19    19    20   ar
    20    20    21   ar
    21    21    22    1
    22    21    23   ar
    23     1    24    1
    24    24    25   ar
    25    25    26   ar
    26    26    27    1
    27    26    28   ar
    28    28    29    1
    29    28    30   ar
    30    30    31   ar
    31    11     7   ar
    32    16    12   ar
    33    23    17   ar
    34    31    24   ar
    35     1    32    1
    36     2    33    1
    37     2    34    1
    38     3    35    1
    39     4    36    1
    40     8    37    1
    41    10    38    1
    42    11    39    1
    43    14    40    1
    44    15    41    1
    45    18    42    1
    46    19    43    1
    47    20    44    1
    48    23    45    1
    49    25    46    1
    50    30    47    1
    51    31    48    1
