@<TRIPOS>MOLECULE
*****
 58 61 0 0 0
SMALL
GASTEIGER

@<TRIPOS>ATOM
      1 C           5.4077    2.5786   -1.8101 C.3     1  UNL1        0.0790
      2 O           4.4206    1.6967   -1.3801 O.3     1  UNL1       -0.4914
      3 C           4.6682    0.5003   -0.7240 C.ar    1  UNL1        0.1622
      4 C           5.9686    0.1474   -0.4750 C.ar    1  UNL1       -0.0058
      5 C           6.2093   -1.0548    0.1824 C.ar    1  UNL1        0.0208
      6 C           7.5716   -1.4772    0.4891 C.2     1  UNL1        0.1602
      7 C           8.7323   -0.6152    0.1212 C.3     1  UNL1       -0.0014
      8 O           7.8185   -2.5639    1.0659 O.2     1  UNL1       -0.2924
      9 C           5.1802   -1.8775    0.5767 C.ar    1  UNL1       -0.0476
     10 C           3.8693   -1.4697    0.2969 C.ar    1  UNL1       -0.0156
     11 C           3.5726   -0.3011   -0.3426 C.ar    1  UNL1        0.1619
     12 O           2.3367    0.1617   -0.6376 O.3     1  UNL1       -0.4883
     13 C           1.0874   -0.3879   -0.3252 C.3     1  UNL1        0.0909
     14 C           0.8142   -0.4152    1.1498 C.3     1  UNL1       -0.0058
     15 C          -0.4603   -1.0158    1.5705 C.3     1  UNL1        0.0020
     16 N          -1.6959   -0.5198    1.1885 N.3     1  UNL1       -0.3022
     17 C          -2.2161   -0.6264   -0.0947 C.3     1  UNL1       -0.0005
     18 C          -2.5522    0.7128   -0.6818 C.3     1  UNL1       -0.0318
     19 C          -3.6394    1.3286    0.1923 C.3     1  UNL1        0.0075
     20 C          -4.7622    0.3853    0.3906 C.ar    1  UNL1        0.0945
     21 N          -4.9172   -0.5346    1.3721 N.ar    1  UNL1       -0.0818
     22 O          -6.0368   -1.1694    1.2180 O.2     1  UNL1       -0.3543
     23 C          -6.6914   -0.7346    0.1570 C.ar    1  UNL1        0.1702
     24 C          -7.9185   -1.1027   -0.4052 C.ar    1  UNL1        0.0192
     25 C          -8.3810   -0.4740   -1.5404 C.ar    1  UNL1        0.1270
     26 F          -9.5653   -0.7939   -2.1214 F       1  UNL1       -0.2054
     27 C          -7.5842    0.5133   -2.0763 C.ar    1  UNL1       -0.0256
     28 C          -6.3758    0.8728   -1.5200 C.ar    1  UNL1       -0.0464
     29 C          -5.8967    0.2544   -0.3831 C.ar    1  UNL1        0.0447
     30 C          -2.9717    1.5868    1.5302 C.3     1  UNL1       -0.0318
     31 C          -2.3189    0.3922    2.0984 C.3     1  UNL1       -0.0005
     32 H           5.7926    2.2302   -2.8007 H       1  UNL1        0.0660
     33 H           4.9903    3.5984   -1.9697 H       1  UNL1        0.0660
     34 H           6.2543    2.6885   -1.1005 H       1  UNL1        0.0660
     35 H           6.8107    0.7561   -0.7635 H       1  UNL1        0.0662
     36 H           8.7105   -0.4300   -0.9584 H       1  UNL1        0.0309
     37 H           8.5843    0.3597    0.6592 H       1  UNL1        0.0309
     38 H           9.6931   -1.0851    0.4218 H       1  UNL1        0.0309
     39 H           5.4241   -2.7936    1.0816 H       1  UNL1        0.0626
     40 H           3.1129   -2.1807    0.6102 H       1  UNL1        0.0655
     41 H           0.2768    0.1271   -0.8949 H       1  UNL1        0.0697
     42 H           1.0463   -1.4651   -0.6572 H       1  UNL1        0.0697
     43 H           1.6723   -0.8864    1.6677 H       1  UNL1        0.0310
     44 H           0.8749    0.6874    1.4516 H       1  UNL1        0.0310
     45 H          -0.4299   -2.1202    1.2607 H       1  UNL1        0.0428
     46 H          -0.4295   -1.1268    2.7094 H       1  UNL1        0.0428
     47 H          -3.1917   -1.2426   -0.0248 H       1  UNL1        0.0427
     48 H          -1.5577   -1.1942   -0.7671 H       1  UNL1        0.0427
     49 H          -1.6799    1.3871   -0.5597 H       1  UNL1        0.0284
     50 H          -2.8820    0.6462   -1.7384 H       1  UNL1        0.0284
     51 H          -3.9406    2.2777   -0.2540 H       1  UNL1        0.0366
     52 H          -8.5140   -1.8782    0.0414 H       1  UNL1        0.0684
     53 H          -7.9258    1.0226   -2.9664 H       1  UNL1        0.0646
     54 H          -5.7492    1.6575   -1.9515 H       1  UNL1        0.0626
     55 H          -3.7754    1.9470    2.2129 H       1  UNL1        0.0284
     56 H          -2.3051    2.4637    1.3786 H       1  UNL1        0.0284
     57 H          -1.5123    0.7322    2.8158 H       1  UNL1        0.0427
     58 H          -3.0235   -0.1754    2.7347 H       1  UNL1        0.0427
@<TRIPOS>BOND
     1     1     2    1
     2     2     3    1
     3     3     4   ar
     4     4     5   ar
     5     5     6    1
     6     6     7    1
     7     6     8    2
     8     5     9   ar
     9     9    10   ar
    10    10    11   ar
    11    11    12    1
    12    12    13    1
    13    13    14    1
    14    14    15    1
    15    15    16    1
    16    16    17    1
    17    17    18    1
    18    18    19    1
    19    19    20    1
    20    20    21   ar
    21    21    22   ar
    22    22    23   ar
    23    23    24   ar
    24    24    25   ar
    25    25    26    1
    26    25    27   ar
    27    27    28   ar
    28    28    29   ar
    29    19    30    1
    30    30    31    1
    31    11     3   ar
    32    31    16    1
    33    29    20   ar
    34    29    23   ar
    35     1    32    1
    36     1    33    1
    37     1    34    1
    38     4    35    1
    39     7    36    1
    40     7    37    1
    41     7    38    1
    42     9    39    1
    43    10    40    1
    44    13    41    1
    45    13    42    1
    46    14    43    1
    47    14    44    1
    48    15    45    1
    49    15    46    1
    50    17    47    1
    51    17    48    1
    52    18    49    1
    53    18    50    1
    54    19    51    1
    55    24    52    1
    56    27    53    1
    57    28    54    1
    58    30    55    1
    59    30    56    1
    60    31    57    1
    61    31    58    1
