@<TRIPOS>MOLECULE
*****
 57 62 0 0 0
SMALL
GASTEIGER

@<TRIPOS>ATOM
      1 C           0.6954    0.5347   -0.1367 C.3     1  UNL1       -0.0382
      2 C           0.4222   -0.8203   -0.7272 C.3     1  UNL1        0.0814
      3 C          -1.0046   -0.9799   -1.1432 C.ar    1  UNL1        0.0126
      4 C          -2.0251   -0.1844   -0.6901 C.ar    1  UNL1       -0.0446
      5 C          -3.3271   -0.3760   -1.1044 C.ar    1  UNL1        0.0015
      6 C          -4.2963    0.4770   -0.5921 C.ar    1  UNL1       -0.0433
      7 C          -5.5988    0.2896   -1.0014 C.ar    1  UNL1        0.0038
      8 C          -6.6996    1.1425   -0.5129 C.ar    1  UNL1        0.0210
      9 C          -7.8390    1.4673   -1.2385 C.ar    1  UNL1        0.0571
     10 N          -8.6226    2.2571   -0.4844 N.ar    1  UNL1       -0.1793
     11 N          -8.0103    2.4369    0.6894 N.ar    1  UNL1       -0.2739
     12 C          -8.5855    3.2438    1.7463 C.3     1  UNL1        0.0302
     13 C          -6.8430    1.7690    0.6912 C.ar    1  UNL1        0.0329
     14 C          -5.8451   -0.7374   -1.8951 C.ar    1  UNL1        0.0361
     15 N          -4.8861   -1.5483   -2.3746 N.ar    1  UNL1       -0.2543
     16 C          -3.6140   -1.3887   -1.9940 C.ar    1  UNL1        0.0737
     17 C          -2.5937   -2.2166   -2.4738 C.ar    1  UNL1       -0.0001
     18 C          -1.3048   -1.9900   -2.0331 C.ar    1  UNL1        0.1306
     19 F          -0.3026   -2.7886   -2.4922 F       1  UNL1       -0.2051
     20 N           0.8501   -1.9096    0.1136 N.ar    1  UNL1       -0.2179
     21 N           0.0783   -2.8756    0.5667 N.ar    1  UNL1       -0.0611
     22 N           0.7298   -3.7282    1.3062 N.ar    1  UNL1       -0.1076
     23 C           2.0124   -3.2978    1.3436 C.ar    1  UNL1        0.2206
     24 N           3.1404   -3.7262    1.9192 N.ar    1  UNL1       -0.2295
     25 C           4.2903   -3.0540    1.7602 C.ar    1  UNL1        0.0562
     26 C           4.3758   -1.9085    1.0114 C.ar    1  UNL1        0.0945
     27 C           5.6191   -1.1689    0.8306 C.ar    1  UNL1        0.0393
     28 C           6.8354   -1.4754    1.3468 C.ar    1  UNL1        0.0586
     29 N           7.6996   -0.5317    0.9313 N.ar    1  UNL1       -0.1789
     30 N           7.0673    0.3481    0.1778 N.ar    1  UNL1       -0.2686
     31 C           7.7041    1.4997   -0.4352 C.3     1  UNL1        0.0646
     32 C           7.6231    2.6739    0.5233 C.3     1  UNL1        0.0637
     33 O           8.2671    2.3830    1.7195 O.3     1  UNL1       -0.3932
     34 C           5.7885   -0.0154    0.0969 C.ar    1  UNL1        0.0348
     35 N           3.2266   -1.4806    0.4308 N.ar    1  UNL1       -0.2232
     36 C           2.0761   -2.1478    0.5863 C.ar    1  UNL1        0.1989
     37 H           0.4840    0.5930    0.9433 H       1  UNL1        0.0253
     38 H           0.1141    1.2734   -0.7333 H       1  UNL1        0.0253
     39 H           1.7658    0.7704   -0.3176 H       1  UNL1        0.0253
     40 H           1.0466   -0.8840   -1.6648 H       1  UNL1        0.0594
     41 H          -1.8057    0.6044    0.0017 H       1  UNL1        0.0628
     42 H          -4.0450    1.2641    0.1048 H       1  UNL1        0.0631
     43 H          -8.0559    1.1402   -2.2372 H       1  UNL1        0.0854
     44 H          -9.2975    3.9687    1.3426 H       1  UNL1        0.0473
     45 H          -7.8178    3.8016    2.3203 H       1  UNL1        0.0473
     46 H          -9.1658    2.5465    2.4024 H       1  UNL1        0.0473
     47 H          -6.1396    1.7367    1.5108 H       1  UNL1        0.0832
     48 H          -6.8986   -0.8484   -2.1933 H       1  UNL1        0.0836
     49 H          -2.8327   -3.0022   -3.1669 H       1  UNL1        0.0668
     50 H           5.1759   -3.4352    2.2421 H       1  UNL1        0.0852
     51 H           7.1197   -2.3053    1.9784 H       1  UNL1        0.0854
     52 H           8.7505    1.2938   -0.6687 H       1  UNL1        0.0531
     53 H           7.1550    1.7685   -1.3415 H       1  UNL1        0.0531
     54 H           8.1003    3.5665    0.0779 H       1  UNL1        0.0575
     55 H           6.5634    2.9407    0.7330 H       1  UNL1        0.0575
     56 H           7.6497    2.5043    2.4849 H       1  UNL1        0.2095
     57 H           5.0305    0.5295   -0.4626 H       1  UNL1        0.0833
@<TRIPOS>BOND
     1     1     2    1
     2     2     3    1
     3     3     4   ar
     4     4     5   ar
     5     5     6   ar
     6     6     7   ar
     7     7     8    1
     8     8     9   ar
     9     9    10   ar
    10    10    11   ar
    11    11    12    1
    12    11    13   ar
    13     7    14   ar
    14    14    15   ar
    15    15    16   ar
    16    16    17   ar
    17    17    18   ar
    18    18    19    1
    19     2    20    1
    20    20    21   ar
    21    21    22   ar
    22    22    23   ar
    23    23    24   ar
    24    24    25   ar
    25    25    26   ar
    26    26    27    1
    27    27    28   ar
    28    28    29   ar
    29    29    30   ar
    30    30    31    1
    31    31    32    1
    32    32    33    1
    33    30    34   ar
    34    26    35   ar
    35    35    36   ar
    36    18     3   ar
    37    36    20   ar
    38    16     5   ar
    39    36    23   ar
    40    13     8   ar
    41    34    27   ar
    42     1    37    1
    43     1    38    1
    44     1    39    1
    45     2    40    1
    46     4    41    1
    47     6    42    1
    48     9    43    1
    49    12    44    1
    50    12    45    1
    51    12    46    1
    52    13    47    1
    53    14    48    1
    54    17    49    1
    55    25    50    1
    56    28    51    1
    57    31    52    1
    58    31    53    1
    59    32    54    1
    60    32    55    1
    61    33    56    1
    62    34    57    1
