@<TRIPOS>MOLECULE
*****
 20 19 0 0 0
SMALL
GASTEIGER

@<TRIPOS>ATOM
      1 N1         -1.7825   -0.0240   -1.7092 N.3     1  <1>        -0.3178
      2 C1         -1.0484   -0.2112   -0.4799 C.3     1  <1>         0.1123
      3 C2         -0.0855    0.9484   -0.2673 C.3     1  <1>         0.0198
      4 S1          0.8110    0.6347    1.2940 S.3     1  <1>        -0.1474
      5 C3          1.8385   -0.8356    1.0338 C.3     1  <1>         0.0910
      6 C4          2.8610   -0.4560    0.0184 C.2     1  <1>         0.3147
      7 O1          3.7682   -0.2046   -0.9819 O.3     1  <1>        -0.4800
      8 O2          3.3006    0.5882    0.5990 O.2     1  <1>        -0.2501
      9 C5         -2.0013   -0.2298    0.6708 C.2     1  <1>         0.3225
     10 O3         -3.3777    0.0287    0.5994 O.3     1  <1>        -0.4795
     11 O4         -2.0622   -0.4286    1.9337 O.2     1  <1>        -0.2492
     12 H1         -2.3661    0.8439   -1.6275 H       1  <1>         0.1190
     13 H2         -2.4433   -0.8515   -1.8141 H       1  <1>         0.1190
     14 H3         -0.4795   -1.1429   -0.4675 H       1  <1>         0.0582
     15 H4          0.5746    1.0335   -1.1255 H       1  <1>         0.0397
     16 H5         -0.7397    1.8579   -0.1773 H       1  <1>         0.0397
     17 H6          1.1891   -1.6654    0.6551 H       1  <1>         0.0490
     18 H7          2.3119   -1.1396    1.9745 H       1  <1>         0.0490
     19 H8          3.5452    0.3809   -1.7844 H       1  <1>         0.2951
     20 H9         -3.8137    0.8729    1.0050 H       1  <1>         0.2951
@<TRIPOS>BOND
     1     1     2    1
     2     2     3    1
     3     3     4    1
     4     4     5    1
     5     5     6    1
     6     6     7    1
     7     6     8    2
     8     2     9    1
     9     9    10    1
    10     9    11    2
    11     1    12    1
    12     1    13    1
    13     2    14    1
    14     3    15    1
    15     3    16    1
    16     5    17    1
    17     5    18    1
    18     7    19    1
    19    10    20    1
