@<TRIPOS>MOLECULE
*****
 49 52 0 0 0
SMALL
GASTEIGER

@<TRIPOS>ATOM
      1 N           8.0466    0.0587    0.7032 N.pl3   1  UNL1       -0.2466
      2 C           7.1092   -0.4466   -0.2408 C.2     1  UNL1        0.3081
      3 N           7.5356   -1.4123   -0.9836 N.2     1  UNL1       -0.0994
      4 C           5.7878    0.1662   -0.2720 C.ar    1  UNL1        0.0647
      5 C           5.0891    0.1998   -1.4715 C.ar    1  UNL1       -0.0466
      6 C           3.8486    0.7764   -1.4955 C.ar    1  UNL1       -0.0563
      7 C           3.2607    1.3254   -0.3838 C.ar    1  UNL1       -0.0301
      8 C           1.9310    1.9726   -0.2912 C.3     1  UNL1        0.0398
      9 N           0.9629    0.9433    0.0363 N.am    1  UNL1       -0.2948
     10 C           0.6347    0.6055    1.4109 C.3     1  UNL1        0.0295
     11 C          -0.7893    0.0862    1.3890 C.3     1  UNL1        0.0368
     12 N          -0.8062   -1.1341    0.6397 N.3     1  UNL1       -0.1658
     13 C          -0.5904   -0.9218   -0.7761 C.3     1  UNL1        0.0971
     14 C           0.3085    0.2362   -1.0118 C.2     1  UNL1        0.2317
     15 O           0.4308    0.5249   -2.2212 O.2     1  UNL1       -0.2741
     16 S          -2.1264   -2.1462    0.9740 S.O2    1  UNL1        0.0676
     17 O          -2.0480   -2.5214    2.4471 O.2     1  UNL1       -0.1523
     18 O          -2.0209   -3.3706    0.1190 O.2     1  UNL1       -0.1523
     19 C          -3.6431   -1.4105    0.6010 C.ar    1  UNL1        0.1438
     20 C          -4.6668   -1.7041   -0.2264 C.ar    1  UNL1       -0.0203
     21 C          -5.7804   -0.9190   -0.3218 C.ar    1  UNL1       -0.0088
     22 C          -5.7778    0.2291    0.5162 C.ar    1  UNL1        0.0226
     23 S          -4.1455    0.0963    1.3977 S.2     1  UNL1       -0.0685
     24 C          -6.7883    1.1867    0.6082 C.ar    1  UNL1       -0.0290
     25 C          -7.8894    0.9931   -0.1926 C.ar    1  UNL1        0.0421
     26 CL         -9.1577    2.1681   -0.0966 Cl      1  UNL1       -0.0835
     27 C          -7.8896   -0.1204   -1.0040 C.ar    1  UNL1       -0.0428
     28 C          -6.9018   -1.0713   -1.1048 C.ar    1  UNL1       -0.0521
     29 C           3.9984    1.2696    0.7994 C.ar    1  UNL1       -0.0563
     30 C           5.2478    0.6991    0.8655 C.ar    1  UNL1       -0.0466
     31 H           8.9962    0.3625    0.3643 H       1  UNL1        0.2884
     32 H           8.2177    0.2876    1.7256 H       1  UNL1        0.2884
     33 H           6.9278   -1.8406   -1.6943 H       1  UNL1        0.3633
     34 H           5.5317   -0.2251   -2.3556 H       1  UNL1        0.0626
     35 H           3.2582    0.8301   -2.4061 H       1  UNL1        0.0621
     36 H           1.9420    2.7481    0.4987 H       1  UNL1        0.0514
     37 H           1.6409    2.4548   -1.2615 H       1  UNL1        0.0514
     38 H           0.7408    1.4821    2.0806 H       1  UNL1        0.0478
     39 H           1.2798   -0.2379    1.7622 H       1  UNL1        0.0478
     40 H          -1.2188   -0.0760    2.3916 H       1  UNL1        0.0459
     41 H          -1.3880    0.8748    0.8812 H       1  UNL1        0.0459
     42 H          -0.0816   -1.8202   -1.1824 H       1  UNL1        0.0539
     43 H          -1.5347   -0.7318   -1.3214 H       1  UNL1        0.0539
     44 H          -4.5169   -2.6084   -0.7955 H       1  UNL1        0.0649
     45 H          -6.6116    1.9873    1.2974 H       1  UNL1        0.0643
     46 H          -8.7669   -0.2748   -1.6423 H       1  UNL1        0.0632
     47 H          -7.0093   -1.9084   -1.7791 H       1  UNL1        0.0624
     48 H           3.5913    1.6881    1.7250 H       1  UNL1        0.0621
     49 H           5.8311    0.6491    1.7776 H       1  UNL1        0.0626
@<TRIPOS>BOND
     1     1     2    1
     2     2     3    2
     3     2     4    1
     4     4     5   ar
     5     5     6   ar
     6     6     7   ar
     7     7     8    1
     8     8     9    1
     9     9    10    1
    10    10    11    1
    11    11    12    1
    12    12    13    1
    13    13    14    1
    14    14    15    2
    15    12    16    1
    16    16    17    2
    17    16    18    2
    18    16    19    1
    19    19    20   ar
    20    20    21   ar
    21    21    22   ar
    22    22    23   ar
    23    22    24   ar
    24    24    25   ar
    25    25    26    1
    26    25    27   ar
    27    27    28   ar
    28     7    29   ar
    29    29    30   ar
    30    30     4   ar
    31    14     9   am
    32    23    19   ar
    33    28    21   ar
    34     1    31    1
    35     1    32    1
    36     3    33    1
    37     5    34    1
    38     6    35    1
    39     8    36    1
    40     8    37    1
    41    10    38    1
    42    10    39    1
    43    11    40    1
    44    11    41    1
    45    13    42    1
    46    13    43    1
    47    20    44    1
    48    24    45    1
    49    27    46    1
    50    28    47    1
    51    29    48    1
    52    30    49    1
