@<TRIPOS>MOLECULE
*****
 50 54 0 0 0
SMALL
GASTEIGER

@<TRIPOS>ATOM
      1 CL          8.1918    2.4046   -2.8216 Cl      1  UNL1       -0.0835
      2 C           6.8517    1.7724   -1.8902 C.ar    1  UNL1        0.0410
      3 C           6.0587    2.5603   -1.0816 C.ar    1  UNL1       -0.0427
      4 C           5.0044    2.0434   -0.3532 C.ar    1  UNL1       -0.0497
      5 C           4.7127    0.6994   -0.4179 C.ar    1  UNL1        0.0174
      6 C           3.5947    0.1465    0.3533 C.ar    1  UNL1        0.1358
      7 C           2.7315    0.8181    1.1922 C.ar    1  UNL1       -0.0152
      8 C           1.8538   -0.1296    1.6839 C.ar    1  UNL1       -0.0122
      9 C           2.2116   -1.3257    1.1330 C.ar    1  UNL1        0.1711
     10 C           1.5959   -2.6243    1.3375 C.ar    1  UNL1        0.1811
     11 N           2.1798   -3.7573    1.7665 N.ar    1  UNL1       -0.2328
     12 C           1.2914   -4.7649    1.8332 C.ar    1  UNL1        0.0465
     13 C           0.0920   -4.2262    1.4232 C.ar    1  UNL1        0.0299
     14 N           0.3021   -2.9314    1.1291 N.ar    1  UNL1       -0.2970
     15 C          -0.6860   -2.0177    0.6674 C.ar    1  UNL1        0.0482
     16 C          -0.9180   -1.8380   -0.6790 C.ar    1  UNL1       -0.0361
     17 C          -1.8895   -0.9396   -1.1347 C.ar    1  UNL1       -0.0387
     18 C          -2.6490   -0.2027   -0.2535 C.ar    1  UNL1        0.0299
     19 N          -3.6569    0.7238   -0.6854 N.pl3   1  UNL1       -0.3275
     20 C          -4.3192    1.5370    0.3278 C.3     1  UNL1        0.0248
     21 C          -4.9144    2.7328   -0.3805 C.3     1  UNL1        0.0117
     22 N          -5.9210    2.3532   -1.3483 N.3     1  UNL1       -0.3130
     23 C          -5.5366    1.2502   -2.1645 C.3     1  UNL1        0.0117
     24 C          -4.0651    0.9073   -2.0403 C.3     1  UNL1        0.0248
     25 C          -2.4049   -0.3940    1.0901 C.ar    1  UNL1       -0.0387
     26 C          -1.4428   -1.2832    1.5544 C.ar    1  UNL1       -0.0361
     27 O           3.2408   -1.1000    0.3602 O.2     1  UNL1       -0.4518
     28 C           5.4889   -0.1085   -1.2175 C.ar    1  UNL1       -0.0497
     29 C           6.5524    0.4177   -1.9511 C.ar    1  UNL1       -0.0427
     30 H           6.2752    3.6167   -1.0205 H       1  UNL1        0.0632
     31 H           4.3779    2.6791    0.2885 H       1  UNL1        0.0625
     32 H           2.7546    1.8868    1.4106 H       1  UNL1        0.0656
     33 H           1.0525    0.0614    2.3668 H       1  UNL1        0.0657
     34 H           1.4625   -5.8026    2.1448 H       1  UNL1        0.0845
     35 H          -0.8416   -4.7869    1.3621 H       1  UNL1        0.0829
     36 H          -0.3401   -2.4001   -1.3995 H       1  UNL1        0.0639
     37 H          -2.0499   -0.8170   -2.2034 H       1  UNL1        0.0637
     38 H          -5.1099    0.9406    0.7832 H       1  UNL1        0.0476
     39 H          -3.5866    1.9636    1.0605 H       1  UNL1        0.0476
     40 H          -5.4314    3.3385    0.3934 H       1  UNL1        0.0439
     41 H          -4.1195    3.2954   -0.9048 H       1  UNL1        0.0439
     42 H          -6.8776    2.3374   -0.9833 H       1  UNL1        0.1220
     43 H          -6.0975    0.3431   -1.7925 H       1  UNL1        0.0439
     44 H          -5.8373    1.3664   -3.2216 H       1  UNL1        0.0439
     45 H          -3.5069    1.8016   -2.4457 H       1  UNL1        0.0476
     46 H          -3.7886    0.0704   -2.6930 H       1  UNL1        0.0476
     47 H          -2.9984    0.1808    1.8183 H       1  UNL1        0.0637
     48 H          -1.2841   -1.4019    2.6300 H       1  UNL1        0.0639
     49 H           5.2438   -1.1777   -1.2586 H       1  UNL1        0.0625
     50 H           7.1524   -0.2193   -2.5720 H       1  UNL1        0.0632
@<TRIPOS>BOND
     1     1     2    1
     2     2     3   ar
     3     3     4   ar
     4     4     5   ar
     5     5     6    1
     6     6     7   ar
     7     7     8   ar
     8     8     9   ar
     9     9    10    1
    10    10    11   ar
    11    11    12   ar
    12    12    13   ar
    13    13    14   ar
    14    14    15    1
    15    15    16   ar
    16    16    17   ar
    17    17    18   ar
    18    18    19    1
    19    19    20    1
    20    20    21    1
    21    21    22    1
    22    22    23    1
    23    23    24    1
    24    18    25   ar
    25    25    26   ar
    26     9    27   ar
    27     5    28   ar
    28    28    29   ar
    29    29     2   ar
    30    27     6   ar
    31    14    10   ar
    32    26    15   ar
    33    24    19    1
    34     3    30    1
    35     4    31    1
    36     7    32    1
    37     8    33    1
    38    12    34    1
    39    13    35    1
    40    16    36    1
    41    17    37    1
    42    20    38    1
    43    20    39    1
    44    21    40    1
    45    21    41    1
    46    22    42    1
    47    23    43    1
    48    23    44    1
    49    24    45    1
    50    24    46    1
    51    25    47    1
    52    26    48    1
    53    28    49    1
    54    29    50    1
