
     RDKit          3D

 50 54  0  0  0  0  0  0  0  0999 V2000
    8.1918    2.4046   -2.8216 Cl  0  0  0  0  0  0  0  0  0  0  0  0
    6.8517    1.7724   -1.8902 C   0  0  0  0  0  0  0  0  0  0  0  0
    6.0587    2.5603   -1.0816 C   0  0  0  0  0  0  0  0  0  0  0  0
    5.0044    2.0434   -0.3532 C   0  0  0  0  0  0  0  0  0  0  0  0
    4.7127    0.6994   -0.4179 C   0  0  0  0  0  0  0  0  0  0  0  0
    3.5947    0.1465    0.3533 C   0  0  0  0  0  0  0  0  0  0  0  0
    2.7315    0.8181    1.1922 C   0  0  0  0  0  0  0  0  0  0  0  0
    1.8538   -0.1296    1.6839 C   0  0  0  0  0  0  0  0  0  0  0  0
    2.2116   -1.3257    1.1330 C   0  0  0  0  0  0  0  0  0  0  0  0
    1.5959   -2.6243    1.3375 C   0  0  0  0  0  0  0  0  0  0  0  0
    2.1798   -3.7573    1.7665 N   0  0  0  0  0  0  0  0  0  0  0  0
    1.2914   -4.7649    1.8332 C   0  0  0  0  0  0  0  0  0  0  0  0
    0.0920   -4.2262    1.4232 C   0  0  0  0  0  0  0  0  0  0  0  0
    0.3021   -2.9314    1.1291 N   0  0  0  0  0  0  0  0  0  0  0  0
   -0.6860   -2.0177    0.6674 C   0  0  0  0  0  0  0  0  0  0  0  0
   -0.9180   -1.8380   -0.6790 C   0  0  0  0  0  0  0  0  0  0  0  0
   -1.8895   -0.9396   -1.1347 C   0  0  0  0  0  0  0  0  0  0  0  0
   -2.6490   -0.2027   -0.2535 C   0  0  0  0  0  0  0  0  0  0  0  0
   -3.6569    0.7238   -0.6854 N   0  0  0  0  0  0  0  0  0  0  0  0
   -4.3192    1.5370    0.3278 C   0  0  0  0  0  0  0  0  0  0  0  0
   -4.9144    2.7328   -0.3805 C   0  0  0  0  0  0  0  0  0  0  0  0
   -5.9210    2.3532   -1.3483 N   0  0  0  0  0  0  0  0  0  0  0  0
   -5.5366    1.2502   -2.1645 C   0  0  0  0  0  0  0  0  0  0  0  0
   -4.0651    0.9073   -2.0403 C   0  0  0  0  0  0  0  0  0  0  0  0
   -2.4049   -0.3940    1.0901 C   0  0  0  0  0  0  0  0  0  0  0  0
   -1.4428   -1.2832    1.5544 C   0  0  0  0  0  0  0  0  0  0  0  0
    3.2408   -1.1000    0.3602 O   0  0  0  0  0  0  0  0  0  0  0  0
    5.4889   -0.1085   -1.2175 C   0  0  0  0  0  0  0  0  0  0  0  0
    6.5524    0.4177   -1.9511 C   0  0  0  0  0  0  0  0  0  0  0  0
    6.2752    3.6167   -1.0205 H   0  0  0  0  0  0  0  0  0  0  0  0
    4.3779    2.6791    0.2885 H   0  0  0  0  0  0  0  0  0  0  0  0
    2.7546    1.8868    1.4106 H   0  0  0  0  0  0  0  0  0  0  0  0
    1.0525    0.0614    2.3668 H   0  0  0  0  0  0  0  0  0  0  0  0
    1.4625   -5.8026    2.1448 H   0  0  0  0  0  0  0  0  0  0  0  0
   -0.8416   -4.7869    1.3621 H   0  0  0  0  0  0  0  0  0  0  0  0
   -0.3401   -2.4001   -1.3995 H   0  0  0  0  0  0  0  0  0  0  0  0
   -2.0499   -0.8170   -2.2034 H   0  0  0  0  0  0  0  0  0  0  0  0
   -5.1099    0.9406    0.7832 H   0  0  0  0  0  0  0  0  0  0  0  0
   -3.5866    1.9636    1.0605 H   0  0  0  0  0  0  0  0  0  0  0  0
   -5.4314    3.3385    0.3934 H   0  0  0  0  0  0  0  0  0  0  0  0
   -4.1195    3.2954   -0.9048 H   0  0  0  0  0  0  0  0  0  0  0  0
   -6.8776    2.3374   -0.9833 H   0  0  0  0  0  0  0  0  0  0  0  0
   -6.0975    0.3431   -1.7925 H   0  0  0  0  0  0  0  0  0  0  0  0
   -5.8373    1.3664   -3.2216 H   0  0  0  0  0  0  0  0  0  0  0  0
   -3.5069    1.8016   -2.4457 H   0  0  0  0  0  0  0  0  0  0  0  0
   -3.7886    0.0704   -2.6930 H   0  0  0  0  0  0  0  0  0  0  0  0
   -2.9984    0.1808    1.8183 H   0  0  0  0  0  0  0  0  0  0  0  0
   -1.2841   -1.4019    2.6300 H   0  0  0  0  0  0  0  0  0  0  0  0
    5.2438   -1.1777   -1.2586 H   0  0  0  0  0  0  0  0  0  0  0  0
    7.1524   -0.2193   -2.5720 H   0  0  0  0  0  0  0  0  0  0  0  0
  1  2  1  0
  2  3  2  0
  3  4  1  0
  4  5  2  0
  5  6  1  0
  6  7  2  0
  7  8  1  0
  8  9  2  0
  9 10  1  0
 10 11  2  0
 11 12  1  0
 12 13  2  0
 13 14  1  0
 14 15  1  0
 15 16  2  0
 16 17  1  0
 17 18  2  0
 18 19  1  0
 19 20  1  0
 20 21  1  0
 21 22  1  0
 22 23  1  0
 23 24  1  0
 18 25  1  0
 25 26  2  0
  9 27  1  0
  5 28  1  0
 28 29  2  0
 29  2  1  0
 27  6  1  0
 14 10  1  0
 26 15  1  0
 24 19  1  0
  3 30  1  0
  4 31  1  0
  7 32  1  0
  8 33  1  0
 12 34  1  0
 13 35  1  0
 16 36  1  0
 17 37  1  0
 20 38  1  0
 20 39  1  0
 21 40  1  0
 21 41  1  0
 22 42  1  0
 23 43  1  0
 23 44  1  0
 24 45  1  0
 24 46  1  0
 25 47  1  0
 26 48  1  0
 28 49  1  0
 29 50  1  0
M  END
$$$$
