
     RDKit          3D

 52 55  0  0  0  0  0  0  0  0999 V2000
    5.9947   -0.1619   -1.1140 C   0  0  0  0  0  0  0  0  0  0  0  0
    5.0175   -0.6929   -0.1796 N   0  0  0  0  0  0  0  0  0  0  0  0
    4.3525    0.4014    0.4550 C   0  0  0  0  0  0  0  0  0  0  0  0
    2.9003    0.4376   -0.0257 C   0  0  0  0  0  0  0  0  0  0  0  0
    2.2811   -0.7834    0.3815 N   0  0  0  0  0  0  0  0  0  0  0  0
    0.8561   -0.7708    0.3624 C   0  0  0  0  0  0  0  0  0  0  0  0
    0.3033    0.1339    1.4781 C   0  0  0  0  0  0  0  0  0  0  0  0
   -1.1111    0.2259    1.5499 C   0  0  0  0  0  0  0  0  0  0  0  0
   -2.0519    0.6843    0.6316 N   0  0  0  0  0  0  0  0  0  0  0  0
   -2.1461    2.0834    0.4228 C   0  0  0  0  0  0  0  0  0  0  0  0
   -1.3530    2.9584    1.1345 C   0  0  0  0  0  0  0  0  0  0  0  0
   -1.3592    4.3314    1.0193 C   0  0  0  0  0  0  0  0  0  0  0  0
   -2.2289    4.9106    0.1167 C   0  0  0  0  0  0  0  0  0  0  0  0
   -3.0565    4.0835   -0.6324 C   0  0  0  0  0  0  0  0  0  0  0  0
   -2.9696    2.7314   -0.4393 C   0  0  0  0  0  0  0  0  0  0  0  0
   -4.0981    1.8174   -1.4648 S   0  0  0  0  0  0  0  0  0  0  0  0
   -3.8105    0.1145   -1.0442 C   0  0  0  0  0  0  0  0  0  0  0  0
   -2.8753   -0.2208   -0.1006 C   0  0  0  0  0  0  0  0  0  0  0  0
   -2.7922   -1.5863    0.0724 C   0  0  0  0  0  0  0  0  0  0  0  0
   -3.5308   -2.5359   -0.5906 C   0  0  0  0  0  0  0  0  0  0  0  0
   -4.4514   -2.1097   -1.5250 C   0  0  0  0  0  0  0  0  0  0  0  0
   -4.5845   -0.7700   -1.7462 C   0  0  0  0  0  0  0  0  0  0  0  0
   -3.4032   -3.9988   -0.3696 C   0  0  0  0  0  0  0  0  0  0  0  0
   -3.5679   -4.6136   -1.6041 F   0  0  0  0  0  0  0  0  0  0  0  0
   -4.4661   -4.3934    0.4111 F   0  0  0  0  0  0  0  0  0  0  0  0
   -2.1820   -4.3699    0.1364 F   0  0  0  0  0  0  0  0  0  0  0  0
    2.8867   -1.9264   -0.2294 C   0  0  0  0  0  0  0  0  0  0  0  0
    4.1967   -1.6072   -0.9003 C   0  0  0  0  0  0  0  0  0  0  0  0
    6.6855   -0.9415   -1.4649 H   0  0  0  0  0  0  0  0  0  0  0  0
    6.5795    0.6393   -0.6472 H   0  0  0  0  0  0  0  0  0  0  0  0
    5.4897    0.2844   -1.9998 H   0  0  0  0  0  0  0  0  0  0  0  0
    4.8589    1.3781    0.2300 H   0  0  0  0  0  0  0  0  0  0  0  0
    4.3309    0.2373    1.5700 H   0  0  0  0  0  0  0  0  0  0  0  0
    2.9496    0.4301   -1.1478 H   0  0  0  0  0  0  0  0  0  0  0  0
    2.3683    1.3319    0.3414 H   0  0  0  0  0  0  0  0  0  0  0  0
    0.4812   -0.4324   -0.6253 H   0  0  0  0  0  0  0  0  0  0  0  0
    0.4281   -1.7793    0.5108 H   0  0  0  0  0  0  0  0  0  0  0  0
    0.6196   -0.5036    2.3574 H   0  0  0  0  0  0  0  0  0  0  0  0
    0.9794    0.9816    1.7066 H   0  0  0  0  0  0  0  0  0  0  0  0
   -1.4549   -0.7549    1.9317 H   0  0  0  0  0  0  0  0  0  0  0  0
   -1.3203    0.8763    2.4742 H   0  0  0  0  0  0  0  0  0  0  0  0
   -0.6332    2.6457    1.8766 H   0  0  0  0  0  0  0  0  0  0  0  0
   -0.7328    5.0093    1.5816 H   0  0  0  0  0  0  0  0  0  0  0  0
   -2.2593    5.9853    0.0013 H   0  0  0  0  0  0  0  0  0  0  0  0
   -3.7057    4.5860   -1.3110 H   0  0  0  0  0  0  0  0  0  0  0  0
   -2.1040   -2.0445    0.7663 H   0  0  0  0  0  0  0  0  0  0  0  0
   -5.0481   -2.8340   -2.0637 H   0  0  0  0  0  0  0  0  0  0  0  0
   -5.3155   -0.4869   -2.4847 H   0  0  0  0  0  0  0  0  0  0  0  0
    2.2093   -2.3551   -1.0113 H   0  0  0  0  0  0  0  0  0  0  0  0
    3.0475   -2.7359    0.5264 H   0  0  0  0  0  0  0  0  0  0  0  0
    4.7582   -2.5800   -0.9350 H   0  0  0  0  0  0  0  0  0  0  0  0
    4.0373   -1.3101   -1.9554 H   0  0  0  0  0  0  0  0  0  0  0  0
  1  2  1  0
  2  3  1  0
  3  4  1  0
  4  5  1  0
  5  6  1  0
  6  7  1  0
  7  8  1  0
  8  9  1  0
  9 10  1  0
 10 11  2  0
 11 12  1  0
 12 13  2  0
 13 14  1  0
 14 15  2  0
 15 16  1  0
 16 17  1  0
 17 18  2  0
 18 19  1  0
 19 20  2  0
 20 21  1  0
 21 22  2  0
 20 23  1  0
 23 24  1  0
 23 25  1  0
 23 26  1  0
  5 27  1  0
 27 28  1  0
 28  2  1  0
 18  9  1  0
 15 10  1  0
 22 17  1  0
  1 29  1  0
  1 30  1  0
  1 31  1  0
  3 32  1  0
  3 33  1  0
  4 34  1  0
  4 35  1  0
  6 36  1  0
  6 37  1  0
  7 38  1  0
  7 39  1  0
  8 40  1  0
  8 41  1  0
 11 42  1  0
 12 43  1  0
 13 44  1  0
 14 45  1  0
 19 46  1  0
 21 47  1  0
 22 48  1  0
 27 49  1  0
 27 50  1  0
 28 51  1  0
 28 52  1  0
M  END
$$$$
