@<TRIPOS>MOLECULE
*****
 52 55 0 0 0
SMALL
GASTEIGER

@<TRIPOS>ATOM
      1 C           5.9947   -0.1619   -1.1140 C.3     1  UNL1       -0.0127
      2 N           5.0175   -0.6929   -0.1796 N.3     1  UNL1       -0.3029
      3 C           4.3525    0.4014    0.4550 C.3     1  UNL1        0.0114
      4 C           2.9003    0.4376   -0.0257 C.3     1  UNL1        0.0117
      5 N           2.2811   -0.7834    0.3815 N.3     1  UNL1       -0.2999
      6 C           0.8561   -0.7708    0.3624 C.3     1  UNL1        0.0004
      7 C           0.3033    0.1339    1.4781 C.3     1  UNL1       -0.0240
      8 C          -1.1111    0.2259    1.5499 C.3     1  UNL1        0.0185
      9 N          -2.0519    0.6843    0.6316 N.pl3   1  UNL1       -0.2983
     10 C          -2.1461    2.0834    0.4228 C.ar    1  UNL1        0.0479
     11 C          -1.3530    2.9584    1.1345 C.ar    1  UNL1       -0.0393
     12 C          -1.3592    4.3314    1.0193 C.ar    1  UNL1       -0.0599
     13 C          -2.2289    4.9106    0.1167 C.ar    1  UNL1       -0.0606
     14 C          -3.0565    4.0835   -0.6324 C.ar    1  UNL1       -0.0462
     15 C          -2.9696    2.7314   -0.4393 C.ar    1  UNL1        0.0341
     16 S          -4.0981    1.8174   -1.4648 S.3     1  UNL1       -0.0857
     17 C          -3.8105    0.1145   -1.0442 C.ar    1  UNL1        0.0341
     18 C          -2.8753   -0.2208   -0.1006 C.ar    1  UNL1        0.0484
     19 C          -2.7922   -1.5863    0.0724 C.ar    1  UNL1       -0.0276
     20 C          -3.5308   -2.5359   -0.5906 C.ar    1  UNL1        0.0566
     21 C          -4.4514   -2.1097   -1.5250 C.ar    1  UNL1       -0.0490
     22 C          -4.5845   -0.7700   -1.7462 C.ar    1  UNL1       -0.0457
     23 C          -3.4032   -3.9988   -0.3696 C.3     1  UNL1        0.4175
     24 F          -3.5679   -4.6136   -1.6041 F       1  UNL1       -0.1659
     25 F          -4.4661   -4.3934    0.4111 F       1  UNL1       -0.1659
     26 F          -2.1820   -4.3699    0.1364 F       1  UNL1       -0.1659
     27 C           2.8867   -1.9264   -0.2294 C.3     1  UNL1        0.0117
     28 C           4.1967   -1.6072   -0.9003 C.3     1  UNL1        0.0114
     29 H           6.6855   -0.9415   -1.4649 H       1  UNL1        0.0391
     30 H           6.5795    0.6393   -0.6472 H       1  UNL1        0.0391
     31 H           5.4897    0.2844   -1.9998 H       1  UNL1        0.0391
     32 H           4.8589    1.3781    0.2300 H       1  UNL1        0.0439
     33 H           4.3309    0.2373    1.5700 H       1  UNL1        0.0439
     34 H           2.9496    0.4301   -1.1478 H       1  UNL1        0.0439
     35 H           2.3683    1.3319    0.3414 H       1  UNL1        0.0439
     36 H           0.4812   -0.4324   -0.6253 H       1  UNL1        0.0427
     37 H           0.4281   -1.7793    0.5108 H       1  UNL1        0.0427
     38 H           0.6196   -0.5036    2.3574 H       1  UNL1        0.0293
     39 H           0.9794    0.9816    1.7066 H       1  UNL1        0.0293
     40 H          -1.4549   -0.7549    1.9317 H       1  UNL1        0.0468
     41 H          -1.3203    0.8763    2.4742 H       1  UNL1        0.0468
     42 H          -0.6332    2.6457    1.8766 H       1  UNL1        0.0636
     43 H          -0.7328    5.0093    1.5816 H       1  UNL1        0.0618
     44 H          -2.2593    5.9853    0.0013 H       1  UNL1        0.0618
     45 H          -3.7057    4.5860   -1.3110 H       1  UNL1        0.0629
     46 H          -2.1040   -2.0445    0.7663 H       1  UNL1        0.0642
     47 H          -5.0481   -2.8340   -2.0637 H       1  UNL1        0.0623
     48 H          -5.3155   -0.4869   -2.4847 H       1  UNL1        0.0629
     49 H           2.2093   -2.3551   -1.0113 H       1  UNL1        0.0439
     50 H           3.0475   -2.7359    0.5264 H       1  UNL1        0.0439
     51 H           4.7582   -2.5800   -0.9350 H       1  UNL1        0.0439
     52 H           4.0373   -1.3101   -1.9554 H       1  UNL1        0.0439
@<TRIPOS>BOND
     1     1     2    1
     2     2     3    1
     3     3     4    1
     4     4     5    1
     5     5     6    1
     6     6     7    1
     7     7     8    1
     8     8     9    1
     9     9    10    1
    10    10    11   ar
    11    11    12   ar
    12    12    13   ar
    13    13    14   ar
    14    14    15   ar
    15    15    16    1
    16    16    17    1
    17    17    18   ar
    18    18    19   ar
    19    19    20   ar
    20    20    21   ar
    21    21    22   ar
    22    20    23    1
    23    23    24    1
    24    23    25    1
    25    23    26    1
    26     5    27    1
    27    27    28    1
    28    28     2    1
    29    18     9    1
    30    15    10   ar
    31    22    17   ar
    32     1    29    1
    33     1    30    1
    34     1    31    1
    35     3    32    1
    36     3    33    1
    37     4    34    1
    38     4    35    1
    39     6    36    1
    40     6    37    1
    41     7    38    1
    42     7    39    1
    43     8    40    1
    44     8    41    1
    45    11    42    1
    46    12    43    1
    47    13    44    1
    48    14    45    1
    49    19    46    1
    50    21    47    1
    51    22    48    1
    52    27    49    1
    53    27    50    1
    54    28    51    1
    55    28    52    1
