@<TRIPOS>MOLECULE
*****
 49 50 0 0 0
SMALL
GASTEIGER

@<TRIPOS>ATOM
      1 C          -4.3982    1.5954   -0.3638 C.3     1  UNL1       -0.0413
      2 N          -3.3778    0.5699   -0.0860 N.4     1  UNL1        0.2412
      3 C          -2.2563    0.9266   -0.8942 C.3     1  UNL1       -0.0303
      4 C          -1.0056    0.1226   -0.6544 C.3     1  UNL1       -0.0123
      5 C           0.0360    0.6774   -1.6174 C.3     1  UNL1       -0.0434
      6 C           1.3498   -0.0333   -1.4927 C.3     1  UNL1       -0.0123
      7 C           1.9421    0.0807   -0.1042 C.3     1  UNL1       -0.0303
      8 N           3.2202   -0.6146    0.0048 N.4     1  UNL1        0.2412
      9 C           3.1294   -1.9188   -0.6221 C.3     1  UNL1       -0.0413
     10 C           4.3031    0.0840   -0.6434 C.3     1  UNL1       -0.0302
     11 C           5.0020    0.9167    0.4073 C.3     1  UNL1       -0.0077
     12 C           4.5281    0.3768    1.7256 C.3     1  UNL1       -0.0077
     13 C           3.5684   -0.7446    1.3944 C.3     1  UNL1       -0.0302
     14 C          -4.0115   -0.6798   -0.4784 C.3     1  UNL1       -0.0302
     15 C          -4.7584   -1.1165    0.7682 C.3     1  UNL1       -0.0077
     16 C          -3.6917   -0.8289    1.8185 C.3     1  UNL1       -0.0077
     17 C          -3.1538    0.5161    1.3211 C.3     1  UNL1       -0.0302
     18 H          -5.4198    1.2083   -0.1835 H       1  UNL1        0.0778
     19 H          -4.1792    2.4638    0.2990 H       1  UNL1        0.0778
     20 H          -4.3315    1.8492   -1.4394 H       1  UNL1        0.0778
     21 H          -2.5908    0.8671   -1.9509 H       1  UNL1        0.0815
     22 H          -2.0490    2.0029   -0.7221 H       1  UNL1        0.0815
     23 H          -1.1461   -0.9501   -0.7302 H       1  UNL1        0.0317
     24 H          -0.6150    0.3770    0.3535 H       1  UNL1        0.0317
     25 H          -0.3587    0.4424   -2.6336 H       1  UNL1        0.0269
     26 H           0.0738    1.7626   -1.5165 H       1  UNL1        0.0269
     27 H           1.2361   -1.0624   -1.8231 H       1  UNL1        0.0317
     28 H           2.0489    0.4718   -2.1905 H       1  UNL1        0.0317
     29 H           2.0495    1.1266    0.2156 H       1  UNL1        0.0815
     30 H           1.2455   -0.4288    0.5917 H       1  UNL1        0.0815
     31 H           4.0496   -2.4688   -0.2757 H       1  UNL1        0.0778
     32 H           2.1932   -2.4602   -0.3805 H       1  UNL1        0.0778
     33 H           3.2353   -1.8620   -1.7239 H       1  UNL1        0.0778
     34 H           3.9289    0.7423   -1.4424 H       1  UNL1        0.0815
     35 H           5.0296   -0.6287   -1.1132 H       1  UNL1        0.0815
     36 H           6.1026    0.8448    0.2681 H       1  UNL1        0.0319
     37 H           4.7306    1.9887    0.2671 H       1  UNL1        0.0319
     38 H           3.9676    1.1880    2.2414 H       1  UNL1        0.0319
     39 H           5.3595    0.0585    2.3880 H       1  UNL1        0.0319
     40 H           2.6806   -0.6971    2.0797 H       1  UNL1        0.0815
     41 H           4.0736   -1.7048    1.6453 H       1  UNL1        0.0815
     42 H          -4.7369   -0.5380   -1.2995 H       1  UNL1        0.0815
     43 H          -3.3103   -1.4610   -0.7729 H       1  UNL1        0.0815
     44 H          -5.6354   -0.4844    0.9776 H       1  UNL1        0.0319
     45 H          -5.0705   -2.1617    0.7332 H       1  UNL1        0.0319
     46 H          -4.1120   -0.7671    2.8300 H       1  UNL1        0.0319
     47 H          -2.9367   -1.6318    1.7739 H       1  UNL1        0.0319
     48 H          -2.1392    0.7147    1.6672 H       1  UNL1        0.0815
     49 H          -3.7996    1.2685    1.8629 H       1  UNL1        0.0815
@<TRIPOS>UNITY_ATOM_ATTR
2 1
charge 1
8 1
charge 1
@<TRIPOS>BOND
     1     1     2    1
     2     2     3    1
     3     3     4    1
     4     4     5    1
     5     5     6    1
     6     6     7    1
     7     7     8    1
     8     8     9    1
     9     8    10    1
    10    10    11    1
    11    11    12    1
    12    12    13    1
    13     2    14    1
    14    14    15    1
    15    15    16    1
    16    16    17    1
    17    17     2    1
    18    13     8    1
    19     1    18    1
    20     1    19    1
    21     1    20    1
    22     3    21    1
    23     3    22    1
    24     4    23    1
    25     4    24    1
    26     5    25    1
    27     5    26    1
    28     6    27    1
    29     6    28    1
    30     7    29    1
    31     7    30    1
    32     9    31    1
    33     9    32    1
    34     9    33    1
    35    10    34    1
    36    10    35    1
    37    11    36    1
    38    11    37    1
    39    12    38    1
    40    12    39    1
    41    13    40    1
    42    13    41    1
    43    14    42    1
    44    14    43    1
    45    15    44    1
    46    15    45    1
    47    16    46    1
    48    16    47    1
    49    17    48    1
    50    17    49    1
