
     RDKit          3D

 36 39  0  0  0  0  0  0  0  0999 V2000
    1.8091   -1.9296   -0.4253 O   0  0  0  0  0  0  0  0  0  0  0  0
    1.4343   -0.7388   -0.3602 C   0  0  0  0  0  0  0  0  0  0  0  0
    2.2082    0.2549    0.2531 N   0  0  0  0  0  0  0  0  0  0  0  0
    3.4694    0.0727    0.8544 C   0  0  0  0  0  0  0  0  0  0  0  0
    4.1595   -1.1130    0.8679 C   0  0  0  0  0  0  0  0  0  0  0  0
    5.4093   -1.2637    1.4837 C   0  0  0  0  0  0  0  0  0  0  0  0
    5.9506   -0.1701    2.0927 C   0  0  0  0  0  0  0  0  0  0  0  0
    7.1528   -0.2105    2.7149 F   0  0  0  0  0  0  0  0  0  0  0  0
    5.2727    1.0320    2.0896 C   0  0  0  0  0  0  0  0  0  0  0  0
    4.0848    1.1111    1.4859 N   0  0  0  0  0  0  0  0  0  0  0  0
    0.1303   -0.4549   -0.9732 C   0  0  0  0  0  0  0  0  0  0  0  0
   -0.9882   -1.0651   -0.4462 C   0  0  0  0  0  0  0  0  0  0  0  0
   -2.2056   -0.7866   -1.0635 C   0  0  0  0  0  0  0  0  0  0  0  0
   -3.3468   -1.3824   -0.5591 O   0  0  0  0  0  0  0  0  0  0  0  0
   -4.1724   -0.7536    0.3582 C   0  0  0  0  0  0  0  0  0  0  0  0
   -3.9914   -0.8211    1.7189 C   0  0  0  0  0  0  0  0  0  0  0  0
   -4.8643   -0.1642    2.5183 N   0  0  0  0  0  0  0  0  0  0  0  0
   -5.9001    0.5505    2.0417 C   0  0  0  0  0  0  0  0  0  0  0  0
   -6.1101    0.6398    0.6962 N   0  0  0  0  0  0  0  0  0  0  0  0
   -5.2566   -0.0034   -0.1048 C   0  0  0  0  0  0  0  0  0  0  0  0
   -2.2550    0.0633   -2.1473 C   0  0  0  0  0  0  0  0  0  0  0  0
   -1.1155    0.6198   -2.6014 N   0  0  0  0  0  0  0  0  0  0  0  0
   -0.9323    1.4467   -3.6067 N   0  0  0  0  0  0  0  0  0  0  0  0
    0.3743    1.7639   -3.7229 C   0  0  0  0  0  0  0  0  0  0  0  0
    0.9860    1.1020   -2.7525 N   0  0  0  0  0  0  0  0  0  0  0  0
    0.0854    0.3957   -2.0559 C   0  0  0  0  0  0  0  0  0  0  0  0
    1.8008    1.2334    0.2609 H   0  0  0  0  0  0  0  0  0  0  0  0
    3.7824   -2.0021    0.3982 H   0  0  0  0  0  0  0  0  0  0  0  0
    5.9435   -2.1932    1.4929 H   0  0  0  0  0  0  0  0  0  0  0  0
    5.7062    1.9117    2.5806 H   0  0  0  0  0  0  0  0  0  0  0  0
   -0.9651   -1.7331    0.4020 H   0  0  0  0  0  0  0  0  0  0  0  0
   -3.1675   -1.3905    2.1215 H   0  0  0  0  0  0  0  0  0  0  0  0
   -6.6083    1.0772    2.6662 H   0  0  0  0  0  0  0  0  0  0  0  0
   -5.4411    0.0749   -1.1839 H   0  0  0  0  0  0  0  0  0  0  0  0
   -3.2192    0.2812   -2.6324 H   0  0  0  0  0  0  0  0  0  0  0  0
    0.7799    2.4195   -4.4622 H   0  0  0  0  0  0  0  0  0  0  0  0
  1  2  2  0
  2  3  1  0
  3  4  1  0
  4  5  2  0
  5  6  1  0
  6  7  2  0
  7  8  1  0
  7  9  1  0
  9 10  2  0
  2 11  1  0
 11 12  2  0
 12 13  1  0
 13 14  1  0
 14 15  1  0
 15 16  2  0
 16 17  1  0
 17 18  2  0
 18 19  1  0
 19 20  2  0
 13 21  2  0
 21 22  1  0
 22 23  1  0
 23 24  2  0
 24 25  1  0
 25 26  2  0
 10  4  1  0
 26 11  1  0
 20 15  1  0
 26 22  1  0
  3 27  1  0
  5 28  1  0
  6 29  1  0
  9 30  1  0
 12 31  1  0
 16 32  1  0
 18 33  1  0
 20 34  1  0
 21 35  1  0
 24 36  1  0
M  END
$$$$
