@<TRIPOS>MOLECULE
*****
 36 39 0 0 0
SMALL
GASTEIGER

@<TRIPOS>ATOM
      1 O           1.8091   -1.9296   -0.4253 O.2     1  UNL1       -0.2697
      2 C           1.4343   -0.7388   -0.3602 C.2     1  UNL1        0.2530
      3 N           2.2082    0.2549    0.2531 N.am    1  UNL1       -0.2663
      4 C           3.4694    0.0727    0.8544 C.ar    1  UNL1        0.1253
      5 C           4.1595   -1.1130    0.8679 C.ar    1  UNL1       -0.0188
      6 C           5.4093   -1.2637    1.4837 C.ar    1  UNL1       -0.0217
      7 C           5.9506   -0.1701    2.0927 C.ar    1  UNL1        0.1415
      8 F           7.1528   -0.2105    2.7149 F       1  UNL1       -0.2039
      9 C           5.2727    1.0320    2.0896 C.ar    1  UNL1        0.0649
     10 N           4.0848    1.1111    1.4859 N.ar    1  UNL1       -0.2373
     11 C           0.1303   -0.4549   -0.9732 C.ar    1  UNL1        0.0847
     12 C          -0.9882   -1.0651   -0.4462 C.ar    1  UNL1       -0.0021
     13 C          -2.2056   -0.7866   -1.0635 C.ar    1  UNL1        0.1475
     14 O          -3.3468   -1.3824   -0.5591 O.3     1  UNL1       -0.4514
     15 C          -4.1724   -0.7536    0.3582 C.ar    1  UNL1        0.1645
     16 C          -3.9914   -0.8211    1.7189 C.ar    1  UNL1        0.0731
     17 N          -4.8643   -0.1642    2.5183 N.ar    1  UNL1       -0.2401
     18 C          -5.9001    0.5505    2.0417 C.ar    1  UNL1        0.1161
     19 N          -6.1101    0.6398    0.6962 N.ar    1  UNL1       -0.2401
     20 C          -5.2566   -0.0034   -0.1048 C.ar    1  UNL1        0.0731
     21 C          -2.2550    0.0633   -2.1473 C.ar    1  UNL1        0.0737
     22 N          -1.1155    0.6198   -2.6014 N.ar    1  UNL1       -0.2161
     23 N          -0.9323    1.4467   -3.6067 N.ar    1  UNL1       -0.1534
     24 C           0.3743    1.7639   -3.7229 C.ar    1  UNL1        0.1390
     25 N           0.9860    1.1020   -2.7525 N.ar    1  UNL1       -0.2141
     26 C           0.0854    0.3957   -2.0559 C.ar    1  UNL1        0.1680
     27 H           1.8008    1.2334    0.2609 H       1  UNL1        0.1566
     28 H           3.7824   -2.0021    0.3982 H       1  UNL1        0.0653
     29 H           5.9435   -2.1932    1.4929 H       1  UNL1        0.0648
     30 H           5.7062    1.9117    2.5806 H       1  UNL1        0.0859
     31 H          -0.9651   -1.7331    0.4020 H       1  UNL1        0.0663
     32 H          -3.1675   -1.3905    2.1215 H       1  UNL1        0.0868
     33 H          -6.6083    1.0772    2.6662 H       1  UNL1        0.1047
     34 H          -5.4411    0.0749   -1.1839 H       1  UNL1        0.0868
     35 H          -3.2192    0.2812   -2.6324 H       1  UNL1        0.0868
     36 H           0.7799    2.4195   -4.4622 H       1  UNL1        0.1066
@<TRIPOS>BOND
     1     1     2    2
     2     2     3   am
     3     3     4    1
     4     4     5   ar
     5     5     6   ar
     6     6     7   ar
     7     7     8    1
     8     7     9   ar
     9     9    10   ar
    10     2    11    1
    11    11    12   ar
    12    12    13   ar
    13    13    14    1
    14    14    15    1
    15    15    16   ar
    16    16    17   ar
    17    17    18   ar
    18    18    19   ar
    19    19    20   ar
    20    13    21   ar
    21    21    22   ar
    22    22    23   ar
    23    23    24   ar
    24    24    25   ar
    25    25    26   ar
    26    10     4   ar
    27    26    11   ar
    28    20    15   ar
    29    26    22   ar
    30     3    27    1
    31     5    28    1
    32     6    29    1
    33     9    30    1
    34    12    31    1
    35    16    32    1
    36    18    33    1
    37    20    34    1
    38    21    35    1
    39    24    36    1
