@<TRIPOS>MOLECULE
*****
 59 63 0 0 0
SMALL
GASTEIGER

@<TRIPOS>ATOM
      1 C          -9.1352   -2.1179    0.1720 C.3     1  UNL1        0.0788
      2 O          -8.4121   -1.0207   -0.3530 O.3     1  UNL1       -0.4950
      3 C          -7.0152   -1.0648   -0.2765 C.ar    1  UNL1        0.1237
      4 C          -6.2434   -0.0186   -0.7739 C.ar    1  UNL1       -0.0190
      5 C          -4.8678   -0.0765   -0.6913 C.ar    1  UNL1       -0.0439
      6 C          -4.2330   -1.1779   -0.1115 C.ar    1  UNL1        0.0662
      7 C          -2.9170   -1.4840    0.0939 C.ar    1  UNL1        0.1922
      8 N          -1.7841   -0.6925   -0.2611 N.ar    1  UNL1       -0.2413
      9 C          -0.9261   -0.9298   -1.2696 C.ar    1  UNL1        0.3362
     10 O          -1.0334   -1.9226   -2.0473 O.2     1  UNL1       -0.2459
     11 N           0.0216    0.0239   -1.3088 N.ar    1  UNL1       -0.2872
     12 C           1.1050    0.0827   -2.2655 C.3     1  UNL1        0.0533
     13 C           2.3158   -0.6390   -1.8014 C.ar    1  UNL1       -0.0241
     14 C           2.4485   -1.9795   -2.1158 C.ar    1  UNL1       -0.0553
     15 C           3.5548   -2.6931   -1.7076 C.ar    1  UNL1       -0.0395
     16 C           4.5811   -2.0995   -0.9652 C.ar    1  UNL1        0.0826
     17 CL          5.9470   -3.0991   -0.4954 Cl      1  UNL1       -0.0798
     18 C           4.4605   -0.7698   -0.6471 C.ar    1  UNL1        0.1402
     19 O           5.3730   -0.0906    0.0568 O.3     1  UNL1       -0.4765
     20 C           6.5615   -0.2614    0.6678 C.3     1  UNL1        0.1931
     21 C           6.5481    0.1234    2.1538 C.3     1  UNL1       -0.0172
     22 C           7.5748    0.6645    0.0460 C.2     1  UNL1        0.3456
     23 O           7.2042    1.4062   -0.8789 O.2     1  UNL1       -0.2468
     24 O           8.8801    0.6980    0.4814 O.3     1  UNL1       -0.4781
     25 C           3.3181   -0.0532   -1.0746 C.ar    1  UNL1       -0.0136
     26 C          -0.2124    0.9103   -0.3074 C.ar    1  UNL1        0.0741
     27 C           0.4301    2.0583    0.1092 C.ar    1  UNL1        0.0061
     28 C          -0.0566    2.7663    1.1880 C.ar    1  UNL1        0.1321
     29 O           0.5457    3.9272    1.6534 O.3     1  UNL1       -0.4057
     30 C           0.2185    5.2091    1.2001 C.3     1  UNL1        0.5752
     31 F          -1.1068    5.5366    1.4173 F       1  UNL1       -0.1328
     32 F           0.9610    6.1186    1.9642 F       1  UNL1       -0.1328
     33 F           0.5276    5.4282   -0.1107 F       1  UNL1       -0.1328
     34 C          -1.1870    2.2865    1.8163 C.ar    1  UNL1       -0.0175
     35 C          -1.8331    1.1391    1.4036 C.ar    1  UNL1       -0.0322
     36 C          -1.3482    0.4344    0.3293 C.ar    1  UNL1        0.0768
     37 N          -2.9168   -2.7002    0.7069 N.ar    1  UNL1       -0.0587
     38 O          -4.1418   -3.1125    0.8672 O.2     1  UNL1       -0.3525
     39 C          -4.9863   -2.2283    0.3887 C.ar    1  UNL1        0.1728
     40 C          -6.3553   -2.1351    0.2886 C.ar    1  UNL1        0.0257
     41 H          -8.7912   -2.3537    1.2216 H       1  UNL1        0.0660
     42 H         -10.2150   -1.8877    0.2761 H       1  UNL1        0.0660
     43 H          -8.9442   -3.0519   -0.4002 H       1  UNL1        0.0660
     44 H          -6.7540    0.8183   -1.2156 H       1  UNL1        0.0654
     45 H          -4.2461    0.7301   -1.0738 H       1  UNL1        0.0627
     46 H           1.4006    1.1392   -2.4423 H       1  UNL1        0.0543
     47 H           0.7136   -0.3502   -3.2206 H       1  UNL1        0.0543
     48 H           1.6559   -2.4387   -2.6894 H       1  UNL1        0.0621
     49 H           3.6543   -3.7429   -1.9563 H       1  UNL1        0.0633
     50 H           7.0435   -1.2605    0.6457 H       1  UNL1        0.0849
     51 H           6.7875    1.2173    2.2538 H       1  UNL1        0.0271
     52 H           7.3499   -0.4035    2.7110 H       1  UNL1        0.0271
     53 H           5.5631   -0.1410    2.5435 H       1  UNL1        0.0271
     54 H           9.6045    1.2567    0.0550 H       1  UNL1        0.2952
     55 H           3.2209    0.9968   -0.8247 H       1  UNL1        0.0658
     56 H           1.3129    2.3930   -0.4170 H       1  UNL1        0.0675
     57 H          -1.5807    2.8452    2.6766 H       1  UNL1        0.0655
     58 H          -2.7185    0.7601    1.8928 H       1  UNL1        0.0640
     59 H          -6.9221   -2.9733    0.6890 H       1  UNL1        0.0692
@<TRIPOS>BOND
     1     1     2    1
     2     2     3    1
     3     3     4   ar
     4     4     5   ar
     5     5     6   ar
     6     6     7   ar
     7     7     8    1
     8     8     9   ar
     9     9    10    2
    10     9    11   ar
    11    11    12    1
    12    12    13    1
    13    13    14   ar
    14    14    15   ar
    15    15    16   ar
    16    16    17    1
    17    16    18   ar
    18    18    19    1
    19    19    20    1
    20    20    21    1
    21    20    22    1
    22    22    23    2
    23    22    24    1
    24    18    25   ar
    25    11    26   ar
    26    26    27   ar
    27    27    28   ar
    28    28    29    1
    29    29    30    1
    30    30    31    1
    31    30    32    1
    32    30    33    1
    33    28    34   ar
    34    34    35   ar
    35    35    36   ar
    36     7    37   ar
    37    37    38   ar
    38    38    39   ar
    39    39    40   ar
    40    40     3   ar
    41    39     6   ar
    42    36     8   ar
    43    25    13   ar
    44    36    26   ar
    45     1    41    1
    46     1    42    1
    47     1    43    1
    48     4    44    1
    49     5    45    1
    50    12    46    1
    51    12    47    1
    52    14    48    1
    53    15    49    1
    54    20    50    1
    55    21    51    1
    56    21    52    1
    57    21    53    1
    58    24    54    1
    59    25    55    1
    60    27    56    1
    61    34    57    1
    62    35    58    1
    63    40    59    1
