
     RDKit          3D

 59 63  0  0  0  0  0  0  0  0999 V2000
   -9.1352   -2.1179    0.1720 C   0  0  0  0  0  0  0  0  0  0  0  0
   -8.4121   -1.0207   -0.3530 O   0  0  0  0  0  0  0  0  0  0  0  0
   -7.0152   -1.0648   -0.2765 C   0  0  0  0  0  0  0  0  0  0  0  0
   -6.2434   -0.0186   -0.7739 C   0  0  0  0  0  0  0  0  0  0  0  0
   -4.8678   -0.0765   -0.6913 C   0  0  0  0  0  0  0  0  0  0  0  0
   -4.2330   -1.1779   -0.1115 C   0  0  0  0  0  0  0  0  0  0  0  0
   -2.9170   -1.4840    0.0939 C   0  0  0  0  0  0  0  0  0  0  0  0
   -1.7841   -0.6925   -0.2611 N   0  0  0  0  0  0  0  0  0  0  0  0
   -0.9261   -0.9298   -1.2696 C   0  0  0  0  0  0  0  0  0  0  0  0
   -1.0334   -1.9226   -2.0473 O   0  0  0  0  0  0  0  0  0  0  0  0
    0.0216    0.0239   -1.3088 N   0  0  0  0  0  0  0  0  0  0  0  0
    1.1050    0.0827   -2.2655 C   0  0  0  0  0  0  0  0  0  0  0  0
    2.3158   -0.6390   -1.8014 C   0  0  0  0  0  0  0  0  0  0  0  0
    2.4485   -1.9795   -2.1158 C   0  0  0  0  0  0  0  0  0  0  0  0
    3.5548   -2.6931   -1.7076 C   0  0  0  0  0  0  0  0  0  0  0  0
    4.5811   -2.0995   -0.9652 C   0  0  0  0  0  0  0  0  0  0  0  0
    5.9470   -3.0991   -0.4954 Cl  0  0  0  0  0  0  0  0  0  0  0  0
    4.4605   -0.7698   -0.6471 C   0  0  0  0  0  0  0  0  0  0  0  0
    5.3730   -0.0906    0.0568 O   0  0  0  0  0  0  0  0  0  0  0  0
    6.5615   -0.2614    0.6678 C   0  0  2  0  0  0  0  0  0  0  0  0
    6.5481    0.1234    2.1538 C   0  0  0  0  0  0  0  0  0  0  0  0
    7.5748    0.6645    0.0460 C   0  0  0  0  0  0  0  0  0  0  0  0
    7.2042    1.4062   -0.8789 O   0  0  0  0  0  0  0  0  0  0  0  0
    8.8801    0.6980    0.4814 O   0  0  0  0  0  0  0  0  0  0  0  0
    3.3181   -0.0532   -1.0746 C   0  0  0  0  0  0  0  0  0  0  0  0
   -0.2124    0.9103   -0.3074 C   0  0  0  0  0  0  0  0  0  0  0  0
    0.4301    2.0583    0.1092 C   0  0  0  0  0  0  0  0  0  0  0  0
   -0.0566    2.7663    1.1880 C   0  0  0  0  0  0  0  0  0  0  0  0
    0.5457    3.9272    1.6534 O   0  0  0  0  0  0  0  0  0  0  0  0
    0.2185    5.2091    1.2001 C   0  0  0  0  0  0  0  0  0  0  0  0
   -1.1068    5.5366    1.4173 F   0  0  0  0  0  0  0  0  0  0  0  0
    0.9610    6.1186    1.9642 F   0  0  0  0  0  0  0  0  0  0  0  0
    0.5276    5.4282   -0.1107 F   0  0  0  0  0  0  0  0  0  0  0  0
   -1.1870    2.2865    1.8163 C   0  0  0  0  0  0  0  0  0  0  0  0
   -1.8331    1.1391    1.4036 C   0  0  0  0  0  0  0  0  0  0  0  0
   -1.3482    0.4344    0.3293 C   0  0  0  0  0  0  0  0  0  0  0  0
   -2.9168   -2.7002    0.7069 N   0  0  0  0  0  0  0  0  0  0  0  0
   -4.1418   -3.1125    0.8672 O   0  0  0  0  0  0  0  0  0  0  0  0
   -4.9863   -2.2283    0.3887 C   0  0  0  0  0  0  0  0  0  0  0  0
   -6.3553   -2.1351    0.2886 C   0  0  0  0  0  0  0  0  0  0  0  0
   -8.7912   -2.3537    1.2216 H   0  0  0  0  0  0  0  0  0  0  0  0
  -10.2150   -1.8877    0.2761 H   0  0  0  0  0  0  0  0  0  0  0  0
   -8.9442   -3.0519   -0.4002 H   0  0  0  0  0  0  0  0  0  0  0  0
   -6.7540    0.8183   -1.2156 H   0  0  0  0  0  0  0  0  0  0  0  0
   -4.2461    0.7301   -1.0738 H   0  0  0  0  0  0  0  0  0  0  0  0
    1.4006    1.1392   -2.4423 H   0  0  0  0  0  0  0  0  0  0  0  0
    0.7136   -0.3502   -3.2206 H   0  0  0  0  0  0  0  0  0  0  0  0
    1.6559   -2.4387   -2.6894 H   0  0  0  0  0  0  0  0  0  0  0  0
    3.6543   -3.7429   -1.9563 H   0  0  0  0  0  0  0  0  0  0  0  0
    7.0435   -1.2605    0.6457 H   0  0  0  0  0  0  0  0  0  0  0  0
    6.7875    1.2173    2.2538 H   0  0  0  0  0  0  0  0  0  0  0  0
    7.3499   -0.4035    2.7110 H   0  0  0  0  0  0  0  0  0  0  0  0
    5.5631   -0.1410    2.5435 H   0  0  0  0  0  0  0  0  0  0  0  0
    9.6045    1.2567    0.0550 H   0  0  0  0  0  0  0  0  0  0  0  0
    3.2209    0.9968   -0.8247 H   0  0  0  0  0  0  0  0  0  0  0  0
    1.3129    2.3930   -0.4170 H   0  0  0  0  0  0  0  0  0  0  0  0
   -1.5807    2.8452    2.6766 H   0  0  0  0  0  0  0  0  0  0  0  0
   -2.7185    0.7601    1.8928 H   0  0  0  0  0  0  0  0  0  0  0  0
   -6.9221   -2.9733    0.6890 H   0  0  0  0  0  0  0  0  0  0  0  0
  1  2  1  0
  2  3  1  0
  3  4  2  0
  4  5  1  0
  5  6  2  0
  6  7  1  0
  7  8  1  0
  8  9  1  0
  9 10  2  0
  9 11  1  0
 11 12  1  0
 12 13  1  0
 13 14  2  0
 14 15  1  0
 15 16  2  0
 16 17  1  0
 16 18  1  0
 18 19  1  0
 19 20  1  0
 20 21  1  0
 20 22  1  0
 22 23  2  0
 22 24  1  0
 18 25  2  0
 11 26  1  0
 26 27  2  0
 27 28  1  0
 28 29  1  0
 29 30  1  0
 30 31  1  0
 30 32  1  0
 30 33  1  0
 28 34  2  0
 34 35  1  0
 35 36  2  0
  7 37  2  0
 37 38  1  0
 38 39  1  0
 39 40  2  0
 40  3  1  0
 39  6  1  0
 36  8  1  0
 25 13  1  0
 36 26  1  0
  1 41  1  0
  1 42  1  0
  1 43  1  0
  4 44  1  0
  5 45  1  0
 12 46  1  0
 12 47  1  0
 14 48  1  0
 15 49  1  0
 20 50  1  1
 21 51  1  0
 21 52  1  0
 21 53  1  0
 24 54  1  0
 25 55  1  0
 27 56  1  0
 34 57  1  0
 35 58  1  0
 40 59  1  0
M  END
$$$$
