@<TRIPOS>MOLECULE
*****
 40 42 0 0 0
SMALL
GASTEIGER

@<TRIPOS>ATOM
      1 C          -5.4637   -1.7147    1.0496 C.3     1  UNL1        0.0046
      2 N          -5.4878   -0.2486    1.1434 N.am    1  UNL1       -0.2869
      3 C          -6.4985    0.3685    1.9716 C.3     1  UNL1        0.0046
      4 C          -4.5697    0.5615    0.4606 C.2     1  UNL1        0.3553
      5 O          -4.6190    1.7945    0.5627 O.2     1  UNL1       -0.2459
      6 N          -3.5479   -0.0227   -0.3752 N.ar    1  UNL1       -0.0764
      7 N          -3.3420   -1.2978   -0.6062 N.ar    1  UNL1       -0.0369
      8 N          -2.3033   -1.4663   -1.4303 N.ar    1  UNL1       -0.1122
      9 C          -1.8342   -0.2428   -1.7315 C.ar    1  UNL1        0.1794
     10 C          -0.6747    0.1193   -2.6196 C.3     1  UNL1        0.0361
     11 C           0.5842    0.1744   -1.8077 C.ar    1  UNL1       -0.0399
     12 C           1.0128    1.3314   -1.1899 C.ar    1  UNL1       -0.0576
     13 C           2.1843    1.3655   -0.4394 C.ar    1  UNL1       -0.0538
     14 C           2.9577    0.2435   -0.2869 C.ar    1  UNL1       -0.0179
     15 C           4.1754    0.2734    0.4928 C.ar    1  UNL1       -0.0179
     16 C           5.2509   -0.5319    0.1934 C.ar    1  UNL1       -0.0540
     17 C           6.4264   -0.5131    0.9355 C.ar    1  UNL1       -0.0612
     18 C           6.5353    0.3265    2.0009 C.ar    1  UNL1       -0.0617
     19 C           5.4814    1.1465    2.3311 C.ar    1  UNL1       -0.0612
     20 C           4.3212    1.1131    1.5809 C.ar    1  UNL1       -0.0540
     21 C           2.5389   -0.9190   -0.9002 C.ar    1  UNL1       -0.0538
     22 C           1.3671   -0.9511   -1.6504 C.ar    1  UNL1       -0.0576
     23 N          -2.6321    0.6239   -1.0583 N.ar    1  UNL1       -0.1262
     24 H          -6.2117   -2.1504    1.7241 H       1  UNL1        0.0429
     25 H          -4.4564   -2.0725    1.3441 H       1  UNL1        0.0429
     26 H          -5.6794   -1.9645    0.0049 H       1  UNL1        0.0429
     27 H          -7.2275   -0.3848    2.3014 H       1  UNL1        0.0429
     28 H          -5.9657    0.8304    2.8349 H       1  UNL1        0.0429
     29 H          -7.0025    1.2055    1.4256 H       1  UNL1        0.0429
     30 H          -0.5955   -0.5629   -3.4799 H       1  UNL1        0.0393
     31 H          -0.9067    1.1340   -3.0378 H       1  UNL1        0.0393
     32 H           0.4184    2.2280   -1.2967 H       1  UNL1        0.0621
     33 H           2.5168    2.2915    0.0483 H       1  UNL1        0.0624
     34 H           5.2346   -1.2227   -0.6389 H       1  UNL1        0.0624
     35 H           7.2648   -1.1684    0.6692 H       1  UNL1        0.0618
     36 H           7.4323    0.3856    2.6208 H       1  UNL1        0.0618
     37 H           5.5688    1.8141    3.1793 H       1  UNL1        0.0618
     38 H           3.5266    1.7856    1.8951 H       1  UNL1        0.0624
     39 H           3.1578   -1.8020   -0.7735 H       1  UNL1        0.0624
     40 H           1.0630   -1.8804   -2.1213 H       1  UNL1        0.0621
@<TRIPOS>BOND
     1     1     2    1
     2     2     3    1
     3     2     4   am
     4     4     5    2
     5     4     6   am
     6     6     7   ar
     7     7     8   ar
     8     8     9   ar
     9     9    10    1
    10    10    11    1
    11    11    12   ar
    12    12    13   ar
    13    13    14   ar
    14    14    15    1
    15    15    16   ar
    16    16    17   ar
    17    17    18   ar
    18    18    19   ar
    19    19    20   ar
    20    14    21   ar
    21    21    22   ar
    22     9    23   ar
    23    23     6   ar
    24    22    11   ar
    25    20    15   ar
    26     1    24    1
    27     1    25    1
    28     1    26    1
    29     3    27    1
    30     3    28    1
    31     3    29    1
    32    10    30    1
    33    10    31    1
    34    12    32    1
    35    13    33    1
    36    16    34    1
    37    17    35    1
    38    18    36    1
    39    19    37    1
    40    20    38    1
    41    21    39    1
    42    22    40    1
