
     RDKit          3D

 40 42  0  0  0  0  0  0  0  0999 V2000
   -5.4637   -1.7147    1.0496 C   0  0  0  0  0  0  0  0  0  0  0  0
   -5.4878   -0.2486    1.1434 N   0  0  0  0  0  0  0  0  0  0  0  0
   -6.4985    0.3685    1.9716 C   0  0  0  0  0  0  0  0  0  0  0  0
   -4.5697    0.5615    0.4606 C   0  0  0  0  0  0  0  0  0  0  0  0
   -4.6190    1.7945    0.5627 O   0  0  0  0  0  0  0  0  0  0  0  0
   -3.5479   -0.0227   -0.3752 N   0  0  0  0  0  0  0  0  0  0  0  0
   -3.3420   -1.2978   -0.6062 N   0  0  0  0  0  0  0  0  0  0  0  0
   -2.3033   -1.4663   -1.4303 N   0  0  0  0  0  0  0  0  0  0  0  0
   -1.8342   -0.2428   -1.7315 C   0  0  0  0  0  0  0  0  0  0  0  0
   -0.6747    0.1193   -2.6196 C   0  0  0  0  0  0  0  0  0  0  0  0
    0.5842    0.1744   -1.8077 C   0  0  0  0  0  0  0  0  0  0  0  0
    1.0128    1.3314   -1.1899 C   0  0  0  0  0  0  0  0  0  0  0  0
    2.1843    1.3655   -0.4394 C   0  0  0  0  0  0  0  0  0  0  0  0
    2.9577    0.2435   -0.2869 C   0  0  0  0  0  0  0  0  0  0  0  0
    4.1754    0.2734    0.4928 C   0  0  0  0  0  0  0  0  0  0  0  0
    5.2509   -0.5319    0.1934 C   0  0  0  0  0  0  0  0  0  0  0  0
    6.4264   -0.5131    0.9355 C   0  0  0  0  0  0  0  0  0  0  0  0
    6.5353    0.3265    2.0009 C   0  0  0  0  0  0  0  0  0  0  0  0
    5.4814    1.1465    2.3311 C   0  0  0  0  0  0  0  0  0  0  0  0
    4.3212    1.1131    1.5809 C   0  0  0  0  0  0  0  0  0  0  0  0
    2.5389   -0.9190   -0.9002 C   0  0  0  0  0  0  0  0  0  0  0  0
    1.3671   -0.9511   -1.6504 C   0  0  0  0  0  0  0  0  0  0  0  0
   -2.6321    0.6239   -1.0583 N   0  0  0  0  0  0  0  0  0  0  0  0
   -6.2117   -2.1504    1.7241 H   0  0  0  0  0  0  0  0  0  0  0  0
   -4.4564   -2.0725    1.3441 H   0  0  0  0  0  0  0  0  0  0  0  0
   -5.6794   -1.9645    0.0049 H   0  0  0  0  0  0  0  0  0  0  0  0
   -7.2275   -0.3848    2.3014 H   0  0  0  0  0  0  0  0  0  0  0  0
   -5.9657    0.8304    2.8349 H   0  0  0  0  0  0  0  0  0  0  0  0
   -7.0025    1.2055    1.4256 H   0  0  0  0  0  0  0  0  0  0  0  0
   -0.5955   -0.5629   -3.4799 H   0  0  0  0  0  0  0  0  0  0  0  0
   -0.9067    1.1340   -3.0378 H   0  0  0  0  0  0  0  0  0  0  0  0
    0.4184    2.2280   -1.2967 H   0  0  0  0  0  0  0  0  0  0  0  0
    2.5168    2.2915    0.0483 H   0  0  0  0  0  0  0  0  0  0  0  0
    5.2346   -1.2227   -0.6389 H   0  0  0  0  0  0  0  0  0  0  0  0
    7.2648   -1.1684    0.6692 H   0  0  0  0  0  0  0  0  0  0  0  0
    7.4323    0.3856    2.6208 H   0  0  0  0  0  0  0  0  0  0  0  0
    5.5688    1.8141    3.1793 H   0  0  0  0  0  0  0  0  0  0  0  0
    3.5266    1.7856    1.8951 H   0  0  0  0  0  0  0  0  0  0  0  0
    3.1578   -1.8020   -0.7735 H   0  0  0  0  0  0  0  0  0  0  0  0
    1.0630   -1.8804   -2.1213 H   0  0  0  0  0  0  0  0  0  0  0  0
  1  2  1  0
  2  3  1  0
  2  4  1  0
  4  5  2  0
  4  6  1  0
  6  7  1  0
  7  8  2  0
  8  9  1  0
  9 10  1  0
 10 11  1  0
 11 12  2  0
 12 13  1  0
 13 14  2  0
 14 15  1  0
 15 16  2  0
 16 17  1  0
 17 18  2  0
 18 19  1  0
 19 20  2  0
 14 21  1  0
 21 22  2  0
  9 23  2  0
 23  6  1  0
 22 11  1  0
 20 15  1  0
  1 24  1  0
  1 25  1  0
  1 26  1  0
  3 27  1  0
  3 28  1  0
  3 29  1  0
 10 30  1  0
 10 31  1  0
 12 32  1  0
 13 33  1  0
 16 34  1  0
 17 35  1  0
 18 36  1  0
 19 37  1  0
 20 38  1  0
 21 39  1  0
 22 40  1  0
M  END
$$$$
