
     RDKit          3D

 80 85  0  0  0  0  0  0  0  0999 V2000
   -3.8736   -7.4896    1.8509 C   0  0  0  0  0  0  0  0  0  0  0  0
   -2.9572   -6.5000    1.4439 O   0  0  0  0  0  0  0  0  0  0  0  0
   -3.4792   -5.2270    1.1959 C   0  0  0  0  0  0  0  0  0  0  0  0
   -2.6350   -4.1886    0.7888 C   0  0  0  0  0  0  0  0  0  0  0  0
   -3.0965   -2.9151    0.5317 C   0  0  0  0  0  0  0  0  0  0  0  0
   -2.2088   -1.8857    0.1087 N   0  0  0  0  0  0  0  0  0  0  0  0
   -0.8240   -2.0536   -0.1532 C   0  0  0  0  0  0  0  0  0  0  0  0
   -0.2150   -3.1018   -0.4894 O   0  0  0  0  0  0  0  0  0  0  0  0
   -0.1594   -0.7875    0.0249 N   0  0  0  0  0  0  0  0  0  0  0  0
    1.2460   -0.5471   -0.1287 C   0  0  0  0  0  0  0  0  0  0  0  0
    1.8524   -0.2016   -1.3110 C   0  0  0  0  0  0  0  0  0  0  0  0
    3.2382    0.0090   -1.3777 C   0  0  0  0  0  0  0  0  0  0  0  0
    4.0287   -0.1246   -0.2589 C   0  0  0  0  0  0  0  0  0  0  0  0
    5.4692    0.0733   -0.2928 C   0  0  0  0  0  0  0  0  0  0  0  0
    6.1830   -0.2429   -1.4279 C   0  0  0  0  0  0  0  0  0  0  0  0
    7.5682   -0.0758   -1.4965 C   0  0  0  0  0  0  0  0  0  0  0  0
    8.2709    0.4168   -0.4155 C   0  0  0  0  0  0  0  0  0  0  0  0
    9.7234    0.5908   -0.4733 C   0  0  0  0  0  0  0  0  0  0  0  0
   10.4931   -0.3836   -0.6494 O   0  0  0  0  0  0  0  0  0  0  0  0
   10.2882    1.8812   -0.3287 N   0  0  0  0  0  0  0  0  0  0  0  0
    9.4097    3.0231   -0.1258 C   0  0  0  0  0  0  0  0  0  0  0  0
   11.7121    2.0643   -0.3796 C   0  0  0  0  0  0  0  0  0  0  0  0
    7.5493    0.7322    0.7202 C   0  0  0  0  0  0  0  0  0  0  0  0
    6.1799    0.5648    0.7814 C   0  0  0  0  0  0  0  0  0  0  0  0
    3.4158   -0.4735    0.9399 C   0  0  0  0  0  0  0  0  0  0  0  0
    2.0542   -0.6755    0.9811 C   0  0  0  0  0  0  0  0  0  0  0  0
   -1.1729    0.1189    0.3907 C   0  0  0  0  0  0  0  0  0  0  0  0
   -1.0003    1.1792    1.0271 O   0  0  0  0  0  0  0  0  0  0  0  0
   -2.4584   -0.4727   -0.1471 C   0  0  0  0  0  0  0  0  0  0  0  0
   -2.4612   -0.1660   -1.6026 C   0  0  0  0  0  0  0  0  0  0  0  0
   -3.6994    0.4983   -2.1420 C   0  0  0  0  0  0  0  0  0  0  0  0
   -4.3408    1.3551   -1.2479 N   0  0  0  0  0  0  0  0  0  0  0  0
   -5.3840    2.1206   -1.7504 C   0  0  0  0  0  0  0  0  0  0  0  0
   -6.0223    2.9533   -0.6947 C   0  0  0  0  0  0  0  0  0  0  0  0
   -5.7230    4.2458   -0.6289 N   0  0  0  0  0  0  0  0  0  0  0  0
   -6.2279    5.0831    0.2760 C   0  0  0  0  0  0  0  0  0  0  0  0
   -7.1145    4.5877    1.2027 C   0  0  0  0  0  0  0  0  0  0  0  0
   -7.4564    3.2651    1.1801 C   0  0  0  0  0  0  0  0  0  0  0  0
   -6.8970    2.4302    0.2086 C   0  0  0  0  0  0  0  0  0  0  0  0
   -7.2398    0.9912    0.1446 C   0  0  0  0  0  0  0  0  0  0  0  0
   -3.8853    1.4949    0.0592 C   0  0  0  0  0  0  0  0  0  0  0  0
   -3.5660    0.1010    0.6681 C   0  0  0  0  0  0  0  0  0  0  0  0
   -4.4098   -2.7285    0.6953 N   0  0  0  0  0  0  0  0  0  0  0  0
   -5.2508   -3.6937    1.0825 C   0  0  0  0  0  0  0  0  0  0  0  0
   -4.7779   -4.9256    1.3270 N   0  0  0  0  0  0  0  0  0  0  0  0
   -3.3577   -8.3935    2.2546 H   0  0  0  0  0  0  0  0  0  0  0  0
   -4.5030   -7.1089    2.6796 H   0  0  0  0  0  0  0  0  0  0  0  0
   -4.5131   -7.8532    1.0114 H   0  0  0  0  0  0  0  0  0  0  0  0
   -1.5903   -4.4604    0.6940 H   0  0  0  0  0  0  0  0  0  0  0  0
    1.2141   -0.1007   -2.1839 H   0  0  0  0  0  0  0  0  0  0  0  0
    3.6841    0.2824   -2.3348 H   0  0  0  0  0  0  0  0  0  0  0  0
    5.6461   -0.6273   -2.2749 H   0  0  0  0  0  0  0  0  0  0  0  0
    8.1305   -0.3256   -2.3905 H   0  0  0  0  0  0  0  0  0  0  0  0
    9.8893    3.9617   -0.5070 H   0  0  0  0  0  0  0  0  0  0  0  0
    9.2886    3.1859    0.9776 H   0  0  0  0  0  0  0  0  0  0  0  0
    8.4527    2.8097   -0.6331 H   0  0  0  0  0  0  0  0  0  0  0  0
   12.2203    1.1110   -0.6348 H   0  0  0  0  0  0  0  0  0  0  0  0
   12.1417    2.3766    0.6138 H   0  0  0  0  0  0  0  0  0  0  0  0
   11.9769    2.8668   -1.0935 H   0  0  0  0  0  0  0  0  0  0  0  0
    8.1299    1.1201    1.5579 H   0  0  0  0  0  0  0  0  0  0  0  0
    5.6235    0.8206    1.6866 H   0  0  0  0  0  0  0  0  0  0  0  0
    4.0228   -0.5819    1.8387 H   0  0  0  0  0  0  0  0  0  0  0  0
    1.6445   -0.9471    1.9497 H   0  0  0  0  0  0  0  0  0  0  0  0
   -1.5510    0.3954   -1.9489 H   0  0  0  0  0  0  0  0  0  0  0  0
   -2.3668   -1.1548   -2.1462 H   0  0  0  0  0  0  0  0  0  0  0  0
   -3.3733    1.1072   -3.0379 H   0  0  0  0  0  0  0  0  0  0  0  0
   -4.3752   -0.2808   -2.6046 H   0  0  0  0  0  0  0  0  0  0  0  0
   -5.0417    2.8189   -2.5737 H   0  0  0  0  0  0  0  0  0  0  0  0
   -6.2217    1.5252   -2.2131 H   0  0  0  0  0  0  0  0  0  0  0  0
   -5.9782    6.1393    0.3233 H   0  0  0  0  0  0  0  0  0  0  0  0
   -7.5600    5.2364    1.9714 H   0  0  0  0  0  0  0  0  0  0  0  0
   -8.1454    2.8399    1.8871 H   0  0  0  0  0  0  0  0  0  0  0  0
   -8.3107    0.8468   -0.1507 H   0  0  0  0  0  0  0  0  0  0  0  0
   -7.1789    0.6053    1.2017 H   0  0  0  0  0  0  0  0  0  0  0  0
   -6.5319    0.4645   -0.5108 H   0  0  0  0  0  0  0  0  0  0  0  0
   -4.5794    1.9769    0.7360 H   0  0  0  0  0  0  0  0  0  0  0  0
   -2.9293    2.0951    0.1216 H   0  0  0  0  0  0  0  0  0  0  0  0
   -3.2798    0.3073    1.7183 H   0  0  0  0  0  0  0  0  0  0  0  0
   -4.5093   -0.4379    0.6708 H   0  0  0  0  0  0  0  0  0  0  0  0
   -6.3138   -3.5407    1.2152 H   0  0  0  0  0  0  0  0  0  0  0  0
  1  2  1  0
  2  3  1  0
  3  4  2  0
  4  5  1  0
  5  6  1  0
  6  7  1  0
  7  8  2  0
  7  9  1  0
  9 10  1  0
 10 11  2  0
 11 12  1  0
 12 13  2  0
 13 14  1  0
 14 15  2  0
 15 16  1  0
 16 17  2  0
 17 18  1  0
 18 19  2  0
 18 20  1  0
 20 21  1  0
 20 22  1  0
 17 23  1  0
 23 24  2  0
 13 25  1  0
 25 26  2  0
  9 27  1  0
 27 28  2  0
 27 29  1  0
 29 30  1  0
 30 31  1  0
 31 32  1  0
 32 33  1  0
 33 34  1  0
 34 35  2  0
 35 36  1  0
 36 37  2  0
 37 38  1  0
 38 39  2  0
 39 40  1  0
 32 41  1  0
 41 42  1  0
  5 43  2  0
 43 44  1  0
 44 45  2  0
 45  3  1  0
 29  6  1  0
 39 34  1  0
 26 10  1  0
 42 29  1  0
 24 14  1  0
  1 46  1  0
  1 47  1  0
  1 48  1  0
  4 49  1  0
 11 50  1  0
 12 51  1  0
 15 52  1  0
 16 53  1  0
 21 54  1  0
 21 55  1  0
 21 56  1  0
 22 57  1  0
 22 58  1  0
 22 59  1  0
 23 60  1  0
 24 61  1  0
 25 62  1  0
 26 63  1  0
 30 64  1  0
 30 65  1  0
 31 66  1  0
 31 67  1  0
 33 68  1  0
 33 69  1  0
 36 70  1  0
 37 71  1  0
 38 72  1  0
 40 73  1  0
 40 74  1  0
 40 75  1  0
 41 76  1  0
 41 77  1  0
 42 78  1  0
 42 79  1  0
 44 80  1  0
M  END
$$$$
