@<TRIPOS>MOLECULE
*****
 80 85 0 0 0
SMALL
GASTEIGER

@<TRIPOS>ATOM
      1 C          -3.8736   -7.4896    1.8509 C.3     1  UNL1        0.0804
      2 O          -2.9572   -6.5000    1.4439 O.3     1  UNL1       -0.4795
      3 C          -3.4792   -5.2270    1.1959 C.ar    1  UNL1        0.2191
      4 C          -2.6350   -4.1886    0.7888 C.ar    1  UNL1        0.0404
      5 C          -3.0965   -2.9151    0.5317 C.ar    1  UNL1        0.1364
      6 N          -2.2088   -1.8857    0.1087 N.am    1  UNL1       -0.2240
      7 C          -0.8240   -2.0536   -0.1532 C.2     1  UNL1        0.3219
      8 O          -0.2150   -3.1018   -0.4894 O.2     1  UNL1       -0.2512
      9 N          -0.1594   -0.7875    0.0249 N.am    1  UNL1       -0.1920
     10 C           1.2460   -0.5471   -0.1287 C.ar    1  UNL1        0.0455
     11 C           1.8524   -0.2016   -1.3110 C.ar    1  UNL1       -0.0392
     12 C           3.2382    0.0090   -1.3777 C.ar    1  UNL1       -0.0523
     13 C           4.0287   -0.1246   -0.2589 C.ar    1  UNL1       -0.0178
     14 C           5.4692    0.0733   -0.2928 C.ar    1  UNL1       -0.0178
     15 C           6.1830   -0.2429   -1.4279 C.ar    1  UNL1       -0.0533
     16 C           7.5682   -0.0758   -1.4965 C.ar    1  UNL1       -0.0491
     17 C           8.2709    0.4168   -0.4155 C.ar    1  UNL1        0.0369
     18 C           9.7234    0.5908   -0.4733 C.2     1  UNL1        0.2461
     19 O          10.4931   -0.3836   -0.6494 O.2     1  UNL1       -0.2700
     20 N          10.2882    1.8812   -0.3287 N.am    1  UNL1       -0.3036
     21 C           9.4097    3.0231   -0.1258 C.3     1  UNL1        0.0031
     22 C          11.7121    2.0643   -0.3796 C.3     1  UNL1        0.0031
     23 C           7.5493    0.7322    0.7202 C.ar    1  UNL1       -0.0491
     24 C           6.1799    0.5648    0.7814 C.ar    1  UNL1       -0.0533
     25 C           3.4158   -0.4735    0.9399 C.ar    1  UNL1       -0.0523
     26 C           2.0542   -0.6755    0.9811 C.ar    1  UNL1       -0.0392
     27 C          -1.1729    0.1189    0.3907 C.2     1  UNL1        0.2516
     28 O          -1.0003    1.1792    1.0271 O.2     1  UNL1       -0.2724
     29 C          -2.4584   -0.4727   -0.1471 C.3     1  UNL1        0.1240
     30 C          -2.4612   -0.1660   -1.6026 C.3     1  UNL1       -0.0095
     31 C          -3.6994    0.4983   -2.1420 C.3     1  UNL1        0.0017
     32 N          -4.3408    1.3551   -1.2479 N.3     1  UNL1       -0.2965
     33 C          -5.3840    2.1206   -1.7504 C.3     1  UNL1        0.0415
     34 C          -6.0223    2.9533   -0.6947 C.ar    1  UNL1        0.0581
     35 N          -5.7230    4.2458   -0.6289 N.ar    1  UNL1       -0.2583
     36 C          -6.2279    5.0831    0.2760 C.ar    1  UNL1        0.0279
     37 C          -7.1145    4.5877    1.2027 C.ar    1  UNL1       -0.0433
     38 C          -7.4564    3.2651    1.1801 C.ar    1  UNL1       -0.0557
     39 C          -6.8970    2.4302    0.2086 C.ar    1  UNL1       -0.0279
     40 C          -7.2398    0.9912    0.1446 C.3     1  UNL1       -0.0380
     41 C          -3.8853    1.4949    0.0592 C.3     1  UNL1        0.0017
     42 C          -3.5660    0.1010    0.6681 C.3     1  UNL1       -0.0095
     43 N          -4.4098   -2.7285    0.6953 N.ar    1  UNL1       -0.2200
     44 C          -5.2508   -3.6937    1.0825 C.ar    1  UNL1        0.1219
     45 N          -4.7779   -4.9256    1.3270 N.ar    1  UNL1       -0.2013
     46 H          -3.3577   -8.3935    2.2546 H       1  UNL1        0.0660
     47 H          -4.5030   -7.1089    2.6796 H       1  UNL1        0.0660
     48 H          -4.5131   -7.8532    1.0114 H       1  UNL1        0.0660
     49 H          -1.5903   -4.4604    0.6940 H       1  UNL1        0.0705
     50 H           1.2141   -0.1007   -2.1839 H       1  UNL1        0.0636
     51 H           3.6841    0.2824   -2.3348 H       1  UNL1        0.0624
     52 H           5.6461   -0.6273   -2.2749 H       1  UNL1        0.0624
     53 H           8.1305   -0.3256   -2.3905 H       1  UNL1        0.0625
     54 H           9.8893    3.9617   -0.5070 H       1  UNL1        0.0428
     55 H           9.2886    3.1859    0.9776 H       1  UNL1        0.0428
     56 H           8.4527    2.8097   -0.6331 H       1  UNL1        0.0428
     57 H          12.2203    1.1110   -0.6348 H       1  UNL1        0.0428
     58 H          12.1417    2.3766    0.6138 H       1  UNL1        0.0428
     59 H          11.9769    2.8668   -1.0935 H       1  UNL1        0.0428
     60 H           8.1299    1.1201    1.5579 H       1  UNL1        0.0625
     61 H           5.6235    0.8206    1.6866 H       1  UNL1        0.0624
     62 H           4.0228   -0.5819    1.8387 H       1  UNL1        0.0624
     63 H           1.6445   -0.9471    1.9497 H       1  UNL1        0.0636
     64 H          -1.5510    0.3954   -1.9489 H       1  UNL1        0.0303
     65 H          -2.3668   -1.1548   -2.1462 H       1  UNL1        0.0303
     66 H          -3.3733    1.1072   -3.0379 H       1  UNL1        0.0427
     67 H          -4.3752   -0.2808   -2.6046 H       1  UNL1        0.0427
     68 H          -5.0417    2.8189   -2.5737 H       1  UNL1        0.0491
     69 H          -6.2217    1.5252   -2.2131 H       1  UNL1        0.0491
     70 H          -5.9782    6.1393    0.3233 H       1  UNL1        0.0829
     71 H          -7.5600    5.2364    1.9714 H       1  UNL1        0.0633
     72 H          -8.1454    2.8399    1.8871 H       1  UNL1        0.0621
     73 H          -8.3107    0.8468   -0.1507 H       1  UNL1        0.0278
     74 H          -7.1789    0.6053    1.2017 H       1  UNL1        0.0278
     75 H          -6.5319    0.4645   -0.5108 H       1  UNL1        0.0278
     76 H          -4.5794    1.9769    0.7360 H       1  UNL1        0.0427
     77 H          -2.9293    2.0951    0.1216 H       1  UNL1        0.0427
     78 H          -3.2798    0.3073    1.7183 H       1  UNL1        0.0303
     79 H          -4.5093   -0.4379    0.6708 H       1  UNL1        0.0303
     80 H          -6.3138   -3.5407    1.2152 H       1  UNL1        0.1049
@<TRIPOS>BOND
     1     1     2    1
     2     2     3    1
     3     3     4   ar
     4     4     5   ar
     5     5     6    1
     6     6     7   am
     7     7     8    2
     8     7     9   am
     9     9    10    1
    10    10    11   ar
    11    11    12   ar
    12    12    13   ar
    13    13    14    1
    14    14    15   ar
    15    15    16   ar
    16    16    17   ar
    17    17    18    1
    18    18    19    2
    19    18    20   am
    20    20    21    1
    21    20    22    1
    22    17    23   ar
    23    23    24   ar
    24    13    25   ar
    25    25    26   ar
    26     9    27   am
    27    27    28    2
    28    27    29    1
    29    29    30    1
    30    30    31    1
    31    31    32    1
    32    32    33    1
    33    33    34    1
    34    34    35   ar
    35    35    36   ar
    36    36    37   ar
    37    37    38   ar
    38    38    39   ar
    39    39    40    1
    40    32    41    1
    41    41    42    1
    42     5    43   ar
    43    43    44   ar
    44    44    45   ar
    45    45     3   ar
    46    29     6    1
    47    39    34   ar
    48    26    10   ar
    49    42    29    1
    50    24    14   ar
    51     1    46    1
    52     1    47    1
    53     1    48    1
    54     4    49    1
    55    11    50    1
    56    12    51    1
    57    15    52    1
    58    16    53    1
    59    21    54    1
    60    21    55    1
    61    21    56    1
    62    22    57    1
    63    22    58    1
    64    22    59    1
    65    23    60    1
    66    24    61    1
    67    25    62    1
    68    26    63    1
    69    30    64    1
    70    30    65    1
    71    31    66    1
    72    31    67    1
    73    33    68    1
    74    33    69    1
    75    36    70    1
    76    37    71    1
    77    38    72    1
    78    40    73    1
    79    40    74    1
    80    40    75    1
    81    41    76    1
    82    41    77    1
    83    42    78    1
    84    42    79    1
    85    44    80    1
