@<TRIPOS>MOLECULE
*****
 53 55 0 0 0
SMALL
GASTEIGER

@<TRIPOS>ATOM
      1 C          -0.3126    2.3984   -1.6462 C.3     1  UNL1        0.0788
      2 O          -1.3774    1.4916   -1.6514 O.3     1  UNL1       -0.4945
      3 C          -1.4663    0.4150   -0.8614 C.ar    1  UNL1        0.1283
      4 C          -0.4997    0.0165    0.1105 C.ar    1  UNL1       -0.0115
      5 C          -0.6775   -1.0694    0.8518 C.ar    1  UNL1        0.0123
      6 C           0.3224   -1.5452    1.8458 C.3     1  UNL1        0.0466
      7 C           0.7359   -2.9791    1.4970 C.3     1  UNL1       -0.0473
      8 C           1.5188   -0.6858    1.6764 C.1     1  UNL1       -0.0889
      9 C           2.5129    0.0110    1.5278 C.1     1  UNL1       -0.0605
     10 C           3.6777    0.8204    1.3298 C.ar    1  UNL1        0.0855
     11 C           3.6813    2.1774    1.5110 C.ar    1  UNL1        0.0605
     12 C           2.4111    2.8674    1.8364 C.3     1  UNL1       -0.0209
     13 N           4.8270    2.8984    1.3961 N.ar    1  UNL1       -0.2186
     14 C           6.0106    2.3329    1.1008 C.ar    1  UNL1        0.2145
     15 N           7.1881    3.1277    1.0139 N.pl3   1  UNL1       -0.3274
     16 N           6.0332    1.0022    0.9147 N.ar    1  UNL1       -0.1989
     17 C           4.9127    0.2397    1.0188 C.ar    1  UNL1        0.1370
     18 N           4.9631   -1.1637    0.8168 N.pl3   1  UNL1       -0.3420
     19 C          -1.8074   -1.9068    0.7604 C.ar    1  UNL1        0.1252
     20 O          -1.9115   -2.9788    1.5516 O.3     1  UNL1       -0.4948
     21 C          -3.0057   -3.8528    1.5188 C.3     1  UNL1        0.0788
     22 C          -2.7788   -1.5265   -0.2019 C.ar    1  UNL1       -0.0084
     23 C          -2.5921   -0.4240   -0.9557 C.ar    1  UNL1        0.0272
     24 C          -3.5860   -0.0705   -1.9597 C.ar    1  UNL1       -0.0143
     25 C          -4.9296   -0.3123   -1.6119 C.ar    1  UNL1       -0.0539
     26 C          -5.9497   -0.0203   -2.4613 C.ar    1  UNL1       -0.0612
     27 C          -5.7321    0.5197   -3.6945 C.ar    1  UNL1       -0.0617
     28 C          -4.3879    0.7684   -4.0542 C.ar    1  UNL1       -0.0612
     29 C          -3.3812    0.4634   -3.1785 C.ar    1  UNL1       -0.0539
     30 H          -0.4665    3.2655   -0.9414 H       1  UNL1        0.0660
     31 H           0.6351    1.8784   -1.4187 H       1  UNL1        0.0660
     32 H          -0.1914    2.8066   -2.6956 H       1  UNL1        0.0660
     33 H           0.3737    0.6531    0.1944 H       1  UNL1        0.0658
     34 H          -0.1065   -1.5432    2.8352 H       1  UNL1        0.0481
     35 H           0.6066   -3.1893    0.4097 H       1  UNL1        0.0245
     36 H           1.8201   -3.0467    1.7050 H       1  UNL1        0.0245
     37 H           0.2241   -3.6558    2.1700 H       1  UNL1        0.0245
     38 H           2.6513    3.5657    2.6728 H       1  UNL1        0.0293
     39 H           2.1492    3.5302    0.9598 H       1  UNL1        0.0293
     40 H           1.5668    2.2100    2.0129 H       1  UNL1        0.0293
     41 H           7.2527    3.9103    0.3362 H       1  UNL1        0.1452
     42 H           7.9975    2.9326    1.6243 H       1  UNL1        0.1452
     43 H           5.2455   -1.5926   -0.0802 H       1  UNL1        0.1437
     44 H           4.7083   -1.7877    1.6089 H       1  UNL1        0.1437
     45 H          -3.9802   -3.3847    1.2798 H       1  UNL1        0.0660
     46 H          -2.8719   -4.6715    0.7770 H       1  UNL1        0.0660
     47 H          -3.1633   -4.3469    2.5077 H       1  UNL1        0.0660
     48 H          -3.6602   -2.1673   -0.2819 H       1  UNL1        0.0661
     49 H          -5.1275   -0.7641   -0.6257 H       1  UNL1        0.0624
     50 H          -6.9855   -0.2255   -2.1449 H       1  UNL1        0.0618
     51 H          -6.5273    0.7630   -4.3929 H       1  UNL1        0.0618
     52 H          -4.2053    1.1887   -5.0181 H       1  UNL1        0.0618
     53 H          -2.3445    0.6560   -3.4959 H       1  UNL1        0.0624
@<TRIPOS>BOND
     1     1     2    1
     2     2     3    1
     3     3     4   ar
     4     4     5   ar
     5     5     6    1
     6     6     7    1
     7     6     8    1
     8     8     9    3
     9     9    10    1
    10    10    11   ar
    11    11    12    1
    12    11    13   ar
    13    13    14   ar
    14    14    15    1
    15    14    16   ar
    16    16    17   ar
    17    17    18    1
    18     5    19   ar
    19    19    20    1
    20    20    21    1
    21    19    22   ar
    22    22    23   ar
    23    23    24    1
    24    24    25   ar
    25    25    26   ar
    26    26    27   ar
    27    27    28   ar
    28    28    29   ar
    29    23     3   ar
    30    29    24   ar
    31    17    10   ar
    32     1    30    1
    33     1    31    1
    34     1    32    1
    35     4    33    1
    36     6    34    1
    37     7    35    1
    38     7    36    1
    39     7    37    1
    40    12    38    1
    41    12    39    1
    42    12    40    1
    43    15    41    1
    44    15    42    1
    45    18    43    1
    46    18    44    1
    47    21    45    1
    48    21    46    1
    49    21    47    1
    50    22    48    1
    51    25    49    1
    52    26    50    1
    53    27    51    1
    54    28    52    1
    55    29    53    1
