@<TRIPOS>MOLECULE
*****
 50 53 0 0 0
SMALL
GASTEIGER

@<TRIPOS>ATOM
      1 C          -2.9840   -0.0671    1.6023 C.3     1  UNL1        0.0291
      2 N          -3.5882   -0.7591    2.7572 N.3     1  UNL1       -0.3254
      3 C          -1.6661   -0.7656    1.3515 C.3     1  UNL1        0.0293
      4 N          -1.7755   -1.1469   -0.0434 N.pl3   1  UNL1       -0.3130
      5 C          -3.1679   -1.3449   -0.4073 C.3     1  UNL1        0.0219
      6 C          -3.8494   -0.2341    0.4042 C.3     1  UNL1        0.0193
      7 C          -3.9641    0.9170   -0.4847 C.ar    1  UNL1       -0.0032
      8 C          -5.1396    1.0889   -1.2227 C.ar    1  UNL1       -0.0173
      9 C          -5.3890    2.1259   -2.0952 C.ar    1  UNL1        0.1588
     10 F          -6.5649    2.1929   -2.7582 F       1  UNL1       -0.2025
     11 C          -4.3816    3.0780   -2.2497 C.ar    1  UNL1        0.1611
     12 F          -4.6244    4.1058   -3.1122 F       1  UNL1       -0.2024
     13 C          -3.2051    2.9770   -1.5622 C.ar    1  UNL1        0.0119
     14 C          -3.0350    1.9090   -0.7089 C.ar    1  UNL1        0.1298
     15 F          -1.8647    1.8160   -0.0354 F       1  UNL1       -0.2051
     16 C          -0.6835   -1.3091   -0.9403 C.ar    1  UNL1        0.1251
     17 C           0.6243   -1.1168   -0.5472 C.ar    1  UNL1        0.0043
     18 C           1.7141   -1.2605   -1.3727 C.ar    1  UNL1        0.0760
     19 N           1.4380   -1.6134   -2.6412 N.ar    1  UNL1       -0.2353
     20 C           0.1783   -1.8115   -3.0693 C.ar    1  UNL1        0.1187
     21 N          -0.8758   -1.6604   -2.2244 N.ar    1  UNL1       -0.2207
     22 C           3.0865   -1.0500   -0.9261 C.ar    1  UNL1        0.0023
     23 C           3.4562   -0.6884    0.3517 C.ar    1  UNL1       -0.0277
     24 C           4.7874   -0.5152    0.6677 C.ar    1  UNL1        0.0885
     25 C           5.7924   -0.6925   -0.2628 C.ar    1  UNL1       -0.0369
     26 C           5.4471   -1.0547   -1.5490 C.ar    1  UNL1       -0.0593
     27 C           4.1084   -1.2207   -1.8360 C.ar    1  UNL1       -0.0525
     28 S           5.2725   -0.0575    2.2817 S.O2    1  UNL1       -0.0059
     29 C           5.3484    1.7202    2.4646 C.3     1  UNL1        0.0596
     30 O           6.6483   -0.6080    2.5885 O.2     1  UNL1       -0.1696
     31 O           4.2971   -0.5447    3.3119 O.2     1  UNL1       -0.1696
     32 H          -2.7524    0.9793    1.8849 H       1  UNL1        0.0480
     33 H          -2.8481   -1.1609    3.3776 H       1  UNL1        0.1185
     34 H          -4.0543   -0.0212    3.3672 H       1  UNL1        0.1185
     35 H          -1.5758   -1.7133    1.9238 H       1  UNL1        0.0480
     36 H          -0.8017   -0.0876    1.5476 H       1  UNL1        0.0480
     37 H          -3.3219   -1.1947   -1.4954 H       1  UNL1        0.0471
     38 H          -3.5474   -2.2989   -0.0224 H       1  UNL1        0.0471
     39 H          -4.8752   -0.5537    0.6949 H       1  UNL1        0.0381
     40 H          -5.9411    0.3480   -1.1116 H       1  UNL1        0.0651
     41 H          -2.4179    3.7168   -1.6798 H       1  UNL1        0.0676
     42 H           0.7680   -0.8348    0.4863 H       1  UNL1        0.0673
     43 H           0.0902   -2.0923   -4.1129 H       1  UNL1        0.1048
     44 H           2.6959   -0.5487    1.0770 H       1  UNL1        0.0643
     45 H           6.8485   -0.5507    0.0046 H       1  UNL1        0.0636
     46 H           6.2164   -1.1982   -2.2907 H       1  UNL1        0.0618
     47 H           3.9039   -1.5038   -2.8580 H       1  UNL1        0.0624
     48 H           6.3377    2.0463    2.8968 H       1  UNL1        0.0468
     49 H           4.4983    2.1097    3.0304 H       1  UNL1        0.0468
     50 H           5.3366    2.1494    1.4463 H       1  UNL1        0.0468
@<TRIPOS>BOND
     1     1     2    1
     2     1     3    1
     3     3     4    1
     4     4     5    1
     5     5     6    1
     6     6     7    1
     7     7     8   ar
     8     8     9   ar
     9     9    10    1
    10     9    11   ar
    11    11    12    1
    12    11    13   ar
    13    13    14   ar
    14    14    15    1
    15     4    16    1
    16    16    17   ar
    17    17    18   ar
    18    18    19   ar
    19    19    20   ar
    20    20    21   ar
    21    18    22    1
    22    22    23   ar
    23    23    24   ar
    24    24    25   ar
    25    25    26   ar
    26    26    27   ar
    27    24    28    1
    28    28    29    1
    29    28    30    2
    30    28    31    2
    31     6     1    1
    32    14     7   ar
    33    21    16   ar
    34    27    22   ar
    35     1    32    1
    36     2    33    1
    37     2    34    1
    38     3    35    1
    39     3    36    1
    40     5    37    1
    41     5    38    1
    42     6    39    1
    43     8    40    1
    44    13    41    1
    45    17    42    1
    46    20    43    1
    47    23    44    1
    48    25    45    1
    49    26    46    1
    50    27    47    1
    51    29    48    1
    52    29    49    1
    53    29    50    1
