@<TRIPOS>MOLECULE
*****
 28 30 0 0 0
SMALL
GASTEIGER

@<TRIPOS>ATOM
      1 C           0.1942    1.7788   -1.3097 C.3     1  UNL1        0.0125
      2 N           0.0976    0.5933   -0.5163 N.ar    1  UNL1       -0.3413
      3 C          -0.9009   -0.3033   -0.5345 C.ar    1  UNL1        0.0751
      4 C          -2.2087   -0.2363   -1.2340 C.ar    1  UNL1        0.0371
      5 C          -2.7025    0.5681   -2.2136 C.ar    1  UNL1       -0.0455
      6 C          -3.9559    0.3398   -2.5814 C.ar    1  UNL1       -0.0541
      7 C          -4.7526   -0.6013   -2.0684 C.ar    1  UNL1       -0.0237
      8 S          -3.5701   -1.3315   -0.8452 S.2     1  UNL1       -0.0952
      9 C          -0.5871   -1.3336    0.3743 C.ar    1  UNL1        0.0746
     10 CL         -1.5368   -2.7297    0.7247 Cl      1  UNL1       -0.0807
     11 C           0.6588   -1.0007    0.9438 C.ar    1  UNL1        0.0201
     12 C           1.4370   -1.6108    1.9197 C.ar    1  UNL1       -0.0325
     13 C           2.6503   -0.9827    2.3338 C.ar    1  UNL1        0.0698
     14 C           3.4174   -1.5890    3.4518 C.1     1  UNL1        0.1005
     15 N           3.9800   -2.0365    4.3022 N.1     1  UNL1       -0.1908
     16 C           2.9968    0.1717    1.7528 C.ar    1  UNL1        0.0711
     17 C           4.1887    0.9038    2.1400 C.1     1  UNL1        0.1005
     18 N           5.1572    1.5145    2.4731 N.1     1  UNL1       -0.1908
     19 C           2.2147    0.7986    0.7571 C.ar    1  UNL1       -0.0189
     20 C           1.0351    0.1636    0.3827 C.ar    1  UNL1        0.0520
     21 H           1.2209    2.2578   -1.1348 H       1  UNL1        0.0456
     22 H          -0.5581    2.5446   -1.1143 H       1  UNL1        0.0456
     23 H           0.1723    1.5175   -2.4068 H       1  UNL1        0.0456
     24 H          -2.0643    1.3701   -2.6561 H       1  UNL1        0.0629
     25 H          -4.4456    1.0109   -3.4350 H       1  UNL1        0.0623
     26 H          -5.7855   -0.9559   -2.1537 H       1  UNL1        0.0693
     27 H           1.1525   -2.5313    2.3411 H       1  UNL1        0.0638
     28 H           2.4945    1.7094    0.3067 H       1  UNL1        0.0651
@<TRIPOS>BOND
     1     1     2    1
     2     2     3   ar
     3     3     4    1
     4     4     5   ar
     5     5     6   ar
     6     6     7   ar
     7     7     8   ar
     8     3     9   ar
     9     9    10    1
    10     9    11   ar
    11    11    12   ar
    12    12    13   ar
    13    13    14    1
    14    14    15    3
    15    13    16   ar
    16    16    17    1
    17    17    18    3
    18    16    19   ar
    19    19    20   ar
    20    20     2   ar
    21     8     4   ar
    22    20    11   ar
    23     1    21    1
    24     1    22    1
    25     1    23    1
    26     5    24    1
    27     6    25    1
    28     7    26    1
    29    12    27    1
    30    19    28    1
