@<TRIPOS>MOLECULE
*****
 40 42 0 0 0
SMALL
GASTEIGER

@<TRIPOS>ATOM
      1 C           1.9615   -4.3762   -0.8355 C.3     1  UNL1       -0.0012
      2 C           0.8508   -3.3718   -0.7030 C.2     1  UNL1        0.1669
      3 O          -0.3204   -3.7754   -0.9011 O.2     1  UNL1       -0.2921
      4 C           1.1030   -1.9943   -0.3624 C.ar    1  UNL1        0.0990
      5 C           0.1329   -1.0471   -0.2418 C.ar    1  UNL1        0.1380
      6 N          -1.2193   -1.3000   -0.4335 N.pl3   1  UNL1       -0.2976
      7 C          -2.2223   -0.2828   -0.3125 C.ar    1  UNL1        0.0510
      8 C          -3.2325   -0.3791    0.6131 C.ar    1  UNL1       -0.0388
      9 C          -4.2054    0.6096    0.7292 C.ar    1  UNL1       -0.0570
     10 C          -4.1562    1.7088   -0.1005 C.ar    1  UNL1       -0.0490
     11 C          -5.1805    2.7866   -0.0012 C.3     1  UNL1       -0.0397
     12 C          -3.1537    1.8235   -1.0331 C.ar    1  UNL1       -0.0387
     13 C          -2.1859    0.8151   -1.1309 C.ar    1  UNL1        0.0623
     14 CL         -0.9294    0.9660   -2.3088 Cl      1  UNL1       -0.0816
     15 N           0.4814    0.2069    0.0820 N.ar    1  UNL1       -0.2241
     16 C           1.7517    0.5527    0.2896 C.ar    1  UNL1        0.1534
     17 C           2.0405    1.8631    0.6206 C.ar    1  UNL1        0.3003
     18 N           0.9736    2.7989    0.7292 N.pl3   1  UNL1        0.0819
     19 O           1.1773    4.0047    0.5214 O.2     1  UNL1        0.0415
     20 O          -0.3010    2.4128    1.0624 O.co2   1  UNL1       -0.5760
     21 C           3.3496    2.2463    0.8408 C.ar    1  UNL1        0.0361
     22 C           4.3545    1.3283    0.7306 C.ar    1  UNL1        0.0482
     23 CL          6.0134    1.7851    1.0034 Cl      1  UNL1       -0.0833
     24 C           4.0874    0.0257    0.4036 C.ar    1  UNL1       -0.0302
     25 C           2.7686   -0.3579    0.1823 C.ar    1  UNL1        0.0506
     26 C           2.4587   -1.6616   -0.1494 C.ar    1  UNL1        0.1400
     27 O           3.4891   -2.5704   -0.2553 O.3     1  UNL1       -0.5053
     28 H           2.4714   -4.5793    0.1217 H       1  UNL1        0.0309
     29 H           1.4996   -5.3566   -1.1191 H       1  UNL1        0.0309
     30 H           2.6206   -4.1266   -1.6820 H       1  UNL1        0.0309
     31 H          -1.5893   -2.2338   -0.6745 H       1  UNL1        0.1536
     32 H          -3.2698   -1.2477    1.2673 H       1  UNL1        0.0637
     33 H          -5.0040    0.5438    1.4541 H       1  UNL1        0.0621
     34 H          -5.5085    2.8845    1.0543 H       1  UNL1        0.0278
     35 H          -4.6725    3.7371   -0.2780 H       1  UNL1        0.0278
     36 H          -6.0123    2.6414   -0.7082 H       1  UNL1        0.0278
     37 H          -3.1270    2.6968   -1.6817 H       1  UNL1        0.0635
     38 H           3.5692    3.2849    1.1017 H       1  UNL1        0.0701
     39 H           4.8446   -0.7292    0.3064 H       1  UNL1        0.0640
     40 H           4.2906   -2.3327   -0.8246 H       1  UNL1        0.2922
@<TRIPOS>UNITY_ATOM_ATTR
18 1
charge 1
20 1
charge -1
@<TRIPOS>BOND
     1     1     2    1
     2     2     3    2
     3     2     4    1
     4     4     5   ar
     5     5     6    1
     6     6     7    1
     7     7     8   ar
     8     8     9   ar
     9     9    10   ar
    10    10    11    1
    11    10    12   ar
    12    12    13   ar
    13    13    14    1
    14     5    15   ar
    15    15    16   ar
    16    16    17   ar
    17    17    18    1
    18    18    19    2
    19    18    20    1
    20    17    21   ar
    21    21    22   ar
    22    22    23    1
    23    22    24   ar
    24    24    25   ar
    25    25    26   ar
    26    26    27    1
    27    26     4   ar
    28    13     7   ar
    29    25    16   ar
    30     1    28    1
    31     1    29    1
    32     1    30    1
    33     6    31    1
    34     8    32    1
    35     9    33    1
    36    11    34    1
    37    11    35    1
    38    11    36    1
    39    12    37    1
    40    21    38    1
    41    24    39    1
    42    27    40    1
