
     RDKit          3D

 39 40  0  0  0  0  0  0  0  0999 V2000
    1.9367   -0.6802    2.7823 O   0  0  0  0  0  0  0  0  0  0  0  0
    2.2467   -1.0033    1.4672 C   0  0  0  0  0  0  0  0  0  0  0  0
    1.5350   -2.0388    1.2729 N   0  0  0  0  0  0  0  0  0  0  0  0
    3.2179   -0.1621    0.7079 C   0  0  0  0  0  0  0  0  0  0  0  0
    3.1563   -0.2712   -0.7601 C   0  0  0  0  0  0  0  0  0  0  0  0
    1.9162    0.1301   -1.4838 C   0  0  0  0  0  0  0  0  0  0  0  0
    0.7060   -0.5119   -1.1535 N   0  0  0  0  0  0  0  0  0  0  0  0
   -0.3530    0.1086   -0.8758 C   0  0  0  0  0  0  0  0  0  0  0  0
   -1.2101   -1.0445   -0.6534 C   0  0  0  0  0  0  0  0  0  0  0  0
   -1.0328   -2.3692   -0.9487 C   0  0  0  0  0  0  0  0  0  0  0  0
   -1.7548   -3.4882   -0.6228 C   0  0  0  0  0  0  0  0  0  0  0  0
   -2.8733   -3.2933    0.1412 C   0  0  0  0  0  0  0  0  0  0  0  0
   -3.7757   -4.7362    0.5407 Cl  0  0  0  0  0  0  0  0  0  0  0  0
   -3.1933   -1.9938    0.5286 C   0  0  0  0  0  0  0  0  0  0  0  0
   -2.3654   -0.9759    0.1209 C   0  0  0  0  0  0  0  0  0  0  0  0
   -0.6905    1.4454   -0.5729 C   0  0  0  0  0  0  0  0  0  0  0  0
    0.1052    2.4679   -0.1346 C   0  0  0  0  0  0  0  0  0  0  0  0
    1.4695    2.4025   -0.0686 O   0  0  0  0  0  0  0  0  0  0  0  0
   -0.3386    3.6977    0.3101 C   0  0  0  0  0  0  0  0  0  0  0  0
   -1.6735    3.9929    0.3475 C   0  0  0  0  0  0  0  0  0  0  0  0
   -2.4972    2.9792   -0.0880 C   0  0  0  0  0  0  0  0  0  0  0  0
   -3.8158    3.2374   -0.0659 F   0  0  0  0  0  0  0  0  0  0  0  0
   -1.9820    1.7950   -0.5140 C   0  0  0  0  0  0  0  0  0  0  0  0
    1.9661   -1.3142    3.5649 H   0  0  0  0  0  0  0  0  0  0  0  0
    1.4437   -2.6218    0.4382 H   0  0  0  0  0  0  0  0  0  0  0  0
    4.2442   -0.6061    1.0065 H   0  0  0  0  0  0  0  0  0  0  0  0
    3.2199    0.8252    1.1570 H   0  0  0  0  0  0  0  0  0  0  0  0
    3.4296   -1.3120   -1.0831 H   0  0  0  0  0  0  0  0  0  0  0  0
    3.9834    0.3574   -1.2290 H   0  0  0  0  0  0  0  0  0  0  0  0
    1.9124    1.1391   -1.9028 H   0  0  0  0  0  0  0  0  0  0  0  0
    2.1019   -0.4201   -2.5793 H   0  0  0  0  0  0  0  0  0  0  0  0
   -0.1364   -2.5670   -1.5735 H   0  0  0  0  0  0  0  0  0  0  0  0
   -1.4404   -4.4561   -0.9601 H   0  0  0  0  0  0  0  0  0  0  0  0
   -4.0903   -1.9872    1.1207 H   0  0  0  0  0  0  0  0  0  0  0  0
   -2.8152   -0.1187    0.6251 H   0  0  0  0  0  0  0  0  0  0  0  0
    1.9888    2.7849    0.6986 H   0  0  0  0  0  0  0  0  0  0  0  0
    0.3258    4.5007    0.6553 H   0  0  0  0  0  0  0  0  0  0  0  0
   -2.0604    4.9313    0.6857 H   0  0  0  0  0  0  0  0  0  0  0  0
   -2.8066    1.1764   -0.9015 H   0  0  0  0  0  0  0  0  0  0  0  0
  1  2  1  0
  2  3  2  3
  2  4  1  0
  4  5  1  0
  5  6  1  0
  6  7  1  0
  7  8  2  0
  8  9  1  0
  9 10  2  0
 10 11  1  0
 11 12  2  0
 12 13  1  0
 12 14  1  0
 14 15  2  0
  8 16  1  0
 16 17  2  0
 17 18  1  0
 17 19  1  0
 19 20  2  0
 20 21  1  0
 21 22  1  0
 21 23  2  0
 15  9  1  0
 23 16  1  0
  1 24  1  0
  3 25  1  0
  4 26  1  0
  4 27  1  0
  5 28  1  0
  5 29  1  0
  6 30  1  0
  6 31  1  0
 10 32  1  0
 11 33  1  0
 14 34  1  0
 15 35  1  0
 18 36  1  0
 19 37  1  0
 20 38  1  0
 23 39  1  0
M  END
$$$$
