@<TRIPOS>MOLECULE
*****
 39 40 0 0 0
SMALL
GASTEIGER

@<TRIPOS>ATOM
      1 O           1.9367   -0.6802    2.7823 O.2     1  UNL1       -0.4958
      2 C           2.2467   -1.0033    1.4672 C.2     1  UNL1        0.1797
      3 N           1.5350   -2.0388    1.2729 N.2     1  UNL1       -0.2711
      4 C           3.2179   -0.1621    0.7079 C.3     1  UNL1        0.0244
      5 C           3.1563   -0.2712   -0.7601 C.3     1  UNL1       -0.0251
      6 C           1.9162    0.1301   -1.4838 C.3     1  UNL1        0.0408
      7 N           0.7060   -0.5119   -1.1535 N.2     1  UNL1       -0.2826
      8 C          -0.3530    0.1086   -0.8758 C.2     1  UNL1        0.0762
      9 C          -1.2101   -1.0445   -0.6534 C.ar    1  UNL1        0.0007
     10 C          -1.0328   -2.3692   -0.9487 C.ar    1  UNL1       -0.0512
     11 C          -1.7548   -3.4882   -0.6228 C.ar    1  UNL1       -0.0428
     12 C          -2.8733   -3.2933    0.1412 C.ar    1  UNL1        0.0410
     13 CL         -3.7757   -4.7362    0.5407 Cl      1  UNL1       -0.0835
     14 C          -3.1933   -1.9938    0.5286 C.ar    1  UNL1       -0.0428
     15 C          -2.3654   -0.9759    0.1209 C.ar    1  UNL1       -0.0512
     16 C          -0.6905    1.4454   -0.5729 C.ar    1  UNL1        0.0446
     17 C           0.1052    2.4679   -0.1346 C.ar    1  UNL1        0.1262
     18 O           1.4695    2.4025   -0.0686 O.3     1  UNL1       -0.5061
     19 C          -0.3386    3.6977    0.3101 C.ar    1  UNL1       -0.0168
     20 C          -1.6735    3.9929    0.3475 C.ar    1  UNL1       -0.0230
     21 C          -2.4972    2.9792   -0.0880 C.ar    1  UNL1        0.1243
     22 F          -3.8158    3.2374   -0.0659 F       1  UNL1       -0.2055
     23 C          -1.9820    1.7950   -0.5140 C.ar    1  UNL1       -0.0138
     24 H           1.9661   -1.3142    3.5649 H       1  UNL1        0.2934
     25 H           1.4437   -2.6218    0.4382 H       1  UNL1        0.1895
     26 H           4.2442   -0.6061    1.0065 H       1  UNL1        0.0360
     27 H           3.2199    0.8252    1.1570 H       1  UNL1        0.0360
     28 H           3.4296   -1.3120   -1.0831 H       1  UNL1        0.0288
     29 H           3.9834    0.3574   -1.2290 H       1  UNL1        0.0288
     30 H           1.9124    1.1391   -1.9028 H       1  UNL1        0.0508
     31 H           2.1019   -0.4201   -2.5793 H       1  UNL1        0.0508
     32 H          -0.1364   -2.5670   -1.5735 H       1  UNL1        0.0625
     33 H          -1.4404   -4.4561   -0.9601 H       1  UNL1        0.0632
     34 H          -4.0903   -1.9872    1.1207 H       1  UNL1        0.0632
     35 H          -2.8152   -0.1187    0.6251 H       1  UNL1        0.0625
     36 H           1.9888    2.7849    0.6986 H       1  UNL1        0.2922
     37 H           0.3258    4.5007    0.6553 H       1  UNL1        0.0655
     38 H          -2.0604    4.9313    0.6857 H       1  UNL1        0.0647
     39 H          -2.8066    1.1764   -0.9015 H       1  UNL1        0.0654
@<TRIPOS>BOND
     1     1     2    1
     2     2     3    2
     3     2     4    1
     4     4     5    1
     5     5     6    1
     6     6     7    1
     7     7     8    2
     8     8     9    1
     9     9    10   ar
    10    10    11   ar
    11    11    12   ar
    12    12    13    1
    13    12    14   ar
    14    14    15   ar
    15     8    16    1
    16    16    17   ar
    17    17    18    1
    18    17    19   ar
    19    19    20   ar
    20    20    21   ar
    21    21    22    1
    22    21    23   ar
    23    15     9   ar
    24    23    16   ar
    25     1    24    1
    26     3    25    1
    27     4    26    1
    28     4    27    1
    29     5    28    1
    30     5    29    1
    31     6    30    1
    32     6    31    1
    33    10    32    1
    34    11    33    1
    35    14    34    1
    36    15    35    1
    37    18    36    1
    38    19    37    1
    39    20    38    1
    40    23    39    1
