@<TRIPOS>MOLECULE
*****
 27 30 0 0 0
SMALL
GASTEIGER

@<TRIPOS>ATOM
      1 O          -1.9840   -2.4299    1.6553 O.2     1  UNL1       -0.2833
      2 C          -1.6342   -1.4773    0.9378 C.2     1  UNL1        0.2320
      3 C          -2.5113   -0.5893    0.2043 C.ar    1  UNL1        0.0676
      4 C          -3.8825   -0.4757    0.0427 C.ar    1  UNL1        0.0539
      5 CL         -4.8967   -1.6304    0.8806 Cl      1  UNL1       -0.0827
      6 C          -4.4839    0.4891   -0.7354 C.ar    1  UNL1       -0.0426
      7 C          -3.6507    1.3796   -1.3788 C.ar    1  UNL1       -0.0584
      8 C          -2.2634    1.3020   -1.2442 C.ar    1  UNL1       -0.0369
      9 C          -1.6881    0.3278   -0.4603 C.ar    1  UNL1        0.0639
     10 N          -0.3249    0.0457   -0.1689 N.ar    1  UNL1       -0.2571
     11 C          -0.2653   -1.0226    0.6600 C.ar    1  UNL1        0.1895
     12 N           0.9361   -1.4668    1.0680 N.ar    1  UNL1       -0.2254
     13 C           2.0429   -0.8391    0.6424 C.ar    1  UNL1        0.0786
     14 C           3.3098   -1.2796    1.0511 C.ar    1  UNL1       -0.0355
     15 C           4.4396   -0.6338    0.6128 C.ar    1  UNL1       -0.0597
     16 C           4.3921    0.4509   -0.2281 C.ar    1  UNL1       -0.0609
     17 C           3.1674    0.9011   -0.6421 C.ar    1  UNL1       -0.0473
     18 C           2.0235    0.2508   -0.2010 C.ar    1  UNL1        0.0653
     19 C           0.7648    0.6867   -0.6056 C.ar    1  UNL1        0.2666
     20 O           0.7153    1.6886   -1.3827 O.2     1  UNL1       -0.2666
     21 H          -5.5594    0.5436   -0.8354 H       1  UNL1        0.0632
     22 H          -4.1245    2.1408   -1.9926 H       1  UNL1        0.0619
     23 H          -1.6711    2.0490   -1.7896 H       1  UNL1        0.0638
     24 H           3.3593   -2.1412    1.7197 H       1  UNL1        0.0639
     25 H           5.4351   -0.9750    0.9300 H       1  UNL1        0.0618
     26 H           5.3007    0.9451   -0.5612 H       1  UNL1        0.0618
     27 H           3.0533    1.7598   -1.3119 H       1  UNL1        0.0626
@<TRIPOS>BOND
     1     1     2    2
     2     2     3    1
     3     3     4   ar
     4     4     5    1
     5     4     6   ar
     6     6     7   ar
     7     7     8   ar
     8     8     9   ar
     9     9    10    1
    10    10    11   ar
    11    11    12   ar
    12    12    13   ar
    13    13    14   ar
    14    14    15   ar
    15    15    16   ar
    16    16    17   ar
    17    17    18   ar
    18    18    19   ar
    19    19    20    2
    20    11     2    1
    21    18    13   ar
    22     9     3   ar
    23    19    10   ar
    24     6    21    1
    25     7    22    1
    26     8    23    1
    27    14    24    1
    28    15    25    1
    29    16    26    1
    30    17    27    1
