
     RDKit          3D

 27 30  0  0  0  0  0  0  0  0999 V2000
   -1.9840   -2.4299    1.6553 O   0  0  0  0  0  0  0  0  0  0  0  0
   -1.6342   -1.4773    0.9378 C   0  0  0  0  0  0  0  0  0  0  0  0
   -2.5113   -0.5893    0.2043 C   0  0  0  0  0  0  0  0  0  0  0  0
   -3.8825   -0.4757    0.0427 C   0  0  0  0  0  0  0  0  0  0  0  0
   -4.8967   -1.6304    0.8806 Cl  0  0  0  0  0  0  0  0  0  0  0  0
   -4.4839    0.4891   -0.7354 C   0  0  0  0  0  0  0  0  0  0  0  0
   -3.6507    1.3796   -1.3788 C   0  0  0  0  0  0  0  0  0  0  0  0
   -2.2634    1.3020   -1.2442 C   0  0  0  0  0  0  0  0  0  0  0  0
   -1.6881    0.3278   -0.4603 C   0  0  0  0  0  0  0  0  0  0  0  0
   -0.3249    0.0457   -0.1689 N   0  0  0  0  0  0  0  0  0  0  0  0
   -0.2653   -1.0226    0.6600 C   0  0  0  0  0  0  0  0  0  0  0  0
    0.9361   -1.4668    1.0680 N   0  0  0  0  0  0  0  0  0  0  0  0
    2.0429   -0.8391    0.6424 C   0  0  0  0  0  0  0  0  0  0  0  0
    3.3098   -1.2796    1.0511 C   0  0  0  0  0  0  0  0  0  0  0  0
    4.4396   -0.6338    0.6128 C   0  0  0  0  0  0  0  0  0  0  0  0
    4.3921    0.4509   -0.2281 C   0  0  0  0  0  0  0  0  0  0  0  0
    3.1674    0.9011   -0.6421 C   0  0  0  0  0  0  0  0  0  0  0  0
    2.0235    0.2508   -0.2010 C   0  0  0  0  0  0  0  0  0  0  0  0
    0.7648    0.6867   -0.6056 C   0  0  0  0  0  0  0  0  0  0  0  0
    0.7153    1.6886   -1.3827 O   0  0  0  0  0  0  0  0  0  0  0  0
   -5.5594    0.5436   -0.8354 H   0  0  0  0  0  0  0  0  0  0  0  0
   -4.1245    2.1408   -1.9926 H   0  0  0  0  0  0  0  0  0  0  0  0
   -1.6711    2.0490   -1.7896 H   0  0  0  0  0  0  0  0  0  0  0  0
    3.3593   -2.1412    1.7197 H   0  0  0  0  0  0  0  0  0  0  0  0
    5.4351   -0.9750    0.9300 H   0  0  0  0  0  0  0  0  0  0  0  0
    5.3007    0.9451   -0.5612 H   0  0  0  0  0  0  0  0  0  0  0  0
    3.0533    1.7598   -1.3119 H   0  0  0  0  0  0  0  0  0  0  0  0
  1  2  2  0
  2  3  1  0
  3  4  2  0
  4  5  1  0
  4  6  1  0
  6  7  2  0
  7  8  1  0
  8  9  2  0
  9 10  1  0
 10 11  1  0
 11 12  2  0
 12 13  1  0
 13 14  2  0
 14 15  1  0
 15 16  2  0
 16 17  1  0
 17 18  2  0
 18 19  1  0
 19 20  2  0
 11  2  1  0
 18 13  1  0
  9  3  1  0
 19 10  1  0
  6 21  1  0
  7 22  1  0
  8 23  1  0
 14 24  1  0
 15 25  1  0
 16 26  1  0
 17 27  1  0
M  END
$$$$
