@<TRIPOS>MOLECULE
*****
 46 50 0 0 0
SMALL
GASTEIGER

@<TRIPOS>ATOM
      1 C          -2.4673   -0.2437    1.6124 C.3     1  UNL1       -0.0439
      2 C          -2.6900   -0.6632    0.1979 C.3     1  UNL1        0.0359
      3 C          -3.1013    0.4488   -0.7354 C.3     1  UNL1       -0.0204
      4 C          -4.4201    1.1268   -0.3260 C.3     1  UNL1       -0.0480
      5 C          -3.1038    1.8387   -0.3010 C.3     1  UNL1       -0.0480
      6 N          -1.5822   -1.4362   -0.2690 N.ar    1  UNL1       -0.3265
      7 C          -1.7355   -2.6344   -0.9162 C.ar    1  UNL1        0.0973
      8 N          -0.5322   -3.1325   -1.2360 N.ar    1  UNL1       -0.2351
      9 C           0.3956   -2.2411   -0.7873 C.ar    1  UNL1        0.0967
     10 C           1.8397   -2.3678   -0.9137 C.ar    1  UNL1        0.0026
     11 C           2.7001   -2.6131    0.1344 C.ar    1  UNL1       -0.0498
     12 C           4.0831   -2.7172   -0.0559 C.ar    1  UNL1       -0.0258
     13 C           4.6279   -2.5757   -1.3118 C.ar    1  UNL1        0.1234
     14 F           5.9739   -2.6864   -1.4386 F       1  UNL1       -0.2055
     15 C           3.7832   -2.3299   -2.3739 C.ar    1  UNL1       -0.0258
     16 C           2.4176   -2.2294   -2.1707 C.ar    1  UNL1       -0.0498
     17 C          -0.2563   -1.1919   -0.1892 C.ar    1  UNL1        0.0781
     18 C           0.3246   -0.0248    0.4222 C.ar    1  UNL1        0.0173
     19 C           0.9980   -0.0419    1.6259 C.ar    1  UNL1       -0.0477
     20 C           1.5334    1.1212    2.1331 C.ar    1  UNL1       -0.0181
     21 C           1.3840    2.3010    1.4172 C.ar    1  UNL1        0.1385
     22 N           1.8129    3.5695    1.6962 N.ar    1  UNL1       -0.2348
     23 C           1.4148    4.3610    0.6873 C.ar    1  UNL1        0.0643
     24 C           0.7344    3.6022   -0.2323 C.ar    1  UNL1        0.1438
     25 C           0.1258    3.9866   -1.4580 C.1     1  UNL1        0.1192
     26 N          -0.3645    4.2792   -2.4577 N.1     1  UNL1       -0.1893
     27 N           0.7305    2.3226    0.2479 N.ar    1  UNL1       -0.2906
     28 C           0.2197    1.1827   -0.2249 C.ar    1  UNL1        0.0216
     29 H          -1.9166   -1.0962    2.1089 H       1  UNL1        0.0250
     30 H          -1.8101    0.6311    1.7521 H       1  UNL1        0.0250
     31 H          -3.4133   -0.1561    2.1982 H       1  UNL1        0.0250
     32 H          -3.6080   -1.3356    0.2386 H       1  UNL1        0.0528
     33 H          -3.1142    0.1344   -1.7953 H       1  UNL1        0.0321
     34 H          -5.1018    1.4687   -1.1294 H       1  UNL1        0.0269
     35 H          -4.9189    0.7872    0.5919 H       1  UNL1        0.0269
     36 H          -2.9226    2.6595   -1.0438 H       1  UNL1        0.0269
     37 H          -2.7223    2.0925    0.6941 H       1  UNL1        0.0269
     38 H          -2.6886   -3.1169   -1.1416 H       1  UNL1        0.1029
     39 H           2.2722   -2.7273    1.1068 H       1  UNL1        0.0625
     40 H           4.7000   -2.9126    0.8231 H       1  UNL1        0.0646
     41 H           4.2101   -2.2181   -3.3636 H       1  UNL1        0.0646
     42 H           1.7305   -2.0348   -2.9973 H       1  UNL1        0.0625
     43 H           1.1013   -0.9642    2.1716 H       1  UNL1        0.0626
     44 H           2.0758    1.1336    3.0919 H       1  UNL1        0.0654
     45 H           1.5849    5.4285    0.5830 H       1  UNL1        0.0859
     46 H          -0.3045    1.2148   -1.1692 H       1  UNL1        0.0820
@<TRIPOS>BOND
     1     1     2    1
     2     2     3    1
     3     3     4    1
     4     4     5    1
     5     2     6    1
     6     6     7   ar
     7     7     8   ar
     8     8     9   ar
     9     9    10    1
    10    10    11   ar
    11    11    12   ar
    12    12    13   ar
    13    13    14    1
    14    13    15   ar
    15    15    16   ar
    16     9    17   ar
    17    17    18    1
    18    18    19   ar
    19    19    20   ar
    20    20    21   ar
    21    21    22   ar
    22    22    23   ar
    23    23    24   ar
    24    24    25    1
    25    25    26    3
    26    24    27   ar
    27    27    28   ar
    28     5     3    1
    29    17     6   ar
    30    28    18   ar
    31    16    10   ar
    32    27    21   ar
    33     1    29    1
    34     1    30    1
    35     1    31    1
    36     2    32    1
    37     3    33    1
    38     4    34    1
    39     4    35    1
    40     5    36    1
    41     5    37    1
    42     7    38    1
    43    11    39    1
    44    12    40    1
    45    15    41    1
    46    16    42    1
    47    19    43    1
    48    20    44    1
    49    23    45    1
    50    28    46    1
