
     RDKit          3D

 16 15  0  0  0  0  0  0  0  0999 V2000
   -2.0751    0.2254    0.7480 N   0  0  0  0  0  0  0  0  0  0  0  0
   -1.5647   -0.0496   -0.5705 C   0  0  0  0  0  0  0  0  0  0  0  0
   -0.0724    0.2579   -0.6448 C   0  0  0  0  0  0  0  0  0  0  0  0
    0.6479   -0.6063    0.3978 C   0  0  0  0  0  0  0  0  0  0  0  0
    2.0783   -0.3145    0.3027 C   0  0  0  0  0  0  0  0  0  0  0  0
    2.5550    0.9431    0.6668 O   0  0  0  0  0  0  0  0  0  0  0  0
    2.9045   -1.2096   -0.1181 O   0  0  0  0  0  0  0  0  0  0  0  0
   -2.9761   -0.2916    0.8905 H   0  0  0  0  0  0  0  0  0  0  0  0
   -2.2272    1.2125    0.9608 H   0  0  0  0  0  0  0  0  0  0  0  0
   -1.7678   -1.1020   -0.8318 H   0  0  0  0  0  0  0  0  0  0  0  0
   -2.1040    0.5850   -1.2935 H   0  0  0  0  0  0  0  0  0  0  0  0
    0.1581    1.3003   -0.4117 H   0  0  0  0  0  0  0  0  0  0  0  0
    0.3148   -0.0667   -1.6267 H   0  0  0  0  0  0  0  0  0  0  0  0
    0.2297   -0.4421    1.4180 H   0  0  0  0  0  0  0  0  0  0  0  0
    0.4864   -1.6716    0.1051 H   0  0  0  0  0  0  0  0  0  0  0  0
    3.4125    1.2300    0.1617 H   0  0  0  0  0  0  0  0  0  0  0  0
  1  2  1  0
  2  3  1  0
  3  4  1  0
  4  5  1  0
  5  6  1  0
  5  7  2  0
  1  8  1  0
  1  9  1  0
  2 10  1  0
  2 11  1  0
  3 12  1  0
  3 13  1  0
  4 14  1  0
  4 15  1  0
  6 16  1  0
M  END
$$$$
