@<TRIPOS>MOLECULE
*****
 16 15 0 0 0
SMALL
GASTEIGER

@<TRIPOS>ATOM
      1 N          -2.0751    0.2254    0.7480 N.3     1  UNL1       -0.3300
      2 C          -1.5647   -0.0496   -0.5705 C.3     1  UNL1       -0.0064
      3 C          -0.0724    0.2579   -0.6448 C.3     1  UNL1       -0.0306
      4 C           0.6479   -0.6063    0.3978 C.3     1  UNL1        0.0459
      5 C           2.0783   -0.3145    0.3027 C.2     1  UNL1        0.3047
      6 O           2.5550    0.9431    0.6668 O.3     1  UNL1       -0.4806
      7 O           2.9045   -1.2096   -0.1181 O.2     1  UNL1       -0.2510
      8 H          -2.9761   -0.2916    0.8905 H       1  UNL1        0.1182
      9 H          -2.2272    1.2125    0.9608 H       1  UNL1        0.1182
     10 H          -1.7678   -1.1020   -0.8318 H       1  UNL1        0.0422
     11 H          -2.1040    0.5850   -1.2935 H       1  UNL1        0.0422
     12 H           0.1581    1.3003   -0.4117 H       1  UNL1        0.0283
     13 H           0.3148   -0.0667   -1.6267 H       1  UNL1        0.0283
     14 H           0.2297   -0.4421    1.4180 H       1  UNL1        0.0378
     15 H           0.4864   -1.6716    0.1051 H       1  UNL1        0.0378
     16 H           3.4125    1.2300    0.1617 H       1  UNL1        0.2951
@<TRIPOS>BOND
     1     1     2    1
     2     2     3    1
     3     3     4    1
     4     4     5    1
     5     5     6    1
     6     5     7    2
     7     1     8    1
     8     1     9    1
     9     2    10    1
    10     2    11    1
    11     3    12    1
    12     3    13    1
    13     4    14    1
    14     4    15    1
    15     6    16    1
