
     RDKit          3D

 55 58  0  0  0  0  0  0  0  0999 V2000
    9.4368   -3.4831   -0.7521 C   0  0  0  0  0  0  0  0  0  0  0  0
    8.9588   -2.6200   -1.3068 C   0  0  0  0  0  0  0  0  0  0  0  0
    8.3562   -1.5630   -1.9979 C   0  0  0  0  0  0  0  0  0  0  0  0
    7.6442   -0.3687   -2.7792 C   0  0  0  0  0  0  0  0  0  0  0  0
    6.6856   -0.0333   -2.0274 O   0  0  0  0  0  0  0  0  0  0  0  0
    5.6779    0.3231   -1.3044 C   0  0  0  0  0  0  0  0  0  0  0  0
    5.9009    0.3372    0.2876 C   0  0  0  0  0  0  0  0  0  0  0  0
    4.7369    0.6785    0.7449 N   0  0  0  0  0  0  0  0  0  0  0  0
    3.5762    0.9974    0.5346 C   0  0  0  0  0  0  0  0  0  0  0  0
    2.3942    1.3715    1.2455 C   0  0  0  0  0  0  0  0  0  0  0  0
    2.2608    1.8787    2.4547 F   0  0  0  0  0  0  0  0  0  0  0  0
    1.1850    1.2992    0.6616 C   0  0  0  0  0  0  0  0  0  0  0  0
   -0.0864    1.2907    0.2272 C   0  0  0  0  0  0  0  0  0  0  0  0
   -0.4269    1.8577   -0.9804 C   0  0  0  0  0  0  0  0  0  0  0  0
   -1.6162    2.0482   -1.3872 C   0  0  0  0  0  0  0  0  0  0  0  0
   -2.6888    1.6580   -0.5781 C   0  0  0  0  0  0  0  0  0  0  0  0
   -3.8817    1.9816   -1.0849 F   0  0  0  0  0  0  0  0  0  0  0  0
   -2.4937    1.0642    0.6423 C   0  0  0  0  0  0  0  0  0  0  0  0
   -3.6249    0.5713    1.5118 C   0  0  1  0  0  0  0  0  0  0  0  0
   -2.9255    0.2890    2.8726 C   0  0  0  0  0  0  0  0  0  0  0  0
   -4.4718    1.6530    1.7539 N   0  0  0  0  0  0  0  0  0  0  0  0
   -5.5277    1.9793    1.1397 C   0  0  0  0  0  0  0  0  0  0  0  0
   -6.1805    3.1373    1.6158 N   0  0  0  0  0  0  0  0  0  0  0  0
   -6.0000    0.9557   -0.2253 S   0  0  0  0  0  0  0  0  0  0  0  0
   -5.2390   -0.6597   -0.0473 C   0  0  1  0  0  0  0  0  0  0  0  0
   -6.2824   -1.7201   -0.0255 C   0  0  0  0  0  0  0  0  0  0  0  0
   -6.8949   -2.7010    0.7168 C   0  0  0  0  0  0  0  0  0  0  0  0
   -6.8399   -1.6603   -1.3087 O   0  0  0  0  0  0  0  0  0  0  0  0
   -3.8924   -1.1493   -0.2919 C   0  0  0  0  0  0  0  0  0  0  0  0
   -4.2633   -0.6864    1.0832 C   0  0  1  0  0  0  0  0  0  0  0  0
   -1.1863    0.8882    1.0447 C   0  0  0  0  0  0  0  0  0  0  0  0
    3.3925    0.9947   -1.0325 C   0  0  0  0  0  0  0  0  0  0  0  0
    4.5401    0.6472   -1.4797 N   0  0  0  0  0  0  0  0  0  0  0  0
    9.9914   -3.3550    0.2714 H   0  0  0  0  0  0  0  0  0  0  0  0
   10.2720   -4.1768   -1.3126 H   0  0  0  0  0  0  0  0  0  0  0  0
    8.7714   -4.4462   -0.4335 H   0  0  0  0  0  0  0  0  0  0  0  0
    8.4936    0.3598   -2.7901 H   0  0  0  0  0  0  0  0  0  0  0  0
    7.4872   -0.9246   -3.7386 H   0  0  0  0  0  0  0  0  0  0  0  0
    6.8255    0.0867    0.5096 H   0  0  0  0  0  0  0  0  0  0  0  0
    1.6603    0.3353   -0.1936 H   0  0  0  0  0  0  0  0  0  0  0  0
    0.4355    2.1996   -1.6091 H   0  0  0  0  0  0  0  0  0  0  0  0
   -1.8738    2.5458   -2.3637 H   0  0  0  0  0  0  0  0  0  0  0  0
   -2.3570   -0.6642    2.8446 H   0  0  0  0  0  0  0  0  0  0  0  0
   -3.7368    0.1225    3.5897 H   0  0  0  0  0  0  0  0  0  0  0  0
   -2.3015    1.1767    3.0979 H   0  0  0  0  0  0  0  0  0  0  0  0
   -6.0485    4.0520    1.1028 H   0  0  0  0  0  0  0  0  0  0  0  0
   -6.7700    3.1057    2.4624 H   0  0  0  0  0  0  0  0  0  0  0  0
   -7.3863   -2.2549    1.6557 H   0  0  0  0  0  0  0  0  0  0  0  0
   -7.7736   -3.1956    0.2075 H   0  0  0  0  0  0  0  0  0  0  0  0
   -6.2307   -3.5383    1.0942 H   0  0  0  0  0  0  0  0  0  0  0  0
   -3.7560   -2.3027   -0.2929 H   0  0  0  0  0  0  0  0  0  0  0  0
   -2.9975   -0.6964   -0.6732 H   0  0  0  0  0  0  0  0  0  0  0  0
   -4.5334   -1.3844    1.8715 H   0  0  0  0  0  0  0  0  0  0  0  0
   -0.9120    0.4283    1.9762 H   0  0  0  0  0  0  0  0  0  0  0  0
    2.5162    1.2700   -1.4195 H   0  0  0  0  0  0  0  0  0  0  0  0
  1  2  1  0
  2  3  3  0
  3  4  1  0
  4  5  1  0
  5  6  1  0
  6  7  2  0
  7  8  1  0
  8  9  2  0
  9 10  1  0
 10 11  1  0
 10 12  2  0
 12 13  1  0
 13 14  2  0
 14 15  1  0
 15 16  2  0
 16 17  1  0
 16 18  1  0
 18 19  1  0
 19 20  1  1
 19 21  1  0
 21 22  2  0
 22 23  1  0
 22 24  1  0
 24 25  1  0
 25 26  1  1
 26 27  1  0
 26 28  2  0
 25 29  1  0
 29 30  1  0
 18 31  2  0
  9 32  1  0
 32 33  2  0
 33  6  1  0
 31 13  1  0
 30 19  1  0
 30 25  1  0
  1 34  1  0
  1 35  1  0
  1 36  1  0
  4 37  1  0
  4 38  1  0
  7 39  1  0
 12 40  1  0
 14 41  1  0
 15 42  1  0
 20 43  1  0
 20 44  1  0
 20 45  1  0
 23 46  1  0
 23 47  1  0
 27 48  1  0
 27 49  1  0
 27 50  1  0
 29 51  1  0
 29 52  1  0
 30 53  1  1
 31 54  1  0
 32 55  1  0
M  END
$$$$
