@<TRIPOS>MOLECULE
*****
 55 58 0 0 0
SMALL
GASTEIGER

@<TRIPOS>ATOM
      1 C           9.4368   -3.4831   -0.7521 C.3     1  UNL1       -0.0025
      2 C           8.9588   -2.6200   -1.3068 C.1     1  UNL1       -0.1022
      3 C           8.3562   -1.5630   -1.9979 C.1     1  UNL1       -0.0617
      4 C           7.6442   -0.3687   -2.7792 C.3     1  UNL1        0.1516
      5 O           6.6856   -0.0333   -2.0274 O.3     1  UNL1       -0.4624
      6 C           5.6779    0.3231   -1.3044 C.ar    1  UNL1        0.2344
      7 C           5.9009    0.3372    0.2876 C.ar    1  UNL1        0.0899
      8 N           4.7369    0.6785    0.7449 N.ar    1  UNL1       -0.2459
      9 C           3.5762    0.9974    0.5346 C.ar    1  UNL1        0.1172
     10 C           2.3942    1.3715    1.2455 C.2     1  UNL1        0.1507
     11 F           2.2608    1.8787    2.4547 F       1  UNL1       -0.2032
     12 C           1.1850    1.2992    0.6616 C.2     1  UNL1       -0.0171
     13 C          -0.0864    1.2907    0.2272 C.ar    1  UNL1       -0.0217
     14 C          -0.4269    1.8577   -0.9804 C.ar    1  UNL1       -0.0518
     15 C          -1.6162    2.0482   -1.3872 C.ar    1  UNL1       -0.0255
     16 C          -2.6888    1.6580   -0.5781 C.ar    1  UNL1        0.1289
     17 F          -3.8817    1.9816   -1.0849 F       1  UNL1       -0.2051
     18 C          -2.4937    1.0642    0.6423 C.ar    1  UNL1        0.0158
     19 C          -3.6249    0.5713    1.5118 C.3     1  UNL1        0.0935
     20 C          -2.9255    0.2890    2.8726 C.3     1  UNL1       -0.0351
     21 N          -4.4718    1.6530    1.7539 N.2     1  UNL1       -0.2521
     22 C          -5.5277    1.9793    1.1397 C.2     1  UNL1        0.1484
     23 N          -6.1805    3.1373    1.6158 N.pl3   1  UNL1       -0.3380
     24 S          -6.0000    0.9557   -0.2253 S.3     1  UNL1       -0.0763
     25 C          -5.2390   -0.6597   -0.0473 C.3     1  UNL1        0.0871
     26 C          -6.2824   -1.7201   -0.0255 C.2     1  UNL1        0.1469
     27 C          -6.8949   -2.7010    0.7168 C.3     1  UNL1       -0.0046
     28 O          -6.8399   -1.6603   -1.3087 O.2     1  UNL1       -0.2962
     29 C          -3.8924   -1.1493   -0.2919 C.3     1  UNL1       -0.0237
     30 C          -4.2633   -0.6864    1.0832 C.3     1  UNL1        0.0118
     31 C          -1.1863    0.8882    1.0447 C.ar    1  UNL1       -0.0463
     32 C           3.3925    0.9947   -1.0325 C.ar    1  UNL1        0.0596
     33 N           4.5401    0.6472   -1.4797 N.ar    1  UNL1       -0.2178
     34 H           9.9914   -3.3550    0.2714 H       1  UNL1        0.0362
     35 H          10.2720   -4.1768   -1.3126 H       1  UNL1        0.0362
     36 H           8.7714   -4.4462   -0.4335 H       1  UNL1        0.0362
     37 H           8.4936    0.3598   -2.7901 H       1  UNL1        0.0837
     38 H           7.4872   -0.9246   -3.7386 H       1  UNL1        0.0837
     39 H           6.8255    0.0867    0.5096 H       1  UNL1        0.0884
     40 H           1.6603    0.3353   -0.1936 H       1  UNL1        0.0653
     41 H           0.4355    2.1996   -1.6091 H       1  UNL1        0.0624
     42 H          -1.8738    2.5458   -2.3637 H       1  UNL1        0.0646
     43 H          -2.3570   -0.6642    2.8446 H       1  UNL1        0.0256
     44 H          -3.7368    0.1225    3.5897 H       1  UNL1        0.0256
     45 H          -2.3015    1.1767    3.0979 H       1  UNL1        0.0256
     46 H          -6.0485    4.0520    1.1028 H       1  UNL1        0.1442
     47 H          -6.7700    3.1057    2.4624 H       1  UNL1        0.1442
     48 H          -7.3863   -2.2549    1.6557 H       1  UNL1        0.0306
     49 H          -7.7736   -3.1956    0.2075 H       1  UNL1        0.0306
     50 H          -6.2307   -3.5383    1.0942 H       1  UNL1        0.0306
     51 H          -3.7560   -2.3027   -0.2929 H       1  UNL1        0.0287
     52 H          -2.9975   -0.6964   -0.6732 H       1  UNL1        0.0287
     53 H          -4.5334   -1.3844    1.8715 H       1  UNL1        0.0346
     54 H          -0.9120    0.4283    1.9762 H       1  UNL1        0.0628
     55 H           2.5162    1.2700   -1.4195 H       1  UNL1        0.0853
@<TRIPOS>BOND
     1     1     2    1
     2     2     3    3
     3     3     4    1
     4     4     5    1
     5     5     6    1
     6     6     7   ar
     7     7     8   ar
     8     8     9   ar
     9     9    10    1
    10    10    11    1
    11    10    12    2
    12    12    13    1
    13    13    14   ar
    14    14    15   ar
    15    15    16   ar
    16    16    17    1
    17    16    18   ar
    18    18    19    1
    19    19    20    1
    20    19    21    1
    21    21    22    2
    22    22    23    1
    23    22    24    1
    24    24    25    1
    25    25    26    1
    26    26    27    1
    27    26    28    2
    28    25    29    1
    29    29    30    1
    30    18    31   ar
    31     9    32   ar
    32    32    33   ar
    33    33     6   ar
    34    31    13   ar
    35    30    19    1
    36    30    25    1
    37     1    34    1
    38     1    35    1
    39     1    36    1
    40     4    37    1
    41     4    38    1
    42     7    39    1
    43    12    40    1
    44    14    41    1
    45    15    42    1
    46    20    43    1
    47    20    44    1
    48    20    45    1
    49    23    46    1
    50    23    47    1
    51    27    48    1
    52    27    49    1
    53    27    50    1
    54    29    51    1
    55    29    52    1
    56    30    53    1
    57    31    54    1
    58    32    55    1
