
     RDKit          3D

 53 57  0  0  0  0  0  0  0  0999 V2000
   -1.4882    0.9601    1.2178 O   0  0  0  0  0  0  0  0  0  0  0  0
   -1.1081    0.0785    0.3670 C   0  0  0  0  0  0  0  0  0  0  0  0
   -2.1492   -0.4082   -0.4675 N   0  0  0  0  0  0  0  0  0  0  0  0
   -3.5330    0.0778   -0.3434 C   0  0  1  0  0  0  0  0  0  0  0  0
   -4.4054    0.1000   -1.5265 C   0  0  0  0  0  0  0  0  0  0  0  0
   -4.6473   -0.9147   -0.4087 C   0  0  2  0  0  0  0  0  0  0  0  0
   -5.9040   -0.6755    0.3179 C   0  0  0  0  0  0  0  0  0  0  0  0
   -6.7065   -1.7437    0.6566 C   0  0  0  0  0  0  0  0  0  0  0  0
   -7.8974   -1.6080    1.3373 C   0  0  0  0  0  0  0  0  0  0  0  0
   -8.3068   -0.3419    1.6975 C   0  0  0  0  0  0  0  0  0  0  0  0
   -7.5198    0.7409    1.3690 C   0  0  0  0  0  0  0  0  0  0  0  0
   -6.3327    0.5851    0.6883 C   0  0  0  0  0  0  0  0  0  0  0  0
    0.2447   -0.3416    0.3033 N   0  0  0  0  0  0  0  0  0  0  0  0
    1.1842    0.2461    1.2342 C   0  0  0  0  0  0  0  0  0  0  0  0
    2.5460   -0.3997    1.1466 C   0  0  0  0  0  0  0  0  0  0  0  0
    2.9805   -0.3786   -0.2900 C   0  0  0  0  0  0  0  0  0  0  0  0
    2.9973    1.0400   -0.8209 C   0  0  0  0  0  0  0  0  0  0  0  0
    3.9879    1.8876   -0.0797 C   0  0  0  0  0  0  0  0  0  0  0  0
    5.3345    1.2819   -0.2072 C   0  0  0  0  0  0  0  0  0  0  0  0
    6.4384    2.1046   -0.2091 C   0  0  0  0  0  0  0  0  0  0  0  0
    7.7071    1.5695   -0.3280 C   0  0  0  0  0  0  0  0  0  0  0  0
    7.8094    0.1996   -0.4421 C   0  0  0  0  0  0  0  0  0  0  0  0
    6.7037   -0.6194   -0.4397 C   0  0  0  0  0  0  0  0  0  0  0  0
    5.4211   -0.0874   -0.3203 C   0  0  0  0  0  0  0  0  0  0  0  0
    4.3135   -0.9099   -0.3182 O   0  0  0  0  0  0  0  0  0  0  0  0
    2.0805   -1.2560   -1.0882 C   0  0  0  0  0  0  0  0  0  0  0  0
    0.6570   -1.3103   -0.6489 C   0  0  0  0  0  0  0  0  0  0  0  0
   -1.9211   -1.1379   -1.1918 H   0  0  0  0  0  0  0  0  0  0  0  0
   -3.6717    0.8493    0.4406 H   0  0  0  0  0  0  0  0  0  0  0  0
   -4.0736   -0.3000   -2.5098 H   0  0  0  0  0  0  0  0  0  0  0  0
   -5.0931    0.9646   -1.6255 H   0  0  0  0  0  0  0  0  0  0  0  0
   -4.4283   -1.9770   -0.6253 H   0  0  0  0  0  0  0  0  0  0  0  0
   -6.4338   -2.7717    0.3982 H   0  0  0  0  0  0  0  0  0  0  0  0
   -8.5027   -2.4939    1.5850 H   0  0  0  0  0  0  0  0  0  0  0  0
   -9.2480   -0.2290    2.2360 H   0  0  0  0  0  0  0  0  0  0  0  0
   -7.8642    1.7233    1.6632 H   0  0  0  0  0  0  0  0  0  0  0  0
   -5.6985    1.4220    0.4200 H   0  0  0  0  0  0  0  0  0  0  0  0
    0.7910   -0.0181    2.2602 H   0  0  0  0  0  0  0  0  0  0  0  0
    1.2396    1.3402    1.1731 H   0  0  0  0  0  0  0  0  0  0  0  0
    2.4637   -1.4426    1.4992 H   0  0  0  0  0  0  0  0  0  0  0  0
    3.2330    0.1853    1.7900 H   0  0  0  0  0  0  0  0  0  0  0  0
    2.0024    1.4812   -0.7154 H   0  0  0  0  0  0  0  0  0  0  0  0
    3.3065    1.0114   -1.8781 H   0  0  0  0  0  0  0  0  0  0  0  0
    3.9559    2.9069   -0.5162 H   0  0  0  0  0  0  0  0  0  0  0  0
    3.7704    1.9862    1.0020 H   0  0  0  0  0  0  0  0  0  0  0  0
    6.3493    3.1767   -0.1186 H   0  0  0  0  0  0  0  0  0  0  0  0
    8.5892    2.2130   -0.3306 H   0  0  0  0  0  0  0  0  0  0  0  0
    8.8179   -0.2064   -0.5348 H   0  0  0  0  0  0  0  0  0  0  0  0
    6.7774   -1.6836   -0.5284 H   0  0  0  0  0  0  0  0  0  0  0  0
    2.5331   -2.2920   -1.0649 H   0  0  0  0  0  0  0  0  0  0  0  0
    2.1949   -0.9525   -2.1574 H   0  0  0  0  0  0  0  0  0  0  0  0
    0.4645   -2.3221   -0.1800 H   0  0  0  0  0  0  0  0  0  0  0  0
    0.0391   -1.3100   -1.5821 H   0  0  0  0  0  0  0  0  0  0  0  0
  1  2  2  0
  2  3  1  0
  3  4  1  0
  4  5  1  0
  5  6  1  0
  6  7  1  0
  7  8  2  0
  8  9  1  0
  9 10  2  0
 10 11  1  0
 11 12  2  0
  2 13  1  0
 13 14  1  0
 14 15  1  0
 15 16  1  0
 16 17  1  0
 17 18  1  0
 18 19  1  0
 19 20  2  0
 20 21  1  0
 21 22  2  0
 22 23  1  0
 23 24  2  0
 24 25  1  0
 16 26  1  0
 26 27  1  0
  6  4  1  0
 12  7  1  0
 27 13  1  0
 25 16  1  0
 24 19  1  0
  3 28  1  0
  4 29  1  1
  5 30  1  0
  5 31  1  0
  6 32  1  6
  8 33  1  0
  9 34  1  0
 10 35  1  0
 11 36  1  0
 12 37  1  0
 14 38  1  0
 14 39  1  0
 15 40  1  0
 15 41  1  0
 17 42  1  0
 17 43  1  0
 18 44  1  0
 18 45  1  0
 20 46  1  0
 21 47  1  0
 22 48  1  0
 23 49  1  0
 26 50  1  0
 26 51  1  0
 27 52  1  0
 27 53  1  0
M  END
$$$$
