@<TRIPOS>MOLECULE
*****
 53 57 0 0 0
SMALL
GASTEIGER

@<TRIPOS>ATOM
      1 O          -1.4882    0.9601    1.2178 O.2     1  UNL1       -0.2526
      2 C          -1.1081    0.0785    0.3670 C.2     1  UNL1        0.3024
      3 N          -2.1492   -0.4082   -0.4675 N.am    1  UNL1       -0.2958
      4 C          -3.5330    0.0778   -0.3434 C.3     1  UNL1        0.0320
      5 C          -4.4054    0.1000   -1.5265 C.3     1  UNL1       -0.0254
      6 C          -4.6473   -0.9147   -0.4087 C.3     1  UNL1        0.0043
      7 C          -5.9040   -0.6755    0.3179 C.ar    1  UNL1       -0.0425
      8 C          -6.7065   -1.7437    0.6566 C.ar    1  UNL1       -0.0582
      9 C          -7.8974   -1.6080    1.3373 C.ar    1  UNL1       -0.0615
     10 C          -8.3068   -0.3419    1.6975 C.ar    1  UNL1       -0.0617
     11 C          -7.5198    0.7409    1.3690 C.ar    1  UNL1       -0.0615
     12 C          -6.3327    0.5851    0.6883 C.ar    1  UNL1       -0.0582
     13 N           0.2447   -0.3416    0.3033 N.am    1  UNL1       -0.2854
     14 C           1.1842    0.2461    1.2342 C.3     1  UNL1        0.0197
     15 C           2.5460   -0.3997    1.1466 C.3     1  UNL1        0.0030
     16 C           2.9805   -0.3786   -0.2900 C.3     1  UNL1        0.1138
     17 C           2.9973    1.0400   -0.8209 C.3     1  UNL1       -0.0087
     18 C           3.9879    1.8876   -0.0797 C.3     1  UNL1       -0.0206
     19 C           5.3345    1.2819   -0.2072 C.ar    1  UNL1       -0.0056
     20 C           6.4384    2.1046   -0.2091 C.ar    1  UNL1       -0.0551
     21 C           7.7071    1.5695   -0.3280 C.ar    1  UNL1       -0.0613
     22 C           7.8094    0.1996   -0.4421 C.ar    1  UNL1       -0.0583
     23 C           6.7037   -0.6194   -0.4397 C.ar    1  UNL1       -0.0196
     24 C           5.4211   -0.0874   -0.3203 C.ar    1  UNL1        0.1245
     25 O           4.3135   -0.9099   -0.3182 O.3     1  UNL1       -0.4853
     26 C           2.0805   -1.2560   -1.0882 C.3     1  UNL1        0.0030
     27 C           0.6570   -1.3103   -0.6489 C.3     1  UNL1        0.0197
     28 H          -1.9211   -1.1379   -1.1918 H       1  UNL1        0.1505
     29 H          -3.6717    0.8493    0.4406 H       1  UNL1        0.0505
     30 H          -4.0736   -0.3000   -2.5098 H       1  UNL1        0.0290
     31 H          -5.0931    0.9646   -1.6255 H       1  UNL1        0.0290
     32 H          -4.4283   -1.9770   -0.6253 H       1  UNL1        0.0367
     33 H          -6.4338   -2.7717    0.3982 H       1  UNL1        0.0620
     34 H          -8.5027   -2.4939    1.5850 H       1  UNL1        0.0618
     35 H          -9.2480   -0.2290    2.2360 H       1  UNL1        0.0618
     36 H          -7.8642    1.7233    1.6632 H       1  UNL1        0.0618
     37 H          -5.6985    1.4220    0.4200 H       1  UNL1        0.0620
     38 H           0.7910   -0.0181    2.2602 H       1  UNL1        0.0466
     39 H           1.2396    1.3402    1.1731 H       1  UNL1        0.0466
     40 H           2.4637   -1.4426    1.4992 H       1  UNL1        0.0319
     41 H           3.2330    0.1853    1.7900 H       1  UNL1        0.0319
     42 H           2.0024    1.4812   -0.7154 H       1  UNL1        0.0307
     43 H           3.3065    1.0114   -1.8781 H       1  UNL1        0.0307
     44 H           3.9559    2.9069   -0.5162 H       1  UNL1        0.0316
     45 H           3.7704    1.9862    1.0020 H       1  UNL1        0.0316
     46 H           6.3493    3.1767   -0.1186 H       1  UNL1        0.0621
     47 H           8.5892    2.2130   -0.3306 H       1  UNL1        0.0618
     48 H           8.8179   -0.2064   -0.5348 H       1  UNL1        0.0619
     49 H           6.7774   -1.6836   -0.5284 H       1  UNL1        0.0654
     50 H           2.5331   -2.2920   -1.0649 H       1  UNL1        0.0319
     51 H           2.1949   -0.9525   -2.1574 H       1  UNL1        0.0319
     52 H           0.4645   -2.3221   -0.1800 H       1  UNL1        0.0466
     53 H           0.0391   -1.3100   -1.5821 H       1  UNL1        0.0466
@<TRIPOS>BOND
     1     1     2    2
     2     2     3   am
     3     3     4    1
     4     4     5    1
     5     5     6    1
     6     6     7    1
     7     7     8   ar
     8     8     9   ar
     9     9    10   ar
    10    10    11   ar
    11    11    12   ar
    12     2    13   am
    13    13    14    1
    14    14    15    1
    15    15    16    1
    16    16    17    1
    17    17    18    1
    18    18    19    1
    19    19    20   ar
    20    20    21   ar
    21    21    22   ar
    22    22    23   ar
    23    23    24   ar
    24    24    25    1
    25    16    26    1
    26    26    27    1
    27     6     4    1
    28    12     7   ar
    29    27    13    1
    30    25    16    1
    31    24    19   ar
    32     3    28    1
    33     4    29    1
    34     5    30    1
    35     5    31    1
    36     6    32    1
    37     8    33    1
    38     9    34    1
    39    10    35    1
    40    11    36    1
    41    12    37    1
    42    14    38    1
    43    14    39    1
    44    15    40    1
    45    15    41    1
    46    17    42    1
    47    17    43    1
    48    18    44    1
    49    18    45    1
    50    20    46    1
    51    21    47    1
    52    22    48    1
    53    23    49    1
    54    26    50    1
    55    26    51    1
    56    27    52    1
    57    27    53    1
