@<TRIPOS>MOLECULE
*****
 50 53 0 0 0
SMALL
GASTEIGER

@<TRIPOS>ATOM
      1 C           6.3289    0.2985    1.3594 C.3     1  UNL1       -0.0375
      2 C           5.9095    0.9308    0.0769 C.ar    1  UNL1       -0.0186
      3 C           6.8691    1.6237   -0.6784 C.ar    1  UNL1       -0.0368
      4 C           6.5085    2.2152   -1.8636 C.ar    1  UNL1        0.0593
      5 CL          7.6947    3.0828   -2.8163 Cl      1  UNL1       -0.0820
      6 C           5.1913    2.0972   -2.2635 C.ar    1  UNL1        0.0467
      7 N           4.2798    1.4168   -1.5078 N.ar    1  UNL1       -0.2486
      8 C           4.6082    0.8360   -0.3557 C.ar    1  UNL1        0.1286
      9 C           3.6172    0.0996    0.4600 C.2     1  UNL1        0.2668
     10 O           3.9737   -0.4231    1.5245 O.2     1  UNL1       -0.2682
     11 N           2.2701   -0.0200    0.0494 N.am    1  UNL1       -0.2802
     12 C           1.2289   -0.6905    0.7286 C.ar    1  UNL1        0.0343
     13 C           1.3192   -1.3569    1.9189 C.ar    1  UNL1       -0.0377
     14 C           0.2512   -1.9971    2.5338 C.ar    1  UNL1       -0.0243
     15 C          -0.9846   -1.9475    1.8825 C.ar    1  UNL1        0.1312
     16 F          -2.0244   -2.5613    2.4714 F       1  UNL1       -0.2050
     17 C          -1.1204   -1.2857    0.6793 C.ar    1  UNL1        0.0450
     18 C          -2.4578   -1.2837    0.0501 C.3     1  UNL1        0.2272
     19 C          -2.8662   -2.7801    0.0014 C.3     1  UNL1       -0.0082
     20 N          -3.3473   -0.6757    0.9497 N.2     1  UNL1       -0.0696
     21 C          -4.2205    0.2020    0.9139 C.2     1  UNL1        0.3075
     22 N          -4.9741    0.5945    2.0759 N.pl3   1  UNL1       -0.2488
     23 C          -4.5239    0.8977   -0.3571 C.3     1  UNL1        0.1919
     24 C          -5.5464    1.9017   -0.5201 C.3     1  UNL1       -0.0138
     25 C          -5.7069    0.4530   -1.0879 C.3     1  UNL1       -0.0138
     26 S          -2.9981    0.9232   -1.3191 S.O2    1  UNL1        0.0220
     27 O          -3.2655    1.3913   -2.7153 O.2     1  UNL1       -0.1703
     28 O          -2.0003    1.7583   -0.6035 O.2     1  UNL1       -0.1703
     29 C          -2.5502   -0.7957   -1.3306 C.3     1  UNL1        0.2674
     30 F          -1.5676   -1.1247   -2.2030 F       1  UNL1       -0.2156
     31 C          -0.0415   -0.6796    0.1281 C.ar    1  UNL1       -0.0300
     32 H           5.8433    0.7631    2.2389 H       1  UNL1        0.0278
     33 H           7.4263    0.5000    1.5054 H       1  UNL1        0.0278
     34 H           6.2602   -0.8088    1.3340 H       1  UNL1        0.0278
     35 H           7.8932    1.6965   -0.3348 H       1  UNL1        0.0636
     36 H           4.9235    2.5687   -3.1993 H       1  UNL1        0.0844
     37 H           2.0753    0.4707   -0.8858 H       1  UNL1        0.1552
     38 H           2.2549   -1.4088    2.4367 H       1  UNL1        0.0637
     39 H           0.3889   -2.5076    3.4768 H       1  UNL1        0.0647
     40 H          -3.5403   -2.9992    0.8439 H       1  UNL1        0.0280
     41 H          -1.9711   -3.3950    0.0254 H       1  UNL1        0.0280
     42 H          -3.4318   -2.9738   -0.9445 H       1  UNL1        0.0280
     43 H          -4.5390    0.9516    2.9389 H       1  UNL1        0.2881
     44 H          -6.0030    0.5046    2.0178 H       1  UNL1        0.2881
     45 H          -6.2116    2.1105    0.3379 H       1  UNL1        0.0293
     46 H          -5.4466    2.6883   -1.2810 H       1  UNL1        0.0293
     47 H          -5.6980    0.3959   -2.2113 H       1  UNL1        0.0293
     48 H          -6.4616   -0.1780   -0.6031 H       1  UNL1        0.0293
     49 H          -3.4809   -1.3064   -1.7667 H       1  UNL1        0.0951
     50 H          -0.1364   -0.1731   -0.7926 H       1  UNL1        0.0641
@<TRIPOS>BOND
     1     1     2    1
     2     2     3   ar
     3     3     4   ar
     4     4     5    1
     5     4     6   ar
     6     6     7   ar
     7     7     8   ar
     8     8     9    1
     9     9    10    2
    10     9    11   am
    11    11    12    1
    12    12    13   ar
    13    13    14   ar
    14    14    15   ar
    15    15    16    1
    16    15    17   ar
    17    17    18    1
    18    18    19    1
    19    18    20    1
    20    20    21    2
    21    21    22    1
    22    21    23    1
    23    23    24    1
    24    24    25    1
    25    23    26    1
    26    26    27    2
    27    26    28    2
    28    26    29    1
    29    29    30    1
    30    17    31   ar
    31     8     2   ar
    32    31    12   ar
    33    29    18    1
    34    25    23    1
    35     1    32    1
    36     1    33    1
    37     1    34    1
    38     3    35    1
    39     6    36    1
    40    11    37    1
    41    13    38    1
    42    14    39    1
    43    19    40    1
    44    19    41    1
    45    19    42    1
    46    22    43    1
    47    22    44    1
    48    24    45    1
    49    24    46    1
    50    25    47    1
    51    25    48    1
    52    29    49    1
    53    31    50    1
