@<TRIPOS>MOLECULE
*****
 44 46 0 0 0
SMALL
GASTEIGER

@<TRIPOS>ATOM
      1 C           2.4668   -3.0812   -2.5876 C.3     1  UNL1        0.0790
      2 O           2.4830   -2.0056   -1.6660 O.3     1  UNL1       -0.4915
      3 C           1.3274   -1.4240   -1.1900 C.ar    1  UNL1        0.1616
      4 C           0.1061   -1.9365   -1.6524 C.ar    1  UNL1       -0.0156
      5 C          -1.0467   -1.3560   -1.1772 C.ar    1  UNL1       -0.0459
      6 C          -1.0509   -0.3151   -0.2858 C.ar    1  UNL1        0.0407
      7 C          -2.3089    0.2927    0.2107 C.2     1  UNL1        0.2485
      8 O          -2.2644    1.2380    1.0212 O.2     1  UNL1       -0.2698
      9 N          -3.5823   -0.1651   -0.2057 N.am    1  UNL1       -0.2769
     10 C          -4.7885    0.4536    0.3010 C.ar    1  UNL1        0.1049
     11 C          -5.3671    1.5285   -0.3472 C.ar    1  UNL1        0.1473
     12 F          -4.7576    1.9718   -1.4691 F       1  UNL1       -0.2034
     13 C          -6.5251    2.1078    0.1561 C.ar    1  UNL1       -0.0244
     14 C          -7.1246    1.6278    1.3101 C.ar    1  UNL1       -0.0562
     15 C          -6.5527    0.5615    1.9551 C.ar    1  UNL1       -0.0244
     16 C          -5.4027   -0.0092    1.4500 C.ar    1  UNL1        0.1473
     17 F          -4.8382   -1.0625    2.0876 F       1  UNL1       -0.2034
     18 C           0.1628    0.1589    0.1435 C.ar    1  UNL1       -0.0042
     19 C           1.3775   -0.3933   -0.3063 C.ar    1  UNL1        0.1630
     20 O           2.5226    0.1422    0.1743 O.3     1  UNL1       -0.4851
     21 C           3.8538   -0.1029   -0.0102 C.3     1  UNL1        0.1004
     22 C           4.4538   -0.3223    1.3985 C.3     1  UNL1       -0.0158
     23 C           4.4471    1.1391    1.8689 C.3     1  UNL1       -0.0496
     24 C           5.2178    1.7792    0.7343 C.3     1  UNL1       -0.0496
     25 C           4.6174    1.1504   -0.4834 C.3     1  UNL1       -0.0158
     26 H           3.5203   -3.3424   -2.8381 H       1  UNL1        0.0660
     27 H           1.9150   -2.8188   -3.5143 H       1  UNL1        0.0660
     28 H           1.9941   -3.9508   -2.0708 H       1  UNL1        0.0660
     29 H           0.1130   -2.7641   -2.3610 H       1  UNL1        0.0655
     30 H          -1.9714   -1.7593   -1.5404 H       1  UNL1        0.0626
     31 H          -3.6794   -0.9447   -0.8753 H       1  UNL1        0.1553
     32 H          -6.9566    2.9363   -0.3580 H       1  UNL1        0.0647
     33 H          -8.0317    2.1262    1.6531 H       1  UNL1        0.0619
     34 H          -7.0189    0.1852    2.8559 H       1  UNL1        0.0647
     35 H           0.1893    0.9922    0.8576 H       1  UNL1        0.0663
     36 H           4.1660   -0.8962   -0.6837 H       1  UNL1        0.0733
     37 H           3.7798   -0.9463    1.9841 H       1  UNL1        0.0301
     38 H           5.4756   -0.6876    1.2860 H       1  UNL1        0.0301
     39 H           3.4049    1.4765    1.8814 H       1  UNL1        0.0266
     40 H           4.9649    1.2443    2.8393 H       1  UNL1        0.0266
     41 H           6.2991    1.5129    0.8480 H       1  UNL1        0.0266
     42 H           5.1076    2.8824    0.7573 H       1  UNL1        0.0266
     43 H           5.3966    0.8997   -1.2269 H       1  UNL1        0.0301
     44 H           3.9053    1.8766   -0.9248 H       1  UNL1        0.0301
@<TRIPOS>BOND
     1     1     2    1
     2     2     3    1
     3     3     4   ar
     4     4     5   ar
     5     5     6   ar
     6     6     7    1
     7     7     8    2
     8     7     9   am
     9     9    10    1
    10    10    11   ar
    11    11    12    1
    12    11    13   ar
    13    13    14   ar
    14    14    15   ar
    15    15    16   ar
    16    16    17    1
    17     6    18   ar
    18    18    19   ar
    19    19    20    1
    20    20    21    1
    21    21    22    1
    22    22    23    1
    23    23    24    1
    24    24    25    1
    25    19     3   ar
    26    25    21    1
    27    16    10   ar
    28     1    26    1
    29     1    27    1
    30     1    28    1
    31     4    29    1
    32     5    30    1
    33     9    31    1
    34    13    32    1
    35    14    33    1
    36    15    34    1
    37    18    35    1
    38    21    36    1
    39    22    37    1
    40    22    38    1
    41    23    39    1
    42    23    40    1
    43    24    41    1
    44    24    42    1
    45    25    43    1
    46    25    44    1
