@<TRIPOS>MOLECULE
*****
 44 46 0 0 0
SMALL
GASTEIGER

@<TRIPOS>ATOM
      1 C          -3.3598    0.2044    1.7160 C.3     1  UNL1       -0.0352
      2 C          -2.4754    0.1326    0.4493 C.3     1  UNL1        0.0952
      3 C          -1.1748    0.6981    0.8807 C.ar    1  UNL1        0.0197
      4 C           0.0553    0.1238    0.7000 C.ar    1  UNL1       -0.0321
      5 C           1.2246    0.7516    1.1540 C.ar    1  UNL1        0.0369
      6 N           2.4648    0.0940    0.9300 N.am    1  UNL1       -0.2801
      7 C           3.2417    0.3070   -0.2553 C.2     1  UNL1        0.2694
      8 O           2.7560    1.1150   -1.0880 O.2     1  UNL1       -0.2681
      9 C           4.5112   -0.3719   -0.4748 C.ar    1  UNL1        0.1608
     10 N           5.0630   -1.2379    0.3846 N.ar    1  UNL1       -0.2461
     11 C           6.2473   -1.8506    0.1451 C.ar    1  UNL1        0.0469
     12 C           6.9377   -1.5944   -1.0205 C.ar    1  UNL1        0.0618
     13 CL          8.4808   -2.4064   -1.3097 Cl      1  UNL1       -0.0819
     14 C           6.4079   -0.7131   -1.9290 C.ar    1  UNL1       -0.0044
     15 C           5.2006   -0.1157   -1.6393 C.ar    1  UNL1        0.1551
     16 F           4.6503    0.7714   -2.5356 F       1  UNL1       -0.2030
     17 C           1.0783    1.9606    1.7835 C.ar    1  UNL1       -0.0023
     18 C          -0.1348    2.5747    1.9871 C.ar    1  UNL1        0.1605
     19 F          -0.2218    3.7906    2.6264 F       1  UNL1       -0.2024
     20 C          -1.2664    1.9378    1.5320 C.ar    1  UNL1        0.1640
     21 F          -2.4665    2.5333    1.7230 F       1  UNL1       -0.2021
     22 C          -2.4397   -1.2538   -0.0779 C.3     1  UNL1        0.0223
     23 C          -3.3060   -1.4677   -1.3117 C.3     1  UNL1        0.1997
     24 C          -4.7536   -1.6626   -0.9801 C.3     1  UNL1        0.4266
     25 F          -4.9167   -2.7619   -0.1672 F       1  UNL1       -0.1669
     26 F          -5.2510   -0.5075   -0.4165 F       1  UNL1       -0.1669
     27 F          -5.4397   -1.8895   -2.1692 F       1  UNL1       -0.1669
     28 O          -3.1624   -0.3713   -2.2052 O.2     1  UNL1       -0.4534
     29 C          -3.3593    0.9036   -1.6674 C.2     1  UNL1        0.2765
     30 N          -3.9180    1.9414   -2.5022 N.pl3   1  UNL1       -0.3134
     31 N          -3.0387    1.1060   -0.4579 N.2     1  UNL1       -0.2257
     32 H          -2.7658    0.4549    2.6139 H       1  UNL1        0.0256
     33 H          -4.1521    0.9645    1.6184 H       1  UNL1        0.0256
     34 H          -3.8644   -0.7786    1.8614 H       1  UNL1        0.0256
     35 H           0.1625   -0.8190    0.2074 H       1  UNL1        0.0640
     36 H           2.8712   -0.5854    1.6325 H       1  UNL1        0.1552
     37 H           6.6854   -2.5489    0.8454 H       1  UNL1        0.0845
     38 H           6.9353   -0.5058   -2.8388 H       1  UNL1        0.0662
     39 H           1.9664    2.4580    2.1394 H       1  UNL1        0.0666
     40 H          -2.8502   -1.9761    0.6882 H       1  UNL1        0.0330
     41 H          -1.4531   -1.6629   -0.3448 H       1  UNL1        0.0330
     42 H          -2.9368   -2.3641   -1.8440 H       1  UNL1        0.0826
     43 H          -4.4554    2.7390   -2.0761 H       1  UNL1        0.1466
     44 H          -3.7777    1.8827   -3.5269 H       1  UNL1        0.1466
@<TRIPOS>BOND
     1     2     1    1
     2     2     3    1
     3     3     4   ar
     4     4     5   ar
     5     5     6    1
     6     6     7   am
     7     7     8    2
     8     7     9    1
     9     9    10   ar
    10    10    11   ar
    11    11    12   ar
    12    12    13    1
    13    12    14   ar
    14    14    15   ar
    15    15    16    1
    16     5    17   ar
    17    17    18   ar
    18    18    19    1
    19    18    20   ar
    20    20    21    1
    21     2    22    1
    22    22    23    1
    23    23    24    1
    24    24    25    1
    25    24    26    1
    26    24    27    1
    27    23    28    1
    28    28    29    1
    29    29    30    1
    30    29    31    2
    31    31     2    1
    32    20     3   ar
    33    15     9   ar
    34     1    32    1
    35     1    33    1
    36     1    34    1
    37     4    35    1
    38     6    36    1
    39    11    37    1
    40    14    38    1
    41    17    39    1
    42    22    40    1
    43    22    41    1
    44    23    42    1
    45    30    43    1
    46    30    44    1
