
     RDKit          3D

 44 46  0  0  0  0  0  0  0  0999 V2000
   -3.3598    0.2044    1.7160 C   0  0  0  0  0  0  0  0  0  0  0  0
   -2.4754    0.1326    0.4493 C   0  0  1  0  0  0  0  0  0  0  0  0
   -1.1748    0.6981    0.8807 C   0  0  0  0  0  0  0  0  0  0  0  0
    0.0553    0.1238    0.7000 C   0  0  0  0  0  0  0  0  0  0  0  0
    1.2246    0.7516    1.1540 C   0  0  0  0  0  0  0  0  0  0  0  0
    2.4648    0.0940    0.9300 N   0  0  0  0  0  0  0  0  0  0  0  0
    3.2417    0.3070   -0.2553 C   0  0  0  0  0  0  0  0  0  0  0  0
    2.7560    1.1150   -1.0880 O   0  0  0  0  0  0  0  0  0  0  0  0
    4.5112   -0.3719   -0.4748 C   0  0  0  0  0  0  0  0  0  0  0  0
    5.0630   -1.2379    0.3846 N   0  0  0  0  0  0  0  0  0  0  0  0
    6.2473   -1.8506    0.1451 C   0  0  0  0  0  0  0  0  0  0  0  0
    6.9377   -1.5944   -1.0205 C   0  0  0  0  0  0  0  0  0  0  0  0
    8.4808   -2.4064   -1.3097 Cl  0  0  0  0  0  0  0  0  0  0  0  0
    6.4079   -0.7131   -1.9290 C   0  0  0  0  0  0  0  0  0  0  0  0
    5.2006   -0.1157   -1.6393 C   0  0  0  0  0  0  0  0  0  0  0  0
    4.6503    0.7714   -2.5356 F   0  0  0  0  0  0  0  0  0  0  0  0
    1.0783    1.9606    1.7835 C   0  0  0  0  0  0  0  0  0  0  0  0
   -0.1348    2.5747    1.9871 C   0  0  0  0  0  0  0  0  0  0  0  0
   -0.2218    3.7906    2.6264 F   0  0  0  0  0  0  0  0  0  0  0  0
   -1.2664    1.9378    1.5320 C   0  0  0  0  0  0  0  0  0  0  0  0
   -2.4665    2.5333    1.7230 F   0  0  0  0  0  0  0  0  0  0  0  0
   -2.4397   -1.2538   -0.0779 C   0  0  0  0  0  0  0  0  0  0  0  0
   -3.3060   -1.4677   -1.3117 C   0  0  1  0  0  0  0  0  0  0  0  0
   -4.7536   -1.6626   -0.9801 C   0  0  0  0  0  0  0  0  0  0  0  0
   -4.9167   -2.7619   -0.1672 F   0  0  0  0  0  0  0  0  0  0  0  0
   -5.2510   -0.5075   -0.4165 F   0  0  0  0  0  0  0  0  0  0  0  0
   -5.4397   -1.8895   -2.1692 F   0  0  0  0  0  0  0  0  0  0  0  0
   -3.1624   -0.3713   -2.2052 O   0  0  0  0  0  0  0  0  0  0  0  0
   -3.3593    0.9036   -1.6674 C   0  0  0  0  0  0  0  0  0  0  0  0
   -3.9180    1.9414   -2.5022 N   0  0  0  0  0  0  0  0  0  0  0  0
   -3.0387    1.1060   -0.4579 N   0  0  0  0  0  0  0  0  0  0  0  0
   -2.7658    0.4549    2.6139 H   0  0  0  0  0  0  0  0  0  0  0  0
   -4.1521    0.9645    1.6184 H   0  0  0  0  0  0  0  0  0  0  0  0
   -3.8644   -0.7786    1.8614 H   0  0  0  0  0  0  0  0  0  0  0  0
    0.1625   -0.8190    0.2074 H   0  0  0  0  0  0  0  0  0  0  0  0
    2.8712   -0.5854    1.6325 H   0  0  0  0  0  0  0  0  0  0  0  0
    6.6854   -2.5489    0.8454 H   0  0  0  0  0  0  0  0  0  0  0  0
    6.9353   -0.5058   -2.8388 H   0  0  0  0  0  0  0  0  0  0  0  0
    1.9664    2.4580    2.1394 H   0  0  0  0  0  0  0  0  0  0  0  0
   -2.8502   -1.9761    0.6882 H   0  0  0  0  0  0  0  0  0  0  0  0
   -1.4531   -1.6629   -0.3448 H   0  0  0  0  0  0  0  0  0  0  0  0
   -2.9368   -2.3641   -1.8440 H   0  0  0  0  0  0  0  0  0  0  0  0
   -4.4554    2.7390   -2.0761 H   0  0  0  0  0  0  0  0  0  0  0  0
   -3.7777    1.8827   -3.5269 H   0  0  0  0  0  0  0  0  0  0  0  0
  2  1  1  1
  2  3  1  0
  3  4  2  0
  4  5  1  0
  5  6  1  0
  6  7  1  0
  7  8  2  0
  7  9  1  0
  9 10  2  0
 10 11  1  0
 11 12  2  0
 12 13  1  0
 12 14  1  0
 14 15  2  0
 15 16  1  0
  5 17  2  0
 17 18  1  0
 18 19  1  0
 18 20  2  0
 20 21  1  0
  2 22  1  0
 22 23  1  0
 23 24  1  0
 24 25  1  0
 24 26  1  0
 24 27  1  0
 23 28  1  0
 28 29  1  0
 29 30  1  0
 29 31  2  0
 31  2  1  0
 20  3  1  0
 15  9  1  0
  1 32  1  0
  1 33  1  0
  1 34  1  0
  4 35  1  0
  6 36  1  0
 11 37  1  0
 14 38  1  0
 17 39  1  0
 22 40  1  0
 22 41  1  0
 23 42  1  6
 30 43  1  0
 30 44  1  0
M  END
$$$$
