@<TRIPOS>MOLECULE
*****
 45 49 0 0 0
SMALL
GASTEIGER

@<TRIPOS>ATOM
      1 C          -0.9214   -1.3018    0.3571 C.3     1  UNL1       -0.0070
      2 C          -1.7439   -0.9323   -0.8515 C.3     1  UNL1       -0.0217
      3 C          -2.6712    0.1781   -0.5971 C.ar    1  UNL1       -0.0376
      4 C          -2.3632    1.0607    0.4171 C.ar    1  UNL1        0.0063
      5 C          -3.1504    2.1370    0.7505 C.ar    1  UNL1        0.0470
      6 N          -2.5316    2.7579    1.7764 N.ar    1  UNL1       -0.3604
      7 C          -1.3904    2.0720    2.0609 C.ar    1  UNL1        0.0063
      8 C          -1.2483    0.9987    1.2290 C.ar    1  UNL1       -0.0165
      9 C          -0.2806   -0.0983    1.0177 C.3     1  UNL1        0.0171
     10 C           0.7462    0.2582   -0.0230 C.3     1  UNL1        0.0969
     11 N           1.3480   -1.0643   -0.2567 N.pl3   1  UNL1       -0.2848
     12 C           2.6871   -0.8160   -0.5705 C.2     1  UNL1        0.1954
     13 O           3.4701   -1.7652   -1.2576 O.2     1  UNL1       -0.4947
     14 C           3.0681    0.3780   -0.1428 C.2     1  UNL1        0.1181
     15 C           4.4115    0.9234   -0.3212 C.2     1  UNL1        0.1684
     16 C           4.7604    2.2754    0.1895 C.3     1  UNL1       -0.0011
     17 O           5.2554    0.2073   -0.9205 O.2     1  UNL1       -0.2921
     18 C           1.9149    0.9918    0.5083 C.2     1  UNL1        0.1922
     19 O           1.9683    1.9352    1.3321 O.2     1  UNL1       -0.2897
     20 C           0.3311   -2.0657   -0.0710 C.3     1  UNL1        0.0364
     21 C           0.1521   -2.7585   -1.3992 C.3     1  UNL1       -0.0435
     22 C           0.6507   -3.0449    1.0183 C.3     1  UNL1       -0.0435
     23 C          -4.2962    2.2846   -0.0102 C.ar    1  UNL1       -0.0378
     24 C          -4.6251    1.4128   -1.0312 C.ar    1  UNL1       -0.0595
     25 C          -3.8226    0.3350   -1.3539 C.ar    1  UNL1       -0.0579
     26 H          -1.5445   -1.8784    1.0618 H       1  UNL1        0.0331
     27 H          -1.1633   -0.7372   -1.7577 H       1  UNL1        0.0317
     28 H          -2.3896   -1.8283   -1.0761 H       1  UNL1        0.0317
     29 H          -2.9297    3.6231    2.2267 H       1  UNL1        0.1653
     30 H          -0.6879    2.3440    2.8455 H       1  UNL1        0.0810
     31 H           0.2221   -0.4307    1.9243 H       1  UNL1        0.0375
     32 H           0.3200    0.6894   -0.9301 H       1  UNL1        0.0590
     33 H           3.7117   -1.5338   -2.2328 H       1  UNL1        0.2935
     34 H           3.8526    2.8780    0.3202 H       1  UNL1        0.0309
     35 H           5.3262    2.1865    1.1405 H       1  UNL1        0.0309
     36 H           5.4573    2.7743   -0.5457 H       1  UNL1        0.0309
     37 H           0.3639   -2.0568   -2.2506 H       1  UNL1        0.0250
     38 H          -0.8248   -3.2309   -1.4871 H       1  UNL1        0.0250
     39 H           0.9463   -3.5340   -1.4520 H       1  UNL1        0.0250
     40 H          -0.0947   -3.8666    0.9615 H       1  UNL1        0.0250
     41 H           0.5961   -2.5875    2.0066 H       1  UNL1        0.0250
     42 H           1.6462   -3.5145    0.9018 H       1  UNL1        0.0250
     43 H          -4.9374    3.1341    0.2374 H       1  UNL1        0.0638
     44 H          -5.5422    1.5813   -1.5958 H       1  UNL1        0.0618
     45 H          -4.0475   -0.3715   -2.1490 H       1  UNL1        0.0620
@<TRIPOS>BOND
     1     1     2    1
     2     2     3    1
     3     3     4   ar
     4     4     5   ar
     5     5     6   ar
     6     6     7   ar
     7     7     8   ar
     8     8     9    1
     9     9    10    1
    10    10    11    1
    11    11    12    1
    12    12    13    1
    13    12    14    2
    14    14    15    1
    15    15    16    1
    16    15    17    2
    17    14    18    1
    18    18    19    2
    19    11    20    1
    20    20    21    1
    21    20    22    1
    22     5    23   ar
    23    23    24   ar
    24    24    25   ar
    25     9     1    1
    26    18    10    1
    27    20     1    1
    28    25     3   ar
    29     8     4   ar
    30     1    26    1
    31     2    27    1
    32     2    28    1
    33     6    29    1
    34     7    30    1
    35     9    31    1
    36    10    32    1
    37    13    33    1
    38    16    34    1
    39    16    35    1
    40    16    36    1
    41    21    37    1
    42    21    38    1
    43    21    39    1
    44    22    40    1
    45    22    41    1
    46    22    42    1
    47    23    43    1
    48    24    44    1
    49    25    45    1
