@<TRIPOS>MOLECULE
*****
 33 34 0 0 0
SMALL
GASTEIGER

@<TRIPOS>ATOM
      1 C           3.9232    1.9483    1.0436 C.3     1  UNL1       -0.0397
      2 C           2.8878    1.0769    0.4236 C.ar    1  UNL1       -0.0496
      3 C           1.9624    1.5768   -0.4797 C.ar    1  UNL1       -0.0570
      4 C           1.0281    0.7174   -1.0196 C.ar    1  UNL1       -0.0383
      5 C           0.9644   -0.6297   -0.7047 C.ar    1  UNL1        0.0620
      6 N          -0.0096   -1.4289   -1.3121 N.pl3   1  UNL1       -0.2155
      7 S          -1.4822   -0.8187   -2.0166 S.O2    1  UNL1        0.0724
      8 O          -1.1881    0.2172   -3.0850 O.2     1  UNL1       -0.1500
      9 O          -2.2943   -1.9452   -2.5862 O.2     1  UNL1       -0.1500
     10 C          -2.4842   -0.0190   -0.8152 C.ar    1  UNL1        0.1085
     11 C          -3.3780   -0.8084   -0.1005 C.ar    1  UNL1       -0.0351
     12 C          -4.2462   -0.3688    0.8768 C.ar    1  UNL1       -0.0599
     13 C          -4.2205    0.9739    1.1659 C.ar    1  UNL1       -0.0616
     14 C          -3.3497    1.7935    0.4814 C.ar    1  UNL1       -0.0599
     15 C          -2.4961    1.3203   -0.4891 C.ar    1  UNL1       -0.0351
     16 C           1.8875   -1.1160    0.1933 C.ar    1  UNL1        0.0813
     17 C           2.8178   -0.2529    0.7286 C.ar    1  UNL1       -0.0430
     18 C           1.9204   -2.5088    0.6169 C.2     1  UNL1        0.3387
     19 O           2.8671   -2.9656    1.5150 O.3     1  UNL1       -0.4771
     20 O           1.2011   -3.4806    0.3104 O.2     1  UNL1       -0.2451
     21 H           3.5821    2.3044    2.0499 H       1  UNL1        0.0278
     22 H           4.1144    2.8131    0.3739 H       1  UNL1        0.0278
     23 H           4.8970    1.4184    1.1454 H       1  UNL1        0.0278
     24 H           2.0441    2.6296   -0.6993 H       1  UNL1        0.0621
     25 H           0.3767    1.2297   -1.7032 H       1  UNL1        0.0637
     26 H           0.1061   -2.4615   -1.3812 H       1  UNL1        0.1737
     27 H          -3.4213   -1.8789   -0.3080 H       1  UNL1        0.0637
     28 H          -4.9076   -1.0416    1.3850 H       1  UNL1        0.0618
     29 H          -4.8728    1.4175    1.9268 H       1  UNL1        0.0618
     30 H          -3.2641    2.8743    0.6487 H       1  UNL1        0.0618
     31 H          -1.8022    1.9294   -1.0477 H       1  UNL1        0.0637
     32 H           3.5425   -0.6376    1.4341 H       1  UNL1        0.0629
     33 H           3.2941   -3.8786    1.4290 H       1  UNL1        0.2954
@<TRIPOS>BOND
     1     1     2    1
     2     2     3   ar
     3     3     4   ar
     4     4     5   ar
     5     5     6    1
     6     6     7    1
     7     7     8    2
     8     7     9    2
     9     7    10    1
    10    10    11   ar
    11    11    12   ar
    12    12    13   ar
    13    13    14   ar
    14    14    15   ar
    15     5    16   ar
    16    16    17   ar
    17    16    18    1
    18    18    19    1
    19    18    20    2
    20    17     2   ar
    21    15    10   ar
    22     1    21    1
    23     1    22    1
    24     1    23    1
    25     3    24    1
    26     4    25    1
    27     6    26    1
    28    11    27    1
    29    12    28    1
    30    13    29    1
    31    14    30    1
    32    15    31    1
    33    17    32    1
    34    19    33    1
