
     RDKit          3D

 54 57  0  0  0  0  0  0  0  0999 V2000
    3.0840    0.0435   -0.1601 C   0  0  1  0  0  0  0  0  0  0  0  0
    3.2090    0.7124   -1.5109 C   0  0  0  0  0  0  0  0  0  0  0  0
    1.7765    0.9536   -2.0074 C   0  0  0  0  0  0  0  0  0  0  0  0
    1.0273    0.8847   -0.7178 C   0  0  1  0  0  0  0  0  0  0  0  0
   -0.4297    0.5867   -0.8209 C   0  0  2  0  0  0  0  0  0  0  0  0
   -1.2154    1.5299   -1.6539 C   0  0  0  0  0  0  0  0  0  0  0  0
   -2.6574    1.6531   -1.3341 C   0  0  0  0  0  0  0  0  0  0  0  0
   -3.1610    0.7716   -0.2468 C   0  0  0  0  0  0  0  0  0  0  0  0
   -4.4756    0.8167   -0.0806 C   0  0  0  0  0  0  0  0  0  0  0  0
   -5.0181   -0.0213    0.9637 C   0  0  0  0  0  0  0  0  0  0  0  0
   -6.2550   -0.0784    1.1702 O   0  0  0  0  0  0  0  0  0  0  0  0
   -4.2357   -0.8655    1.8656 C   0  0  0  0  0  0  0  0  0  0  0  0
   -2.8043   -0.4434    1.9012 C   0  0  0  0  0  0  0  0  0  0  0  0
   -2.2428   -0.0776    0.5688 C   0  0  1  0  0  0  0  0  0  0  0  0
   -2.1598   -1.3937   -0.2102 C   0  0  0  0  0  0  0  0  0  0  0  0
   -0.9669    0.6693    0.6132 C   0  0  1  0  0  0  0  0  0  0  0  0
    0.0587    0.3115    1.6096 C   0  0  1  0  0  0  0  0  0  0  0  0
   -0.4129   -0.0783    2.8308 O   0  0  0  0  0  0  0  0  0  0  0  0
    1.0793   -0.7228    1.1604 C   0  0  0  0  0  0  0  0  0  0  0  0
    1.6523   -0.4148   -0.1782 C   0  0  2  0  0  0  0  0  0  0  0  0
    1.4294   -1.5015   -1.1675 C   0  0  0  0  0  0  0  0  0  0  0  0
    1.1183   -2.6102   -1.5693 O   0  0  0  0  0  0  0  0  0  0  0  0
    4.0406   -1.0449    0.0513 C   0  0  0  0  0  0  0  0  0  0  0  0
    3.6137   -2.1818    0.2721 O   0  0  0  0  0  0  0  0  0  0  0  0
    5.4936   -0.7281   -0.0102 C   0  0  0  0  0  0  0  0  0  0  0  0
    5.7187    0.6177   -0.2714 O   0  0  0  0  0  0  0  0  0  0  0  0
    3.1549    0.7984    0.6627 H   0  0  0  0  0  0  0  0  0  0  0  0
    3.7679    0.0490   -2.1785 H   0  0  0  0  0  0  0  0  0  0  0  0
    3.6921    1.7060   -1.3759 H   0  0  0  0  0  0  0  0  0  0  0  0
    1.7026    1.8940   -2.5515 H   0  0  0  0  0  0  0  0  0  0  0  0
    1.5328    0.0538   -2.6211 H   0  0  0  0  0  0  0  0  0  0  0  0
    1.3029    1.7126   -0.0658 H   0  0  0  0  0  0  0  0  0  0  0  0
   -0.5258   -0.4173   -1.2574 H   0  0  0  0  0  0  0  0  0  0  0  0
   -0.7384    2.5448   -1.5213 H   0  0  0  0  0  0  0  0  0  0  0  0
   -1.0631    1.3197   -2.7443 H   0  0  0  0  0  0  0  0  0  0  0  0
   -2.9550    2.7239   -1.1502 H   0  0  0  0  0  0  0  0  0  0  0  0
   -3.2616    1.3807   -2.2484 H   0  0  0  0  0  0  0  0  0  0  0  0
   -5.1314    1.4358   -0.6771 H   0  0  0  0  0  0  0  0  0  0  0  0
   -4.3805   -1.9343    1.5985 H   0  0  0  0  0  0  0  0  0  0  0  0
   -4.6011   -0.8042    2.9314 H   0  0  0  0  0  0  0  0  0  0  0  0
   -2.7033    0.4022    2.5838 H   0  0  0  0  0  0  0  0  0  0  0  0
   -2.2603   -1.3757    2.2382 H   0  0  0  0  0  0  0  0  0  0  0  0
   -2.3852   -1.2548   -1.2925 H   0  0  0  0  0  0  0  0  0  0  0  0
   -2.9564   -2.0974    0.1423 H   0  0  0  0  0  0  0  0  0  0  0  0
   -1.2243   -1.9285   -0.0790 H   0  0  0  0  0  0  0  0  0  0  0  0
   -1.2272    1.7590    0.7721 H   0  0  0  0  0  0  0  0  0  0  0  0
    0.6888    1.2178    1.8167 H   0  0  0  0  0  0  0  0  0  0  0  0
    0.3667   -0.3422    3.3818 H   0  0  0  0  0  0  0  0  0  0  0  0
    0.7314   -1.7670    1.3002 H   0  0  0  0  0  0  0  0  0  0  0  0
    1.9468   -0.6492    1.8821 H   0  0  0  0  0  0  0  0  0  0  0  0
    1.2890   -2.2511   -1.9468 H   0  0  0  0  0  0  0  0  0  0  0  0
    6.0308   -0.9622    0.9235 H   0  0  0  0  0  0  0  0  0  0  0  0
    5.8836   -1.3536   -0.8651 H   0  0  0  0  0  0  0  0  0  0  0  0
    6.0565    0.7512   -1.1756 H   0  0  0  0  0  0  0  0  0  0  0  0
  1  2  1  0
  2  3  1  0
  3  4  1  0
  4  5  1  0
  5  6  1  0
  6  7  1  0
  7  8  1  0
  8  9  2  0
  9 10  1  0
 10 11  2  0
 10 12  1  0
 12 13  1  0
 13 14  1  0
 14 15  1  6
 14 16  1  0
 16 17  1  0
 17 18  1  0
 17 19  1  0
 19 20  1  0
 20 21  1  6
 21 22  2  0
  1 23  1  0
 23 24  2  0
 23 25  1  0
 25 26  1  0
 20  1  1  0
 20  4  1  0
 16  5  1  0
 14  8  1  0
  1 27  1  1
  2 28  1  0
  2 29  1  0
  3 30  1  0
  3 31  1  0
  4 32  1  1
  5 33  1  6
  6 34  1  0
  6 35  1  0
  7 36  1  0
  7 37  1  0
  9 38  1  0
 12 39  1  0
 12 40  1  0
 13 41  1  0
 13 42  1  0
 15 43  1  0
 15 44  1  0
 15 45  1  0
 16 46  1  1
 17 47  1  1
 18 48  1  0
 19 49  1  0
 19 50  1  0
 21 51  1  0
 25 52  1  0
 25 53  1  0
 26 54  1  0
M  END
$$$$
