@<TRIPOS>MOLECULE
*****
 52 56 0 0 0
SMALL
GASTEIGER

@<TRIPOS>ATOM
      1 O           1.6105   -1.5170   -1.1298 O.2     1  UNL1       -0.2526
      2 C           1.1774   -0.5049   -0.4973 C.2     1  UNL1        0.3024
      3 N           2.1552    0.4483   -0.1025 N.am    1  UNL1       -0.2958
      4 C           3.5508    0.2316   -0.4271 C.3     1  UNL1        0.0320
      5 C           4.2514    1.5214   -0.8435 C.3     1  UNL1       -0.0254
      6 C           4.6294    0.8113    0.4027 C.3     1  UNL1        0.0043
      7 C           5.8869    0.0380    0.4772 C.ar    1  UNL1       -0.0425
      8 C           6.3601   -0.7118   -0.5785 C.ar    1  UNL1       -0.0582
      9 C           7.5507   -1.4327   -0.4818 C.ar    1  UNL1       -0.0615
     10 C           8.2734   -1.4017    0.6833 C.ar    1  UNL1       -0.0617
     11 C           7.8183   -0.6598    1.7475 C.ar    1  UNL1       -0.0615
     12 C           6.6227    0.0579    1.6357 C.ar    1  UNL1       -0.0582
     13 N          -0.2036   -0.3641   -0.2181 N.am    1  UNL1       -0.2854
     14 C          -0.7711    0.7405    0.4859 C.3     1  UNL1        0.0197
     15 C          -2.0598    1.1181   -0.2520 C.3     1  UNL1        0.0030
     16 C          -3.1090    0.0602   -0.1856 C.3     1  UNL1        0.1139
     17 C          -3.8828    0.1159   -1.5084 C.3     1  UNL1       -0.0073
     18 C          -4.9140    1.2433   -1.3839 C.3     1  UNL1       -0.0033
     19 C          -5.9155    0.7212   -0.3874 C.ar    1  UNL1        0.0829
     20 N          -7.2256    0.7492   -0.6154 N.ar    1  UNL1       -0.2562
     21 C          -8.0760    0.2613    0.3253 C.ar    1  UNL1        0.0281
     22 C          -7.5788   -0.2569    1.5036 C.ar    1  UNL1       -0.0401
     23 C          -6.2221   -0.2818    1.7310 C.ar    1  UNL1       -0.0167
     24 C          -5.3657    0.2149    0.7722 C.ar    1  UNL1        0.1425
     25 O          -3.9947    0.2334    0.9084 O.3     1  UNL1       -0.4838
     26 C          -2.4625   -1.2865   -0.0019 C.3     1  UNL1        0.0030
     27 C          -1.1105   -1.4002   -0.6709 C.3     1  UNL1        0.0197
     28 H           1.8477    1.2910    0.4166 H       1  UNL1        0.1505
     29 H           3.7817   -0.6910   -0.9780 H       1  UNL1        0.0505
     30 H           3.7316    2.4752   -0.7645 H       1  UNL1        0.0290
     31 H           4.8365    1.4080   -1.7750 H       1  UNL1        0.0290
     32 H           4.3847    1.3591    1.3455 H       1  UNL1        0.0367
     33 H           5.8384   -0.7734   -1.5110 H       1  UNL1        0.0620
     34 H           7.9123   -2.0148   -1.3099 H       1  UNL1        0.0618
     35 H           9.1986   -1.9735    0.7311 H       1  UNL1        0.0618
     36 H           8.3887   -0.6319    2.6755 H       1  UNL1        0.0618
     37 H           6.3363    0.6172    2.5236 H       1  UNL1        0.0620
     38 H          -1.0234    0.4435    1.5287 H       1  UNL1        0.0466
     39 H          -0.1600    1.6443    0.5204 H       1  UNL1        0.0466
     40 H          -1.7591    1.2502   -1.3116 H       1  UNL1        0.0319
     41 H          -2.3965    2.0864    0.1714 H       1  UNL1        0.0319
     42 H          -4.4058   -0.8288   -1.6671 H       1  UNL1        0.0307
     43 H          -3.1593    0.3503   -2.3147 H       1  UNL1        0.0307
     44 H          -4.4591    2.1450   -0.9256 H       1  UNL1        0.0331
     45 H          -5.3814    1.4335   -2.3642 H       1  UNL1        0.0331
     46 H          -9.1546    0.2707    0.1675 H       1  UNL1        0.0829
     47 H          -8.2656   -0.6437    2.2478 H       1  UNL1        0.0634
     48 H          -5.7790   -0.6804    2.6451 H       1  UNL1        0.0655
     49 H          -3.0972   -2.0763   -0.4078 H       1  UNL1        0.0319
     50 H          -2.3000   -1.4838    1.0897 H       1  UNL1        0.0319
     51 H          -1.2374   -1.3624   -1.7714 H       1  UNL1        0.0466
     52 H          -0.6732   -2.3632   -0.3382 H       1  UNL1        0.0466
@<TRIPOS>BOND
     1     1     2    2
     2     2     3   am
     3     3     4    1
     4     4     5    1
     5     5     6    1
     6     6     7    1
     7     7     8   ar
     8     8     9   ar
     9     9    10   ar
    10    10    11   ar
    11    11    12   ar
    12     2    13   am
    13    13    14    1
    14    14    15    1
    15    15    16    1
    16    16    17    1
    17    17    18    1
    18    18    19    1
    19    19    20   ar
    20    20    21   ar
    21    21    22   ar
    22    22    23   ar
    23    23    24   ar
    24    24    25    1
    25    16    26    1
    26    26    27    1
    27     6     4    1
    28    12     7   ar
    29    27    13    1
    30    25    16    1
    31    24    19   ar
    32     3    28    1
    33     4    29    1
    34     5    30    1
    35     5    31    1
    36     6    32    1
    37     8    33    1
    38     9    34    1
    39    10    35    1
    40    11    36    1
    41    12    37    1
    42    14    38    1
    43    14    39    1
    44    15    40    1
    45    15    41    1
    46    17    42    1
    47    17    43    1
    48    18    44    1
    49    18    45    1
    50    21    46    1
    51    22    47    1
    52    23    48    1
    53    26    49    1
    54    26    50    1
    55    27    51    1
    56    27    52    1
