@<TRIPOS>MOLECULE
*****
 58 62 0 0 0
SMALL
GASTEIGER

@<TRIPOS>ATOM
      1 C          -3.4576   -4.1042   -0.6753 C.3     1  UNL1       -0.0223
      2 C          -3.3883   -2.9442    0.2562 C.ar    1  UNL1        0.0390
      3 C          -3.3428   -3.1596    1.6077 C.ar    1  UNL1       -0.0406
      4 C          -3.2800   -2.0896    2.4764 C.ar    1  UNL1       -0.0580
      5 C          -3.2637   -0.8181    1.9784 C.ar    1  UNL1       -0.0341
      6 C          -3.3093   -0.5982    0.6225 C.ar    1  UNL1        0.0918
      7 C          -3.2955    0.7457    0.0145 C.ar    1  UNL1        0.1188
      8 N          -4.2605    1.3053   -0.7383 N.ar    1  UNL1       -0.1688
      9 N          -3.9050    2.5192   -1.1102 N.ar    1  UNL1       -0.2671
     10 C          -2.6962    2.8236   -0.6267 C.ar    1  UNL1        0.0476
     11 C          -2.2987    1.6901    0.0958 C.ar    1  UNL1        0.0322
     12 C          -1.0532    1.5394    0.8054 C.ar    1  UNL1       -0.0119
     13 C          -0.7524    2.4081    1.8327 C.ar    1  UNL1       -0.0518
     14 C           0.4313    2.2943    2.5342 C.ar    1  UNL1       -0.0337
     15 C           1.3187    1.2718    2.1737 C.ar    1  UNL1        0.0890
     16 N           2.5166    0.9090    2.6486 N.ar    1  UNL1       -0.2357
     17 C           2.9658   -0.1465    1.9576 C.ar    1  UNL1        0.0970
     18 N           2.0538   -0.4673    1.0315 N.ar    1  UNL1       -0.3300
     19 C           2.1276   -1.5455    0.0649 C.3     1  UNL1        0.0259
     20 C           2.7766   -1.0890   -1.2019 C.3     1  UNL1       -0.0221
     21 C           4.2011   -0.5904   -0.9876 C.3     1  UNL1       -0.0001
     22 N           5.0344   -1.6520   -0.4318 N.3     1  UNL1       -0.3083
     23 C           5.2344   -2.7068   -1.4027 C.3     1  UNL1       -0.0130
     24 C           6.3307   -1.0850   -0.1219 C.3     1  UNL1       -0.0130
     25 C           1.0434    0.3911    1.1527 C.ar    1  UNL1        0.0692
     26 C          -0.1680    0.5389    0.4644 C.ar    1  UNL1       -0.0282
     27 C          -2.3340    4.1681   -1.0488 C.3     1  UNL1       -0.0084
     28 C          -3.2269    4.4598   -2.2148 C.3     1  UNL1       -0.0279
     29 C          -4.4507    3.6144   -1.8955 C.3     1  UNL1        0.0422
     30 N          -3.3698   -1.6592   -0.1912 N.ar    1  UNL1       -0.2503
     31 H          -4.3812   -4.6875   -0.3860 H       1  UNL1        0.0292
     32 H          -3.6944   -3.7010   -1.6958 H       1  UNL1        0.0292
     33 H          -2.5669   -4.7316   -0.6668 H       1  UNL1        0.0292
     34 H          -3.3549   -4.1684    2.0105 H       1  UNL1        0.0635
     35 H          -3.2437   -2.2424    3.5462 H       1  UNL1        0.0619
     36 H          -3.2136    0.0505    2.6555 H       1  UNL1        0.0639
     37 H          -1.4141    3.2188    2.1461 H       1  UNL1        0.0624
     38 H           0.7069    2.9584    3.3505 H       1  UNL1        0.0640
     39 H           3.9183   -0.6478    2.1343 H       1  UNL1        0.1029
     40 H           2.8134   -2.3198    0.5211 H       1  UNL1        0.0492
     41 H           1.1694   -2.0017   -0.1700 H       1  UNL1        0.0492
     42 H           2.2017   -0.1880   -1.5572 H       1  UNL1        0.0295
     43 H           2.7955   -1.8623   -1.9793 H       1  UNL1        0.0295
     44 H           4.2240    0.2987   -0.3587 H       1  UNL1        0.0427
     45 H           4.5907   -0.3271   -1.9847 H       1  UNL1        0.0427
     46 H           6.3132   -2.8276   -1.6636 H       1  UNL1        0.0391
     47 H           4.7008   -2.4949   -2.3415 H       1  UNL1        0.0391
     48 H           4.9373   -3.6796   -0.9346 H       1  UNL1        0.0391
     49 H           6.8340   -1.6513    0.6944 H       1  UNL1        0.0391
     50 H           6.9564   -1.1794   -1.0377 H       1  UNL1        0.0391
     51 H           6.2313   -0.0175    0.0981 H       1  UNL1        0.0391
     52 H          -0.3606   -0.1691   -0.3367 H       1  UNL1        0.0645
     53 H          -1.2600    4.3053   -1.2657 H       1  UNL1        0.0329
     54 H          -2.5628    4.9537   -0.2708 H       1  UNL1        0.0329
     55 H          -2.8281    4.1295   -3.1909 H       1  UNL1        0.0287
     56 H          -3.5804    5.5223   -2.2305 H       1  UNL1        0.0287
     57 H          -4.9055    3.2699   -2.8458 H       1  UNL1        0.0509
     58 H          -5.2084    4.1669   -1.3105 H       1  UNL1        0.0509
@<TRIPOS>BOND
     1     1     2    1
     2     2     3   ar
     3     3     4   ar
     4     4     5   ar
     5     5     6   ar
     6     6     7    1
     7     7     8   ar
     8     8     9   ar
     9     9    10   ar
    10    10    11   ar
    11    11    12    1
    12    12    13   ar
    13    13    14   ar
    14    14    15   ar
    15    15    16   ar
    16    16    17   ar
    17    17    18   ar
    18    18    19    1
    19    19    20    1
    20    20    21    1
    21    21    22    1
    22    22    23    1
    23    22    24    1
    24    18    25   ar
    25    25    26   ar
    26    10    27    1
    27    27    28    1
    28    28    29    1
    29     6    30   ar
    30    30     2   ar
    31    11     7   ar
    32    26    12   ar
    33    29     9    1
    34    25    15   ar
    35     1    31    1
    36     1    32    1
    37     1    33    1
    38     3    34    1
    39     4    35    1
    40     5    36    1
    41    13    37    1
    42    14    38    1
    43    17    39    1
    44    19    40    1
    45    19    41    1
    46    20    42    1
    47    20    43    1
    48    21    44    1
    49    21    45    1
    50    23    46    1
    51    23    47    1
    52    23    48    1
    53    24    49    1
    54    24    50    1
    55    24    51    1
    56    26    52    1
    57    27    53    1
    58    27    54    1
    59    28    55    1
    60    28    56    1
    61    29    57    1
    62    29    58    1
