
     RDKit          3D

 58 62  0  0  0  0  0  0  0  0999 V2000
   -3.4576   -4.1042   -0.6753 C   0  0  0  0  0  0  0  0  0  0  0  0
   -3.3883   -2.9442    0.2562 C   0  0  0  0  0  0  0  0  0  0  0  0
   -3.3428   -3.1596    1.6077 C   0  0  0  0  0  0  0  0  0  0  0  0
   -3.2800   -2.0896    2.4764 C   0  0  0  0  0  0  0  0  0  0  0  0
   -3.2637   -0.8181    1.9784 C   0  0  0  0  0  0  0  0  0  0  0  0
   -3.3093   -0.5982    0.6225 C   0  0  0  0  0  0  0  0  0  0  0  0
   -3.2955    0.7457    0.0145 C   0  0  0  0  0  0  0  0  0  0  0  0
   -4.2605    1.3053   -0.7383 N   0  0  0  0  0  0  0  0  0  0  0  0
   -3.9050    2.5192   -1.1102 N   0  0  0  0  0  0  0  0  0  0  0  0
   -2.6962    2.8236   -0.6267 C   0  0  0  0  0  0  0  0  0  0  0  0
   -2.2987    1.6901    0.0958 C   0  0  0  0  0  0  0  0  0  0  0  0
   -1.0532    1.5394    0.8054 C   0  0  0  0  0  0  0  0  0  0  0  0
   -0.7524    2.4081    1.8327 C   0  0  0  0  0  0  0  0  0  0  0  0
    0.4313    2.2943    2.5342 C   0  0  0  0  0  0  0  0  0  0  0  0
    1.3187    1.2718    2.1737 C   0  0  0  0  0  0  0  0  0  0  0  0
    2.5166    0.9090    2.6486 N   0  0  0  0  0  0  0  0  0  0  0  0
    2.9658   -0.1465    1.9576 C   0  0  0  0  0  0  0  0  0  0  0  0
    2.0538   -0.4673    1.0315 N   0  0  0  0  0  0  0  0  0  0  0  0
    2.1276   -1.5455    0.0649 C   0  0  0  0  0  0  0  0  0  0  0  0
    2.7766   -1.0890   -1.2019 C   0  0  0  0  0  0  0  0  0  0  0  0
    4.2011   -0.5904   -0.9876 C   0  0  0  0  0  0  0  0  0  0  0  0
    5.0344   -1.6520   -0.4318 N   0  0  0  0  0  0  0  0  0  0  0  0
    5.2344   -2.7068   -1.4027 C   0  0  0  0  0  0  0  0  0  0  0  0
    6.3307   -1.0850   -0.1219 C   0  0  0  0  0  0  0  0  0  0  0  0
    1.0434    0.3911    1.1527 C   0  0  0  0  0  0  0  0  0  0  0  0
   -0.1680    0.5389    0.4644 C   0  0  0  0  0  0  0  0  0  0  0  0
   -2.3340    4.1681   -1.0488 C   0  0  0  0  0  0  0  0  0  0  0  0
   -3.2269    4.4598   -2.2148 C   0  0  0  0  0  0  0  0  0  0  0  0
   -4.4507    3.6144   -1.8955 C   0  0  0  0  0  0  0  0  0  0  0  0
   -3.3698   -1.6592   -0.1912 N   0  0  0  0  0  0  0  0  0  0  0  0
   -4.3812   -4.6875   -0.3860 H   0  0  0  0  0  0  0  0  0  0  0  0
   -3.6944   -3.7010   -1.6958 H   0  0  0  0  0  0  0  0  0  0  0  0
   -2.5669   -4.7316   -0.6668 H   0  0  0  0  0  0  0  0  0  0  0  0
   -3.3549   -4.1684    2.0105 H   0  0  0  0  0  0  0  0  0  0  0  0
   -3.2437   -2.2424    3.5462 H   0  0  0  0  0  0  0  0  0  0  0  0
   -3.2136    0.0505    2.6555 H   0  0  0  0  0  0  0  0  0  0  0  0
   -1.4141    3.2188    2.1461 H   0  0  0  0  0  0  0  0  0  0  0  0
    0.7069    2.9584    3.3505 H   0  0  0  0  0  0  0  0  0  0  0  0
    3.9183   -0.6478    2.1343 H   0  0  0  0  0  0  0  0  0  0  0  0
    2.8134   -2.3198    0.5211 H   0  0  0  0  0  0  0  0  0  0  0  0
    1.1694   -2.0017   -0.1700 H   0  0  0  0  0  0  0  0  0  0  0  0
    2.2017   -0.1880   -1.5572 H   0  0  0  0  0  0  0  0  0  0  0  0
    2.7955   -1.8623   -1.9793 H   0  0  0  0  0  0  0  0  0  0  0  0
    4.2240    0.2987   -0.3587 H   0  0  0  0  0  0  0  0  0  0  0  0
    4.5907   -0.3271   -1.9847 H   0  0  0  0  0  0  0  0  0  0  0  0
    6.3132   -2.8276   -1.6636 H   0  0  0  0  0  0  0  0  0  0  0  0
    4.7008   -2.4949   -2.3415 H   0  0  0  0  0  0  0  0  0  0  0  0
    4.9373   -3.6796   -0.9346 H   0  0  0  0  0  0  0  0  0  0  0  0
    6.8340   -1.6513    0.6944 H   0  0  0  0  0  0  0  0  0  0  0  0
    6.9564   -1.1794   -1.0377 H   0  0  0  0  0  0  0  0  0  0  0  0
    6.2313   -0.0175    0.0981 H   0  0  0  0  0  0  0  0  0  0  0  0
   -0.3606   -0.1691   -0.3367 H   0  0  0  0  0  0  0  0  0  0  0  0
   -1.2600    4.3053   -1.2657 H   0  0  0  0  0  0  0  0  0  0  0  0
   -2.5628    4.9537   -0.2708 H   0  0  0  0  0  0  0  0  0  0  0  0
   -2.8281    4.1295   -3.1909 H   0  0  0  0  0  0  0  0  0  0  0  0
   -3.5804    5.5223   -2.2305 H   0  0  0  0  0  0  0  0  0  0  0  0
   -4.9055    3.2699   -2.8458 H   0  0  0  0  0  0  0  0  0  0  0  0
   -5.2084    4.1669   -1.3105 H   0  0  0  0  0  0  0  0  0  0  0  0
  1  2  1  0
  2  3  2  0
  3  4  1  0
  4  5  2  0
  5  6  1  0
  6  7  1  0
  7  8  2  0
  8  9  1  0
  9 10  1  0
 10 11  2  0
 11 12  1  0
 12 13  2  0
 13 14  1  0
 14 15  2  0
 15 16  1  0
 16 17  2  0
 17 18  1  0
 18 19  1  0
 19 20  1  0
 20 21  1  0
 21 22  1  0
 22 23  1  0
 22 24  1  0
 18 25  1  0
 25 26  2  0
 10 27  1  0
 27 28  1  0
 28 29  1  0
  6 30  2  0
 30  2  1  0
 11  7  1  0
 26 12  1  0
 29  9  1  0
 25 15  1  0
  1 31  1  0
  1 32  1  0
  1 33  1  0
  3 34  1  0
  4 35  1  0
  5 36  1  0
 13 37  1  0
 14 38  1  0
 17 39  1  0
 19 40  1  0
 19 41  1  0
 20 42  1  0
 20 43  1  0
 21 44  1  0
 21 45  1  0
 23 46  1  0
 23 47  1  0
 23 48  1  0
 24 49  1  0
 24 50  1  0
 24 51  1  0
 26 52  1  0
 27 53  1  0
 27 54  1  0
 28 55  1  0
 28 56  1  0
 29 57  1  0
 29 58  1  0
M  END
$$$$
