
     RDKit          3D

 57 61  0  0  0  0  0  0  0  0999 V2000
   10.1907   -1.0822    2.4952 N   0  0  0  0  0  0  0  0  0  0  0  0
    9.2382   -0.9857    1.8245 C   0  0  0  0  0  0  0  0  0  0  0  0
    8.0807   -0.8714    1.0161 C   0  0  0  0  0  0  0  0  0  0  0  0
    7.9295   -1.6889   -0.0833 C   0  0  0  0  0  0  0  0  0  0  0  0
    6.8030   -1.5757   -0.8676 C   0  0  0  0  0  0  0  0  0  0  0  0
    5.8040   -0.6571   -0.5862 C   0  0  0  0  0  0  0  0  0  0  0  0
    4.6485   -0.5371   -1.3861 N   0  0  0  0  0  0  0  0  0  0  0  0
    3.6473    0.4366   -1.0407 C   0  0  2  0  0  0  0  0  0  0  0  0
    3.0679    0.2117    0.3220 C   0  0  0  0  0  0  0  0  0  0  0  0
    1.7976   -0.5580    0.0237 C   0  0  0  0  0  0  0  0  0  0  0  0
    1.3078    0.1105   -1.1530 N   0  0  0  0  0  0  0  0  0  0  0  0
   -0.0145    0.4962   -1.4742 C   0  0  0  0  0  0  0  0  0  0  0  0
   -0.2723    1.0782   -2.5566 O   0  0  0  0  0  0  0  0  0  0  0  0
   -1.1017    0.2674   -0.6401 O   0  0  0  0  0  0  0  0  0  0  0  0
   -2.4281    0.6661   -0.9859 C   0  0  1  0  0  0  0  0  0  0  0  0
   -3.2743   -0.5872   -0.9401 C   0  0  0  0  0  0  0  0  0  0  0  0
   -2.9364   -1.3253    0.3469 C   0  0  0  0  0  0  0  0  0  0  0  0
   -3.2880   -0.4225    1.5034 C   0  0  0  0  0  0  0  0  0  0  0  0
   -2.5131    0.8725    1.4376 C   0  0  0  0  0  0  0  0  0  0  0  0
   -2.8869    1.5715    0.1446 C   0  0  0  0  0  0  0  0  0  0  0  0
   -4.3655    1.8343    0.1014 C   0  0  0  0  0  0  0  0  0  0  0  0
   -5.1192    0.5432    0.1794 C   0  0  2  0  0  0  0  0  0  0  0  0
   -6.5690    0.8304    0.1859 C   0  0  0  0  0  0  0  0  0  0  0  0
   -7.1092    1.6185    1.2147 N   0  0  0  0  0  0  0  0  0  0  0  0
   -7.3016    0.3736   -0.7178 O   0  0  0  0  0  0  0  0  0  0  0  0
   -4.7676   -0.1741    1.4623 C   0  0  0  0  0  0  0  0  0  0  0  0
   -4.7368   -0.2989   -1.0085 C   0  0  0  0  0  0  0  0  0  0  0  0
    2.4590    0.3354   -2.0016 C   0  0  0  0  0  0  0  0  0  0  0  0
    5.9748    0.1267    0.4890 N   0  0  0  0  0  0  0  0  0  0  0  0
    7.0636    0.0379    1.2717 C   0  0  0  0  0  0  0  0  0  0  0  0
    8.6878   -2.4171   -0.3338 H   0  0  0  0  0  0  0  0  0  0  0  0
    6.6560   -2.2077   -1.7421 H   0  0  0  0  0  0  0  0  0  0  0  0
    4.5396   -1.1710   -2.2319 H   0  0  0  0  0  0  0  0  0  0  0  0
    4.0932    1.4443   -1.1008 H   0  0  0  0  0  0  0  0  0  0  0  0
    2.8579    1.1332    0.8804 H   0  0  0  0  0  0  0  0  0  0  0  0
    3.7043   -0.4690    0.9401 H   0  0  0  0  0  0  0  0  0  0  0  0
    1.0980   -0.4110    0.8898 H   0  0  0  0  0  0  0  0  0  0  0  0
    1.9680   -1.6377   -0.1124 H   0  0  0  0  0  0  0  0  0  0  0  0
   -2.4850    1.1571   -1.9541 H   0  0  0  0  0  0  0  0  0  0  0  0
   -2.9871   -1.2309   -1.7758 H   0  0  0  0  0  0  0  0  0  0  0  0
   -1.8915   -1.6319    0.3890 H   0  0  0  0  0  0  0  0  0  0  0  0
   -3.5848   -2.2207    0.3844 H   0  0  0  0  0  0  0  0  0  0  0  0
   -3.0577   -0.9806    2.4391 H   0  0  0  0  0  0  0  0  0  0  0  0
   -1.4330    0.6467    1.4098 H   0  0  0  0  0  0  0  0  0  0  0  0
   -2.7658    1.4955    2.3064 H   0  0  0  0  0  0  0  0  0  0  0  0
   -2.3464    2.5257    0.0268 H   0  0  0  0  0  0  0  0  0  0  0  0
   -4.6064    2.3755   -0.8379 H   0  0  0  0  0  0  0  0  0  0  0  0
   -4.6214    2.4778    0.9466 H   0  0  0  0  0  0  0  0  0  0  0  0
   -7.0602    2.6570    1.1274 H   0  0  0  0  0  0  0  0  0  0  0  0
   -7.5460    1.1453    2.0407 H   0  0  0  0  0  0  0  0  0  0  0  0
   -5.1223    0.4130    2.3316 H   0  0  0  0  0  0  0  0  0  0  0  0
   -5.2718   -1.1616    1.4709 H   0  0  0  0  0  0  0  0  0  0  0  0
   -5.2829   -1.2510   -1.0041 H   0  0  0  0  0  0  0  0  0  0  0  0
   -4.9704    0.2330   -1.9459 H   0  0  0  0  0  0  0  0  0  0  0  0
    2.6055   -0.5188   -2.6986 H   0  0  0  0  0  0  0  0  0  0  0  0
    2.3070    1.2919   -2.5518 H   0  0  0  0  0  0  0  0  0  0  0  0
    7.1870    0.6718    2.1293 H   0  0  0  0  0  0  0  0  0  0  0  0
  1  2  3  0
  2  3  1  0
  3  4  2  0
  4  5  1  0
  5  6  2  0
  6  7  1  0
  7  8  1  0
  8  9  1  0
  9 10  1  0
 10 11  1  0
 11 12  1  0
 12 13  2  0
 12 14  1  0
 14 15  1  0
 15 16  1  0
 16 17  1  0
 17 18  1  0
 18 19  1  0
 19 20  1  0
 20 21  1  0
 21 22  1  0
 22 23  1  1
 23 24  1  0
 23 25  2  0
 22 26  1  0
 22 27  1  0
 11 28  1  0
  6 29  1  0
 29 30  2  0
 30  3  1  0
 28  8  1  0
 20 15  1  0
 27 16  1  0
 26 18  1  0
  4 31  1  0
  5 32  1  0
  7 33  1  0
  8 34  1  1
  9 35  1  0
  9 36  1  0
 10 37  1  0
 10 38  1  0
 15 39  1  6
 16 40  1  0
 17 41  1  0
 17 42  1  0
 18 43  1  0
 19 44  1  0
 19 45  1  0
 20 46  1  0
 21 47  1  0
 21 48  1  0
 24 49  1  0
 24 50  1  0
 26 51  1  0
 26 52  1  0
 27 53  1  0
 27 54  1  0
 28 55  1  0
 28 56  1  0
 30 57  1  0
M  END
$$$$
