@<TRIPOS>MOLECULE
*****
 57 61 0 0 0
SMALL
GASTEIGER

@<TRIPOS>ATOM
      1 N          10.1907   -1.0822    2.4952 N.1     1  UNL1       -0.1908
      2 C           9.2382   -0.9857    1.8245 C.1     1  UNL1        0.1007
      3 C           8.0807   -0.8714    1.0161 C.ar    1  UNL1        0.0699
      4 C           7.9295   -1.6889   -0.0833 C.ar    1  UNL1       -0.0396
      5 C           6.8030   -1.5757   -0.8676 C.ar    1  UNL1       -0.0207
      6 C           5.8040   -0.6571   -0.5862 C.ar    1  UNL1        0.1190
      7 N           4.6485   -0.5371   -1.3861 N.pl3   1  UNL1       -0.3247
      8 C           3.6473    0.4366   -1.0407 C.3     1  UNL1        0.0392
      9 C           3.0679    0.2117    0.3220 C.3     1  UNL1       -0.0171
     10 C           1.7976   -0.5580    0.0237 C.3     1  UNL1        0.0196
     11 N           1.3078    0.1105   -1.1530 N.am    1  UNL1       -0.2656
     12 C          -0.0145    0.4962   -1.4742 C.2     1  UNL1        0.4032
     13 O          -0.2723    1.0782   -2.5566 O.2     1  UNL1       -0.2262
     14 O          -1.1017    0.2674   -0.6401 O.3     1  UNL1       -0.4464
     15 C          -2.4281    0.6661   -0.9859 C.3     1  UNL1        0.1103
     16 C          -3.2743   -0.5872   -0.9401 C.3     1  UNL1       -0.0023
     17 C          -2.9364   -1.3253    0.3469 C.3     1  UNL1       -0.0439
     18 C          -3.2880   -0.4225    1.5034 C.3     1  UNL1       -0.0394
     19 C          -2.5131    0.8725    1.4376 C.3     1  UNL1       -0.0439
     20 C          -2.8869    1.5715    0.1446 C.3     1  UNL1       -0.0023
     21 C          -4.3655    1.8343    0.1014 C.3     1  UNL1       -0.0328
     22 C          -5.1192    0.5432    0.1794 C.3     1  UNL1        0.0477
     23 C          -6.5690    0.8304    0.1859 C.2     1  UNL1        0.2167
     24 N          -7.1092    1.6185    1.2147 N.am    1  UNL1       -0.3289
     25 O          -7.3016    0.3736   -0.7178 O.2     1  UNL1       -0.2754
     26 C          -4.7676   -0.1741    1.4623 C.3     1  UNL1       -0.0362
     27 C          -4.7368   -0.2989   -1.0085 C.3     1  UNL1       -0.0328
     28 C           2.4590    0.3354   -2.0016 C.3     1  UNL1        0.0362
     29 N           5.9748    0.1267    0.4890 N.ar    1  UNL1       -0.2392
     30 C           7.0636    0.0379    1.2717 C.ar    1  UNL1        0.0470
     31 H           8.6878   -2.4171   -0.3338 H       1  UNL1        0.0632
     32 H           6.6560   -2.2077   -1.7421 H       1  UNL1        0.0652
     33 H           4.5396   -1.1710   -2.2319 H       1  UNL1        0.1478
     34 H           4.0932    1.4443   -1.1008 H       1  UNL1        0.0514
     35 H           2.8579    1.1332    0.8804 H       1  UNL1        0.0299
     36 H           3.7043   -0.4690    0.9401 H       1  UNL1        0.0299
     37 H           1.0980   -0.4110    0.8898 H       1  UNL1        0.0466
     38 H           1.9680   -1.6377   -0.1124 H       1  UNL1        0.0466
     39 H          -2.4850    1.1571   -1.9541 H       1  UNL1        0.0740
     40 H          -2.9871   -1.2309   -1.7758 H       1  UNL1        0.0337
     41 H          -1.8915   -1.6319    0.3890 H       1  UNL1        0.0272
     42 H          -3.5848   -2.2207    0.3844 H       1  UNL1        0.0272
     43 H          -3.0577   -0.9806    2.4391 H       1  UNL1        0.0301
     44 H          -1.4330    0.6467    1.4098 H       1  UNL1        0.0272
     45 H          -2.7658    1.4955    2.3064 H       1  UNL1        0.0272
     46 H          -2.3464    2.5257    0.0268 H       1  UNL1        0.0337
     47 H          -4.6064    2.3755   -0.8379 H       1  UNL1        0.0279
     48 H          -4.6214    2.4778    0.9466 H       1  UNL1        0.0279
     49 H          -7.0602    2.6570    1.1274 H       1  UNL1        0.1449
     50 H          -7.5460    1.1453    2.0407 H       1  UNL1        0.1449
     51 H          -5.1223    0.4130    2.3316 H       1  UNL1        0.0278
     52 H          -5.2718   -1.1616    1.4709 H       1  UNL1        0.0278
     53 H          -5.2829   -1.2510   -1.0041 H       1  UNL1        0.0279
     54 H          -4.9704    0.2330   -1.9459 H       1  UNL1        0.0279
     55 H           2.6055   -0.5188   -2.6986 H       1  UNL1        0.0484
     56 H           2.3070    1.2919   -2.5518 H       1  UNL1        0.0484
     57 H           7.1870    0.6718    2.1293 H       1  UNL1        0.0843
@<TRIPOS>BOND
     1     1     2    3
     2     2     3    1
     3     3     4   ar
     4     4     5   ar
     5     5     6   ar
     6     6     7    1
     7     7     8    1
     8     8     9    1
     9     9    10    1
    10    10    11    1
    11    11    12   am
    12    12    13    2
    13    12    14    1
    14    14    15    1
    15    15    16    1
    16    16    17    1
    17    17    18    1
    18    18    19    1
    19    19    20    1
    20    20    21    1
    21    21    22    1
    22    22    23    1
    23    23    24   am
    24    23    25    2
    25    22    26    1
    26    22    27    1
    27    11    28    1
    28     6    29   ar
    29    29    30   ar
    30    30     3   ar
    31    28     8    1
    32    20    15    1
    33    27    16    1
    34    26    18    1
    35     4    31    1
    36     5    32    1
    37     7    33    1
    38     8    34    1
    39     9    35    1
    40     9    36    1
    41    10    37    1
    42    10    38    1
    43    15    39    1
    44    16    40    1
    45    17    41    1
    46    17    42    1
    47    18    43    1
    48    19    44    1
    49    19    45    1
    50    20    46    1
    51    21    47    1
    52    21    48    1
    53    24    49    1
    54    24    50    1
    55    26    51    1
    56    26    52    1
    57    27    53    1
    58    27    54    1
    59    28    55    1
    60    28    56    1
    61    30    57    1
