
     RDKit          3D

 92 96  0  0  0  0  0  0  0  0999 V2000
   -4.9603   -3.8840   -1.9787 C   0  0  0  0  0  0  0  0  0  0  0  0
   -4.7583   -3.5752   -0.5093 C   0  0  0  0  0  0  0  0  0  0  0  0
   -3.8443   -4.6098    0.1169 C   0  0  0  0  0  0  0  0  0  0  0  0
   -6.1154   -3.7336    0.1390 C   0  0  0  0  0  0  0  0  0  0  0  0
   -4.3131   -2.2227   -0.2926 N   0  0  0  0  0  0  0  0  0  0  0  0
   -3.1075   -1.6968   -0.8332 C   0  0  0  0  0  0  0  0  0  0  0  0
   -2.3887   -2.4331   -1.5307 O   0  0  0  0  0  0  0  0  0  0  0  0
   -2.7935   -0.2774   -0.5166 C   0  0  2  0  0  0  0  0  0  0  0  0
   -3.9663    0.5101   -1.0990 C   0  0  0  0  0  0  0  0  0  0  0  0
   -3.9517    1.8992   -0.7030 N   0  0  0  0  0  0  0  0  0  0  0  0
   -4.8778    2.0889    0.3537 C   0  0  0  0  0  0  0  0  0  0  0  0
   -4.9091    3.5039    0.7680 C   0  0  0  0  0  0  0  0  0  0  0  0
   -5.7726    4.3362    0.0667 C   0  0  0  0  0  0  0  0  0  0  0  0
   -5.8274    5.6597    0.4357 C   0  0  0  0  0  0  0  0  0  0  0  0
   -5.0351    6.1087    1.4739 C   0  0  0  0  0  0  0  0  0  0  0  0
   -4.2120    5.2679    2.1269 N   0  0  0  0  0  0  0  0  0  0  0  0
   -4.1411    3.9745    1.7858 C   0  0  0  0  0  0  0  0  0  0  0  0
   -2.6113    2.3786   -0.4763 C   0  0  0  0  0  0  0  0  0  0  0  0
   -1.6203    1.5905   -1.3442 C   0  0  0  0  0  0  0  0  0  0  0  0
   -1.6151    0.2176   -1.0420 N   0  0  0  0  0  0  0  0  0  0  0  0
   -0.3739   -0.3787   -0.8925 C   0  0  0  0  0  0  0  0  0  0  0  0
    0.4675    0.0484    0.2935 C   0  0  1  0  0  0  0  0  0  0  0  0
   -0.2379   -0.2283    1.4598 O   0  0  0  0  0  0  0  0  0  0  0  0
    1.6518   -0.9220    0.3008 C   0  0  0  0  0  0  0  0  0  0  0  0
    2.6235   -0.6671    1.3996 C   0  0  1  0  0  0  0  0  0  0  0  0
    3.7281   -1.6970    1.2901 C   0  0  0  0  0  0  0  0  0  0  0  0
    3.2223   -3.0793    1.4179 C   0  0  0  0  0  0  0  0  0  0  0  0
    2.8273   -3.7428    0.2779 C   0  0  0  0  0  0  0  0  0  0  0  0
    2.3475   -5.0396    0.3493 C   0  0  0  0  0  0  0  0  0  0  0  0
    2.2778   -5.6377    1.5789 C   0  0  0  0  0  0  0  0  0  0  0  0
    2.6795   -4.9622    2.7362 C   0  0  0  0  0  0  0  0  0  0  0  0
    3.1516   -3.6781    2.6404 C   0  0  0  0  0  0  0  0  0  0  0  0
    3.2628    0.6862    1.2853 C   0  0  0  0  0  0  0  0  0  0  0  0
    3.1347    1.4722    2.2295 O   0  0  0  0  0  0  0  0  0  0  0  0
    3.9933    1.0779    0.1481 N   0  0  0  0  0  0  0  0  0  0  0  0
    4.6227    2.3967    0.0313 C   0  0  1  0  0  0  0  0  0  0  0  0
    6.0712    2.2289   -0.2385 C   0  0  0  0  0  0  0  0  0  0  0  0
    7.1558    1.9208    0.5920 C   0  0  0  0  0  0  0  0  0  0  0  0
    8.4332    1.8159    0.1216 C   0  0  0  0  0  0  0  0  0  0  0  0
    8.7074    2.0154   -1.2244 C   0  0  0  0  0  0  0  0  0  0  0  0
    7.6445    2.3167   -2.0335 C   0  0  0  0  0  0  0  0  0  0  0  0
    6.3570    2.4221   -1.5583 C   0  0  0  0  0  0  0  0  0  0  0  0
    5.0728    2.7347   -2.2619 C   0  0  0  0  0  0  0  0  0  0  0  0
    4.1258    3.1589   -1.1643 C   0  0  1  0  0  0  0  0  0  0  0  0
    2.8047    2.9057   -1.4781 O   0  0  0  0  0  0  0  0  0  0  0  0
   -5.6519   -4.7510   -2.0371 H   0  0  0  0  0  0  0  0  0  0  0  0
   -4.0309   -4.1686   -2.4834 H   0  0  0  0  0  0  0  0  0  0  0  0
   -5.4687   -3.0158   -2.4331 H   0  0  0  0  0  0  0  0  0  0  0  0
   -4.4359   -5.5718    0.1037 H   0  0  0  0  0  0  0  0  0  0  0  0
   -3.7452   -4.3520    1.1916 H   0  0  0  0  0  0  0  0  0  0  0  0
   -2.8837   -4.7097   -0.3899 H   0  0  0  0  0  0  0  0  0  0  0  0
   -6.9047   -3.3147   -0.5449 H   0  0  0  0  0  0  0  0  0  0  0  0
   -6.2203   -3.2098    1.0892 H   0  0  0  0  0  0  0  0  0  0  0  0
   -6.3754   -4.8241    0.2258 H   0  0  0  0  0  0  0  0  0  0  0  0
   -4.9031   -1.5939    0.2916 H   0  0  0  0  0  0  0  0  0  0  0  0
   -2.9135   -0.1819    0.5980 H   0  0  0  0  0  0  0  0  0  0  0  0
   -4.9388    0.0950   -0.8392 H   0  0  0  0  0  0  0  0  0  0  0  0
   -3.7870    0.5086   -2.2123 H   0  0  0  0  0  0  0  0  0  0  0  0
   -4.6912    1.4014    1.2070 H   0  0  0  0  0  0  0  0  0  0  0  0
   -5.9053    1.8132    0.0009 H   0  0  0  0  0  0  0  0  0  0  0  0
   -6.3875    3.9711   -0.7445 H   0  0  0  0  0  0  0  0  0  0  0  0
   -6.4753    6.3679   -0.0648 H   0  0  0  0  0  0  0  0  0  0  0  0
   -5.0645    7.1650    1.7838 H   0  0  0  0  0  0  0  0  0  0  0  0
   -3.4819    3.2726    2.3079 H   0  0  0  0  0  0  0  0  0  0  0  0
   -2.4953    3.4406   -0.7209 H   0  0  0  0  0  0  0  0  0  0  0  0
   -2.2988    2.2021    0.5638 H   0  0  0  0  0  0  0  0  0  0  0  0
   -1.9336    1.7951   -2.3913 H   0  0  0  0  0  0  0  0  0  0  0  0
   -0.6384    2.0891   -1.1904 H   0  0  0  0  0  0  0  0  0  0  0  0
   -0.3747   -1.4863   -0.8794 H   0  0  0  0  0  0  0  0  0  0  0  0
    0.2622   -0.1203   -1.7944 H   0  0  0  0  0  0  0  0  0  0  0  0
    0.8783    1.0526    0.2233 H   0  0  0  0  0  0  0  0  0  0  0  0
    0.0243    0.3470    2.2258 H   0  0  0  0  0  0  0  0  0  0  0  0
    1.1886   -1.9231    0.4487 H   0  0  0  0  0  0  0  0  0  0  0  0
    2.1128   -0.9186   -0.7083 H   0  0  0  0  0  0  0  0  0  0  0  0
    2.1293   -0.8094    2.3576 H   0  0  0  0  0  0  0  0  0  0  0  0
    4.2909   -1.5208    0.3580 H   0  0  0  0  0  0  0  0  0  0  0  0
    4.4314   -1.5200    2.1499 H   0  0  0  0  0  0  0  0  0  0  0  0
    2.8879   -3.2559   -0.6847 H   0  0  0  0  0  0  0  0  0  0  0  0
    2.0500   -5.5134   -0.5839 H   0  0  0  0  0  0  0  0  0  0  0  0
    1.9037   -6.6554    1.6557 H   0  0  0  0  0  0  0  0  0  0  0  0
    2.6195   -5.4443    3.6914 H   0  0  0  0  0  0  0  0  0  0  0  0
    3.4653   -3.1408    3.5143 H   0  0  0  0  0  0  0  0  0  0  0  0
    4.0871    0.4004   -0.6382 H   0  0  0  0  0  0  0  0  0  0  0  0
    4.4857    2.9761    0.9719 H   0  0  0  0  0  0  0  0  0  0  0  0
    7.0010    1.7525    1.6622 H   0  0  0  0  0  0  0  0  0  0  0  0
    9.2795    1.5784    0.7503 H   0  0  0  0  0  0  0  0  0  0  0  0
    9.7203    1.9351   -1.6162 H   0  0  0  0  0  0  0  0  0  0  0  0
    7.8431    2.4778   -3.1002 H   0  0  0  0  0  0  0  0  0  0  0  0
    4.6604    1.8592   -2.7622 H   0  0  0  0  0  0  0  0  0  0  0  0
    5.2391    3.5818   -2.9676 H   0  0  0  0  0  0  0  0  0  0  0  0
    4.2998    4.2370   -0.9617 H   0  0  0  0  0  0  0  0  0  0  0  0
    2.2151    3.4113   -0.8651 H   0  0  0  0  0  0  0  0  0  0  0  0
  1  2  1  0
  2  3  1  0
  2  4  1  0
  2  5  1  0
  5  6  1  0
  6  7  2  0
  6  8  1  0
  8  9  1  0
  9 10  1  0
 10 11  1  0
 11 12  1  0
 12 13  2  0
 13 14  1  0
 14 15  2  0
 15 16  1  0
 16 17  2  0
 10 18  1  0
 18 19  1  0
 19 20  1  0
 20 21  1  0
 21 22  1  0
 22 23  1  0
 22 24  1  0
 24 25  1  0
 25 26  1  0
 26 27  1  0
 27 28  2  0
 28 29  1  0
 29 30  2  0
 30 31  1  0
 31 32  2  0
 25 33  1  0
 33 34  2  0
 33 35  1  0
 35 36  1  0
 36 37  1  0
 37 38  2  0
 38 39  1  0
 39 40  2  0
 40 41  1  0
 41 42  2  0
 42 43  1  0
 43 44  1  0
 44 45  1  0
 20  8  1  0
 32 27  1  0
 44 36  1  0
 17 12  1  0
 42 37  1  0
  1 46  1  0
  1 47  1  0
  1 48  1  0
  3 49  1  0
  3 50  1  0
  3 51  1  0
  4 52  1  0
  4 53  1  0
  4 54  1  0
  5 55  1  0
  8 56  1  1
  9 57  1  0
  9 58  1  0
 11 59  1  0
 11 60  1  0
 13 61  1  0
 14 62  1  0
 15 63  1  0
 17 64  1  0
 18 65  1  0
 18 66  1  0
 19 67  1  0
 19 68  1  0
 21 69  1  0
 21 70  1  0
 22 71  1  6
 23 72  1  0
 24 73  1  0
 24 74  1  0
 25 75  1  1
 26 76  1  0
 26 77  1  0
 28 78  1  0
 29 79  1  0
 30 80  1  0
 31 81  1  0
 32 82  1  0
 35 83  1  0
 36 84  1  1
 38 85  1  0
 39 86  1  0
 40 87  1  0
 41 88  1  0
 43 89  1  0
 43 90  1  0
 44 91  1  1
 45 92  1  0
M  END
$$$$
