@<TRIPOS>MOLECULE
*****
 92 96 0 0 0
SMALL
GASTEIGER

@<TRIPOS>ATOM
      1 C          -4.9603   -3.8840   -1.9787 C.3     1  UNL1       -0.0442
      2 C          -4.7583   -3.5752   -0.5093 C.3     1  UNL1        0.0262
      3 C          -3.8443   -4.6098    0.1169 C.3     1  UNL1       -0.0442
      4 C          -6.1154   -3.7336    0.1390 C.3     1  UNL1       -0.0442
      5 N          -4.3131   -2.2227   -0.2926 N.am    1  UNL1       -0.3092
      6 C          -3.1075   -1.6968   -0.8332 C.2     1  UNL1        0.2319
      7 O          -2.3887   -2.4331   -1.5307 O.2     1  UNL1       -0.2740
      8 C          -2.7935   -0.2774   -0.5166 C.3     1  UNL1        0.1002
      9 C          -3.9663    0.5101   -1.0990 C.3     1  UNL1        0.0234
     10 N          -3.9517    1.8992   -0.7030 N.3     1  UNL1       -0.2950
     11 C          -4.8778    2.0889    0.3537 C.3     1  UNL1        0.0256
     12 C          -4.9091    3.5039    0.7680 C.ar    1  UNL1       -0.0153
     13 C          -5.7726    4.3362    0.0667 C.ar    1  UNL1       -0.0545
     14 C          -5.8274    5.6597    0.4357 C.ar    1  UNL1       -0.0433
     15 C          -5.0351    6.1087    1.4739 C.ar    1  UNL1        0.0276
     16 N          -4.2120    5.2679    2.1269 N.ar    1  UNL1       -0.2629
     17 C          -4.1411    3.9745    1.7858 C.ar    1  UNL1        0.0320
     18 C          -2.6113    2.3786   -0.4763 C.3     1  UNL1        0.0121
     19 C          -1.6203    1.5905   -1.3442 C.3     1  UNL1        0.0125
     20 N          -1.6151    0.2176   -1.0420 N.3     1  UNL1       -0.2868
     21 C          -0.3739   -0.3787   -0.8925 C.3     1  UNL1        0.0258
     22 C           0.4675    0.0484    0.2935 C.3     1  UNL1        0.0686
     23 O          -0.2379   -0.2283    1.4598 O.3     1  UNL1       -0.3905
     24 C           1.6518   -0.9220    0.3008 C.3     1  UNL1       -0.0142
     25 C           2.6235   -0.6671    1.3996 C.3     1  UNL1        0.0419
     26 C           3.7281   -1.6970    1.2901 C.3     1  UNL1       -0.0165
     27 C           3.2223   -3.0793    1.4179 C.ar    1  UNL1       -0.0466
     28 C           2.8273   -3.7428    0.2779 C.ar    1  UNL1       -0.0586
     29 C           2.3475   -5.0396    0.3493 C.ar    1  UNL1       -0.0615
     30 C           2.2778   -5.6377    1.5789 C.ar    1  UNL1       -0.0617
     31 C           2.6795   -4.9622    2.7362 C.ar    1  UNL1       -0.0615
     32 C           3.1516   -3.6781    2.6404 C.ar    1  UNL1       -0.0586
     33 C           3.2628    0.6862    1.2853 C.2     1  UNL1        0.2170
     34 O           3.1347    1.4722    2.2295 O.2     1  UNL1       -0.2755
     35 N           3.9933    1.0779    0.1481 N.am    1  UNL1       -0.3057
     36 C           4.6227    2.3967    0.0313 C.3     1  UNL1        0.0748
     37 C           6.0712    2.2289   -0.2385 C.ar    1  UNL1       -0.0215
     38 C           7.1558    1.9208    0.5920 C.ar    1  UNL1       -0.0565
     39 C           8.4332    1.8159    0.1216 C.ar    1  UNL1       -0.0614
     40 C           8.7074    2.0154   -1.2244 C.ar    1  UNL1       -0.0615
     41 C           7.6445    2.3167   -2.0335 C.ar    1  UNL1       -0.0582
     42 C           6.3570    2.4221   -1.5583 C.ar    1  UNL1       -0.0398
     43 C           5.0728    2.7347   -2.2619 C.3     1  UNL1        0.0008
     44 C           4.1258    3.1589   -1.1643 C.3     1  UNL1        0.0816
     45 O           2.8047    2.9057   -1.4781 O.3     1  UNL1       -0.3893
     46 H          -5.6519   -4.7510   -2.0371 H       1  UNL1        0.0250
     47 H          -4.0309   -4.1686   -2.4834 H       1  UNL1        0.0250
     48 H          -5.4687   -3.0158   -2.4331 H       1  UNL1        0.0250
     49 H          -4.4359   -5.5718    0.1037 H       1  UNL1        0.0250
     50 H          -3.7452   -4.3520    1.1916 H       1  UNL1        0.0250
     51 H          -2.8837   -4.7097   -0.3899 H       1  UNL1        0.0250
     52 H          -6.9047   -3.3147   -0.5449 H       1  UNL1        0.0250
     53 H          -6.2203   -3.2098    1.0892 H       1  UNL1        0.0250
     54 H          -6.3754   -4.8241    0.2258 H       1  UNL1        0.0250
     55 H          -4.9031   -1.5939    0.2916 H       1  UNL1        0.1492
     56 H          -2.9135   -0.1819    0.5980 H       1  UNL1        0.0571
     57 H          -4.9388    0.0950   -0.8392 H       1  UNL1        0.0447
     58 H          -3.7870    0.5086   -2.2123 H       1  UNL1        0.0447
     59 H          -4.6912    1.4014    1.2070 H       1  UNL1        0.0476
     60 H          -5.9053    1.8132    0.0009 H       1  UNL1        0.0476
     61 H          -6.3875    3.9711   -0.7445 H       1  UNL1        0.0622
     62 H          -6.4753    6.3679   -0.0648 H       1  UNL1        0.0633
     63 H          -5.0645    7.1650    1.7838 H       1  UNL1        0.0829
     64 H          -3.4819    3.2726    2.3079 H       1  UNL1        0.0833
     65 H          -2.4953    3.4406   -0.7209 H       1  UNL1        0.0439
     66 H          -2.2988    2.2021    0.5638 H       1  UNL1        0.0439
     67 H          -1.9336    1.7951   -2.3913 H       1  UNL1        0.0439
     68 H          -0.6384    2.0891   -1.1904 H       1  UNL1        0.0439
     69 H          -0.3747   -1.4863   -0.8794 H       1  UNL1        0.0452
     70 H           0.2622   -0.1203   -1.7944 H       1  UNL1        0.0452
     71 H           0.8783    1.0526    0.2233 H       1  UNL1        0.0606
     72 H           0.0243    0.3470    2.2258 H       1  UNL1        0.2098
     73 H           1.1886   -1.9231    0.4487 H       1  UNL1        0.0298
     74 H           2.1128   -0.9186   -0.7083 H       1  UNL1        0.0298
     75 H           2.1293   -0.8094    2.3576 H       1  UNL1        0.0398
     76 H           4.2909   -1.5208    0.3580 H       1  UNL1        0.0320
     77 H           4.4314   -1.5200    2.1499 H       1  UNL1        0.0320
     78 H           2.8879   -3.2559   -0.6847 H       1  UNL1        0.0620
     79 H           2.0500   -5.5134   -0.5839 H       1  UNL1        0.0618
     80 H           1.9037   -6.6554    1.6557 H       1  UNL1        0.0618
     81 H           2.6195   -5.4443    3.6914 H       1  UNL1        0.0618
     82 H           3.4653   -3.1408    3.5143 H       1  UNL1        0.0620
     83 H           4.0871    0.4004   -0.6382 H       1  UNL1        0.1494
     84 H           4.4857    2.9761    0.9719 H       1  UNL1        0.0574
     85 H           7.0010    1.7525    1.6622 H       1  UNL1        0.0621
     86 H           9.2795    1.5784    0.7503 H       1  UNL1        0.0618
     87 H           9.7203    1.9351   -1.6162 H       1  UNL1        0.0618
     88 H           7.8431    2.4778   -3.1002 H       1  UNL1        0.0620
     89 H           4.6604    1.8592   -2.7622 H       1  UNL1        0.0339
     90 H           5.2391    3.5818   -2.9676 H       1  UNL1        0.0339
     91 H           4.2998    4.2370   -0.9617 H       1  UNL1        0.0618
     92 H           2.2151    3.4113   -0.8651 H       1  UNL1        0.2099
@<TRIPOS>BOND
     1     1     2    1
     2     2     3    1
     3     2     4    1
     4     2     5    1
     5     5     6   am
     6     6     7    2
     7     6     8    1
     8     8     9    1
     9     9    10    1
    10    10    11    1
    11    11    12    1
    12    12    13   ar
    13    13    14   ar
    14    14    15   ar
    15    15    16   ar
    16    16    17   ar
    17    10    18    1
    18    18    19    1
    19    19    20    1
    20    20    21    1
    21    21    22    1
    22    22    23    1
    23    22    24    1
    24    24    25    1
    25    25    26    1
    26    26    27    1
    27    27    28   ar
    28    28    29   ar
    29    29    30   ar
    30    30    31   ar
    31    31    32   ar
    32    25    33    1
    33    33    34    2
    34    33    35   am
    35    35    36    1
    36    36    37    1
    37    37    38   ar
    38    38    39   ar
    39    39    40   ar
    40    40    41   ar
    41    41    42   ar
    42    42    43    1
    43    43    44    1
    44    44    45    1
    45    20     8    1
    46    32    27   ar
    47    44    36    1
    48    17    12   ar
    49    42    37   ar
    50     1    46    1
    51     1    47    1
    52     1    48    1
    53     3    49    1
    54     3    50    1
    55     3    51    1
    56     4    52    1
    57     4    53    1
    58     4    54    1
    59     5    55    1
    60     8    56    1
    61     9    57    1
    62     9    58    1
    63    11    59    1
    64    11    60    1
    65    13    61    1
    66    14    62    1
    67    15    63    1
    68    17    64    1
    69    18    65    1
    70    18    66    1
    71    19    67    1
    72    19    68    1
    73    21    69    1
    74    21    70    1
    75    22    71    1
    76    23    72    1
    77    24    73    1
    78    24    74    1
    79    25    75    1
    80    26    76    1
    81    26    77    1
    82    28    78    1
    83    29    79    1
    84    30    80    1
    85    31    81    1
    86    32    82    1
    87    35    83    1
    88    36    84    1
    89    38    85    1
    90    39    86    1
    91    40    87    1
    92    41    88    1
    93    43    89    1
    94    43    90    1
    95    44    91    1
    96    45    92    1
