@<TRIPOS>MOLECULE
*****
 38 38 0 0 0
SMALL
GASTEIGER

@<TRIPOS>ATOM
      1 C          -2.8876   -1.7356    2.3475 C.3     1  UNL1       -0.0653
      2 C          -2.3943   -1.4803    0.9445 C.3     1  UNL1       -0.0559
      3 C          -1.3718   -0.3432    0.9299 C.3     1  UNL1       -0.0515
      4 C          -0.8818   -0.0911   -0.4706 C.3     1  UNL1       -0.0299
      5 C           0.1171    1.0073   -0.5638 C.3     1  UNL1        0.0902
      6 C          -0.3707    2.3452   -0.0931 C.3     1  UNL1        0.0485
      7 C          -1.5351    2.8710   -0.8393 C.2     1  UNL1        0.2373
      8 O          -2.1059    2.3288   -1.7938 O.2     1  UNL1       -0.2737
      9 N          -2.0421    4.1341   -0.4033 N.am    1  UNL1       -0.1974
     10 O          -3.1017    4.7255   -0.9991 O.3     1  UNL1       -0.2952
     11 S           1.6347    0.6546    0.2913 S.O2    1  UNL1        0.0002
     12 O           1.4152    0.6196    1.7753 O.2     1  UNL1       -0.1691
     13 O           2.5385    1.8561    0.0421 O.2     1  UNL1       -0.1691
     14 C           2.3883   -0.8091   -0.2839 C.ar    1  UNL1        0.0885
     15 C           2.1042   -2.0314    0.2797 C.ar    1  UNL1       -0.0369
     16 C           2.7093   -3.1898   -0.1856 C.ar    1  UNL1       -0.0600
     17 C           3.6091   -3.1375   -1.2242 C.ar    1  UNL1       -0.0616
     18 C           3.9117   -1.9243   -1.8072 C.ar    1  UNL1       -0.0600
     19 C           3.2906   -0.7754   -1.3217 C.ar    1  UNL1       -0.0369
     20 H          -3.6725   -1.0099    2.6455 H       1  UNL1        0.0230
     21 H          -3.2673   -2.7801    2.4388 H       1  UNL1        0.0230
     22 H          -2.0610   -1.6110    3.1071 H       1  UNL1        0.0230
     23 H          -1.9630   -2.3929    0.4956 H       1  UNL1        0.0263
     24 H          -3.2817   -1.2117    0.3252 H       1  UNL1        0.0263
     25 H          -1.8738    0.5566    1.2903 H       1  UNL1        0.0266
     26 H          -0.5077   -0.6703    1.5382 H       1  UNL1        0.0266
     27 H          -1.7494    0.1506   -1.1119 H       1  UNL1        0.0284
     28 H          -0.4483   -1.0282   -0.9276 H       1  UNL1        0.0284
     29 H           0.3279    1.1362   -1.6687 H       1  UNL1        0.0545
     30 H           0.4616    3.0792   -0.2623 H       1  UNL1        0.0378
     31 H          -0.6007    2.3587    0.9963 H       1  UNL1        0.0378
     32 H          -1.6126    4.6493    0.3938 H       1  UNL1        0.1822
     33 H          -2.8875    5.6819   -1.2438 H       1  UNL1        0.2414
     34 H           1.3910   -2.0714    1.1028 H       1  UNL1        0.0636
     35 H           2.4461   -4.1155    0.2961 H       1  UNL1        0.0618
     36 H           4.0957   -4.0237   -1.6073 H       1  UNL1        0.0618
     37 H           4.6192   -1.8770   -2.6250 H       1  UNL1        0.0618
     38 H           3.5566    0.1548   -1.8076 H       1  UNL1        0.0636
@<TRIPOS>BOND
     1     1     2    1
     2     2     3    1
     3     3     4    1
     4     4     5    1
     5     5     6    1
     6     6     7    1
     7     7     8    2
     8     7     9   am
     9     9    10    1
    10     5    11    1
    11    11    12    2
    12    11    13    2
    13    11    14    1
    14    14    15   ar
    15    15    16   ar
    16    16    17   ar
    17    17    18   ar
    18    18    19   ar
    19    19    14   ar
    20     1    20    1
    21     1    21    1
    22     1    22    1
    23     2    23    1
    24     2    24    1
    25     3    25    1
    26     3    26    1
    27     4    27    1
    28     4    28    1
    29     5    29    1
    30     6    30    1
    31     6    31    1
    32     9    32    1
    33    10    33    1
    34    15    34    1
    35    16    35    1
    36    17    36    1
    37    18    37    1
    38    19    38    1
