
     RDKit          3D

 38 38  0  0  0  0  0  0  0  0999 V2000
   -2.8876   -1.7356    2.3475 C   0  0  0  0  0  0  0  0  0  0  0  0
   -2.3943   -1.4803    0.9445 C   0  0  0  0  0  0  0  0  0  0  0  0
   -1.3718   -0.3432    0.9299 C   0  0  0  0  0  0  0  0  0  0  0  0
   -0.8818   -0.0911   -0.4706 C   0  0  0  0  0  0  0  0  0  0  0  0
    0.1171    1.0073   -0.5638 C   0  0  0  0  0  0  0  0  0  0  0  0
   -0.3707    2.3452   -0.0931 C   0  0  0  0  0  0  0  0  0  0  0  0
   -1.5351    2.8710   -0.8393 C   0  0  0  0  0  0  0  0  0  0  0  0
   -2.1059    2.3288   -1.7938 O   0  0  0  0  0  0  0  0  0  0  0  0
   -2.0421    4.1341   -0.4033 N   0  0  0  0  0  0  0  0  0  0  0  0
   -3.1017    4.7255   -0.9991 O   0  0  0  0  0  0  0  0  0  0  0  0
    1.6347    0.6546    0.2913 S   0  0  0  0  0  6  0  0  0  0  0  0
    1.4152    0.6196    1.7753 O   0  0  0  0  0  0  0  0  0  0  0  0
    2.5385    1.8561    0.0421 O   0  0  0  0  0  0  0  0  0  0  0  0
    2.3883   -0.8091   -0.2839 C   0  0  0  0  0  0  0  0  0  0  0  0
    2.1042   -2.0314    0.2797 C   0  0  0  0  0  0  0  0  0  0  0  0
    2.7093   -3.1898   -0.1856 C   0  0  0  0  0  0  0  0  0  0  0  0
    3.6091   -3.1375   -1.2242 C   0  0  0  0  0  0  0  0  0  0  0  0
    3.9117   -1.9243   -1.8072 C   0  0  0  0  0  0  0  0  0  0  0  0
    3.2906   -0.7754   -1.3217 C   0  0  0  0  0  0  0  0  0  0  0  0
   -3.6725   -1.0099    2.6455 H   0  0  0  0  0  0  0  0  0  0  0  0
   -3.2673   -2.7801    2.4388 H   0  0  0  0  0  0  0  0  0  0  0  0
   -2.0610   -1.6110    3.1071 H   0  0  0  0  0  0  0  0  0  0  0  0
   -1.9630   -2.3929    0.4956 H   0  0  0  0  0  0  0  0  0  0  0  0
   -3.2817   -1.2117    0.3252 H   0  0  0  0  0  0  0  0  0  0  0  0
   -1.8738    0.5566    1.2903 H   0  0  0  0  0  0  0  0  0  0  0  0
   -0.5077   -0.6703    1.5382 H   0  0  0  0  0  0  0  0  0  0  0  0
   -1.7494    0.1506   -1.1119 H   0  0  0  0  0  0  0  0  0  0  0  0
   -0.4483   -1.0282   -0.9276 H   0  0  0  0  0  0  0  0  0  0  0  0
    0.3279    1.1362   -1.6687 H   0  0  0  0  0  0  0  0  0  0  0  0
    0.4616    3.0792   -0.2623 H   0  0  0  0  0  0  0  0  0  0  0  0
   -0.6007    2.3587    0.9963 H   0  0  0  0  0  0  0  0  0  0  0  0
   -1.6126    4.6493    0.3938 H   0  0  0  0  0  0  0  0  0  0  0  0
   -2.8875    5.6819   -1.2438 H   0  0  0  0  0  0  0  0  0  0  0  0
    1.3910   -2.0714    1.1028 H   0  0  0  0  0  0  0  0  0  0  0  0
    2.4461   -4.1155    0.2961 H   0  0  0  0  0  0  0  0  0  0  0  0
    4.0957   -4.0237   -1.6073 H   0  0  0  0  0  0  0  0  0  0  0  0
    4.6192   -1.8770   -2.6250 H   0  0  0  0  0  0  0  0  0  0  0  0
    3.5566    0.1548   -1.8076 H   0  0  0  0  0  0  0  0  0  0  0  0
  1  2  1  0
  2  3  1  0
  3  4  1  0
  4  5  1  0
  5  6  1  0
  6  7  1  0
  7  8  2  0
  7  9  1  0
  9 10  1  0
  5 11  1  0
 11 12  2  0
 11 13  2  0
 11 14  1  0
 14 15  2  0
 15 16  1  0
 16 17  2  0
 17 18  1  0
 18 19  2  0
 19 14  1  0
  1 20  1  0
  1 21  1  0
  1 22  1  0
  2 23  1  0
  2 24  1  0
  3 25  1  0
  3 26  1  0
  4 27  1  0
  4 28  1  0
  5 29  1  0
  6 30  1  0
  6 31  1  0
  9 32  1  0
 10 33  1  0
 15 34  1  0
 16 35  1  0
 17 36  1  0
 18 37  1  0
 19 38  1  0
M  END
$$$$
