@<TRIPOS>MOLECULE
*****
 75 78 0 0 0
SMALL
GASTEIGER

@<TRIPOS>ATOM
      1 C          -4.5023    4.7797    0.0626 C.3     1  UNL1       -0.0653
      2 C          -3.9467    5.3808   -1.1982 C.3     1  UNL1       -0.0559
      3 C          -3.4066    4.3168   -2.1295 C.3     1  UNL1       -0.0533
      4 C          -2.2953    3.5366   -1.4572 C.3     1  UNL1       -0.0524
      5 C          -1.7531    2.4770   -2.3740 C.3     1  UNL1       -0.0428
      6 C          -0.6419    1.6637   -1.7609 C.3     1  UNL1        0.0276
      7 C           0.5175    2.4927   -1.3685 C.3     1  UNL1       -0.0178
      8 C           1.6604    1.8343   -0.7658 C.ar    1  UNL1       -0.0466
      9 C           1.8306    1.7801    0.6000 C.ar    1  UNL1       -0.0578
     10 C           2.9021    1.1426    1.1879 C.ar    1  UNL1       -0.0494
     11 C           3.8639    0.5232    0.4183 C.ar    1  UNL1        0.0367
     12 C           4.9968   -0.1496    1.0920 C.2     1  UNL1        0.2441
     13 O           5.0451   -0.1416    2.3577 O.2     1  UNL1       -0.2702
     14 N           6.0351   -0.8052    0.4000 N.am    1  UNL1       -0.3108
     15 C           7.1596   -1.4800    1.0052 C.3     1  UNL1        0.0220
     16 C           6.6450   -2.6061    1.8603 C.3     1  UNL1        0.0603
     17 C           7.7456   -3.3432    2.5075 C.2     1  UNL1        0.3062
     18 O           8.9261   -3.0140    2.3206 O.2     1  UNL1       -0.2510
     19 O           7.4586   -4.4088    3.3286 O.3     1  UNL1       -0.4806
     20 C           3.7289    0.5568   -0.9443 C.ar    1  UNL1       -0.0494
     21 C           2.6543    1.1966   -1.5084 C.ar    1  UNL1       -0.0578
     22 C          -1.1194    0.6654   -0.8040 C.2     1  UNL1        0.1831
     23 O          -0.8909    0.7865    0.4149 O.2     1  UNL1       -0.2902
     24 C          -1.8770   -0.5079   -1.2245 C.ar    1  UNL1        0.0906
     25 C          -2.1856   -0.8066   -2.5333 C.ar    1  UNL1       -0.0252
     26 C          -2.9265   -1.9947   -2.5546 C.ar    1  UNL1        0.0023
     27 C          -3.4992   -2.7663   -3.5396 C.ar    1  UNL1       -0.0342
     28 C          -4.1897   -3.9214   -3.2418 C.ar    1  UNL1        0.0417
     29 CL         -4.9259   -4.9146   -4.4978 Cl      1  UNL1       -0.0835
     30 C          -4.2743   -4.2588   -1.9115 C.ar    1  UNL1       -0.0414
     31 C          -3.7205   -3.5224   -0.8955 C.ar    1  UNL1       -0.0359
     32 C          -3.0306   -2.3608   -1.2435 C.ar    1  UNL1        0.0545
     33 N          -2.4051   -1.4754   -0.4469 N.ar    1  UNL1       -0.3062
     34 C          -2.2830   -1.4914    0.9590 C.ar    1  UNL1        0.0478
     35 C          -3.3693   -1.1580    1.7522 C.ar    1  UNL1       -0.0378
     36 C          -3.2959   -1.1599    3.1318 C.ar    1  UNL1       -0.0593
     37 C          -2.1238   -1.4982    3.7695 C.ar    1  UNL1       -0.0500
     38 C          -1.0374   -1.8314    2.9985 C.ar    1  UNL1        0.0568
     39 C           0.2334   -2.1974    3.7102 C.3     1  UNL1        0.4175
     40 F           0.9222   -3.1760    3.0418 F       1  UNL1       -0.1659
     41 F          -0.0242   -2.5217    5.0175 F       1  UNL1       -0.1659
     42 F           1.0108   -1.0481    3.7092 F       1  UNL1       -0.1659
     43 C          -1.1217   -1.8262    1.6252 C.ar    1  UNL1       -0.0262
     44 H          -4.8707    3.7558   -0.1820 H       1  UNL1        0.0230
     45 H          -5.3968    5.3335    0.4283 H       1  UNL1        0.0230
     46 H          -3.6923    4.7372    0.8074 H       1  UNL1        0.0230
     47 H          -3.1012    6.0865   -0.9708 H       1  UNL1        0.0263
     48 H          -4.7456    5.9375   -1.7098 H       1  UNL1        0.0263
     49 H          -2.9896    4.8531   -3.0152 H       1  UNL1        0.0265
     50 H          -4.2347    3.6747   -2.4737 H       1  UNL1        0.0265
     51 H          -2.7347    3.0933   -0.5345 H       1  UNL1        0.0265
     52 H          -1.5471    4.2719   -1.1255 H       1  UNL1        0.0265
     53 H          -2.5902    1.7863   -2.5961 H       1  UNL1        0.0272
     54 H          -1.4747    2.9612   -3.3289 H       1  UNL1        0.0272
     55 H          -0.2732    1.0427   -2.6591 H       1  UNL1        0.0385
     56 H           0.1255    3.2309   -0.6004 H       1  UNL1        0.0320
     57 H           0.8617    3.0378   -2.2762 H       1  UNL1        0.0320
     58 H           1.1362    2.2535    1.3019 H       1  UNL1        0.0620
     59 H           3.0164    1.1118    2.2819 H       1  UNL1        0.0625
     60 H           6.0078   -0.8156   -0.6497 H       1  UNL1        0.1490
     61 H           7.8942   -1.8089    0.2586 H       1  UNL1        0.0467
     62 H           7.7237   -0.7336    1.6425 H       1  UNL1        0.0467
     63 H           6.0940   -3.3093    1.1705 H       1  UNL1        0.0393
     64 H           5.9097   -2.2485    2.5752 H       1  UNL1        0.0393
     65 H           8.1026   -5.1678    3.5182 H       1  UNL1        0.2951
     66 H           4.4666    0.0808   -1.5748 H       1  UNL1        0.0625
     67 H           2.5531    1.2203   -2.5625 H       1  UNL1        0.0620
     68 H          -1.9508   -0.2999   -3.4613 H       1  UNL1        0.0646
     69 H          -3.4199   -2.4819   -4.5766 H       1  UNL1        0.0639
     70 H          -4.8145   -5.1686   -1.6358 H       1  UNL1        0.0633
     71 H          -3.7929   -3.7983    0.1574 H       1  UNL1        0.0639
     72 H          -4.3000   -0.8892    1.2625 H       1  UNL1        0.0638
     73 H          -4.1582   -0.8954    3.7447 H       1  UNL1        0.0618
     74 H          -2.0407   -1.5070    4.8633 H       1  UNL1        0.0623
     75 H          -0.2537   -2.0919    1.0494 H       1  UNL1        0.0644
@<TRIPOS>BOND
     1     1     2    1
     2     2     3    1
     3     3     4    1
     4     4     5    1
     5     5     6    1
     6     6     7    1
     7     7     8    1
     8     8     9   ar
     9     9    10   ar
    10    10    11   ar
    11    11    12    1
    12    12    13    2
    13    12    14   am
    14    14    15    1
    15    15    16    1
    16    16    17    1
    17    17    18    2
    18    17    19    1
    19    11    20   ar
    20    20    21   ar
    21     6    22    1
    22    22    23    2
    23    22    24    1
    24    24    25   ar
    25    25    26   ar
    26    26    27   ar
    27    27    28   ar
    28    28    29    1
    29    28    30   ar
    30    30    31   ar
    31    31    32   ar
    32    32    33   ar
    33    33    34    1
    34    34    35   ar
    35    35    36   ar
    36    36    37   ar
    37    37    38   ar
    38    38    39    1
    39    39    40    1
    40    39    41    1
    41    39    42    1
    42    38    43   ar
    43    21     8   ar
    44    33    24   ar
    45    43    34   ar
    46    32    26   ar
    47     1    44    1
    48     1    45    1
    49     1    46    1
    50     2    47    1
    51     2    48    1
    52     3    49    1
    53     3    50    1
    54     4    51    1
    55     4    52    1
    56     5    53    1
    57     5    54    1
    58     6    55    1
    59     7    56    1
    60     7    57    1
    61     9    58    1
    62    10    59    1
    63    14    60    1
    64    15    61    1
    65    15    62    1
    66    16    63    1
    67    16    64    1
    68    19    65    1
    69    20    66    1
    70    21    67    1
    71    25    68    1
    72    27    69    1
    73    30    70    1
    74    31    71    1
    75    35    72    1
    76    36    73    1
    77    37    74    1
    78    43    75    1
