
     RDKit          3D

 75 78  0  0  0  0  0  0  0  0999 V2000
   -4.5023    4.7797    0.0626 C   0  0  0  0  0  0  0  0  0  0  0  0
   -3.9467    5.3808   -1.1982 C   0  0  0  0  0  0  0  0  0  0  0  0
   -3.4066    4.3168   -2.1295 C   0  0  0  0  0  0  0  0  0  0  0  0
   -2.2953    3.5366   -1.4572 C   0  0  0  0  0  0  0  0  0  0  0  0
   -1.7531    2.4770   -2.3740 C   0  0  0  0  0  0  0  0  0  0  0  0
   -0.6419    1.6637   -1.7609 C   0  0  1  0  0  0  0  0  0  0  0  0
    0.5175    2.4927   -1.3685 C   0  0  0  0  0  0  0  0  0  0  0  0
    1.6604    1.8343   -0.7658 C   0  0  0  0  0  0  0  0  0  0  0  0
    1.8306    1.7801    0.6000 C   0  0  0  0  0  0  0  0  0  0  0  0
    2.9021    1.1426    1.1879 C   0  0  0  0  0  0  0  0  0  0  0  0
    3.8639    0.5232    0.4183 C   0  0  0  0  0  0  0  0  0  0  0  0
    4.9968   -0.1496    1.0920 C   0  0  0  0  0  0  0  0  0  0  0  0
    5.0451   -0.1416    2.3577 O   0  0  0  0  0  0  0  0  0  0  0  0
    6.0351   -0.8052    0.4000 N   0  0  0  0  0  0  0  0  0  0  0  0
    7.1596   -1.4800    1.0052 C   0  0  0  0  0  0  0  0  0  0  0  0
    6.6450   -2.6061    1.8603 C   0  0  0  0  0  0  0  0  0  0  0  0
    7.7456   -3.3432    2.5075 C   0  0  0  0  0  0  0  0  0  0  0  0
    8.9261   -3.0140    2.3206 O   0  0  0  0  0  0  0  0  0  0  0  0
    7.4586   -4.4088    3.3286 O   0  0  0  0  0  0  0  0  0  0  0  0
    3.7289    0.5568   -0.9443 C   0  0  0  0  0  0  0  0  0  0  0  0
    2.6543    1.1966   -1.5084 C   0  0  0  0  0  0  0  0  0  0  0  0
   -1.1194    0.6654   -0.8040 C   0  0  0  0  0  0  0  0  0  0  0  0
   -0.8909    0.7865    0.4149 O   0  0  0  0  0  0  0  0  0  0  0  0
   -1.8770   -0.5079   -1.2245 C   0  0  0  0  0  0  0  0  0  0  0  0
   -2.1856   -0.8066   -2.5333 C   0  0  0  0  0  0  0  0  0  0  0  0
   -2.9265   -1.9947   -2.5546 C   0  0  0  0  0  0  0  0  0  0  0  0
   -3.4992   -2.7663   -3.5396 C   0  0  0  0  0  0  0  0  0  0  0  0
   -4.1897   -3.9214   -3.2418 C   0  0  0  0  0  0  0  0  0  0  0  0
   -4.9259   -4.9146   -4.4978 Cl  0  0  0  0  0  0  0  0  0  0  0  0
   -4.2743   -4.2588   -1.9115 C   0  0  0  0  0  0  0  0  0  0  0  0
   -3.7205   -3.5224   -0.8955 C   0  0  0  0  0  0  0  0  0  0  0  0
   -3.0306   -2.3608   -1.2435 C   0  0  0  0  0  0  0  0  0  0  0  0
   -2.4051   -1.4754   -0.4469 N   0  0  0  0  0  0  0  0  0  0  0  0
   -2.2830   -1.4914    0.9590 C   0  0  0  0  0  0  0  0  0  0  0  0
   -3.3693   -1.1580    1.7522 C   0  0  0  0  0  0  0  0  0  0  0  0
   -3.2959   -1.1599    3.1318 C   0  0  0  0  0  0  0  0  0  0  0  0
   -2.1238   -1.4982    3.7695 C   0  0  0  0  0  0  0  0  0  0  0  0
   -1.0374   -1.8314    2.9985 C   0  0  0  0  0  0  0  0  0  0  0  0
    0.2334   -2.1974    3.7102 C   0  0  0  0  0  0  0  0  0  0  0  0
    0.9222   -3.1760    3.0418 F   0  0  0  0  0  0  0  0  0  0  0  0
   -0.0242   -2.5217    5.0175 F   0  0  0  0  0  0  0  0  0  0  0  0
    1.0108   -1.0481    3.7092 F   0  0  0  0  0  0  0  0  0  0  0  0
   -1.1217   -1.8262    1.6252 C   0  0  0  0  0  0  0  0  0  0  0  0
   -4.8707    3.7558   -0.1820 H   0  0  0  0  0  0  0  0  0  0  0  0
   -5.3968    5.3335    0.4283 H   0  0  0  0  0  0  0  0  0  0  0  0
   -3.6923    4.7372    0.8074 H   0  0  0  0  0  0  0  0  0  0  0  0
   -3.1012    6.0865   -0.9708 H   0  0  0  0  0  0  0  0  0  0  0  0
   -4.7456    5.9375   -1.7098 H   0  0  0  0  0  0  0  0  0  0  0  0
   -2.9896    4.8531   -3.0152 H   0  0  0  0  0  0  0  0  0  0  0  0
   -4.2347    3.6747   -2.4737 H   0  0  0  0  0  0  0  0  0  0  0  0
   -2.7347    3.0933   -0.5345 H   0  0  0  0  0  0  0  0  0  0  0  0
   -1.5471    4.2719   -1.1255 H   0  0  0  0  0  0  0  0  0  0  0  0
   -2.5902    1.7863   -2.5961 H   0  0  0  0  0  0  0  0  0  0  0  0
   -1.4747    2.9612   -3.3289 H   0  0  0  0  0  0  0  0  0  0  0  0
   -0.2732    1.0427   -2.6591 H   0  0  0  0  0  0  0  0  0  0  0  0
    0.1255    3.2309   -0.6004 H   0  0  0  0  0  0  0  0  0  0  0  0
    0.8617    3.0378   -2.2762 H   0  0  0  0  0  0  0  0  0  0  0  0
    1.1362    2.2535    1.3019 H   0  0  0  0  0  0  0  0  0  0  0  0
    3.0164    1.1118    2.2819 H   0  0  0  0  0  0  0  0  0  0  0  0
    6.0078   -0.8156   -0.6497 H   0  0  0  0  0  0  0  0  0  0  0  0
    7.8942   -1.8089    0.2586 H   0  0  0  0  0  0  0  0  0  0  0  0
    7.7237   -0.7336    1.6425 H   0  0  0  0  0  0  0  0  0  0  0  0
    6.0940   -3.3093    1.1705 H   0  0  0  0  0  0  0  0  0  0  0  0
    5.9097   -2.2485    2.5752 H   0  0  0  0  0  0  0  0  0  0  0  0
    8.1026   -5.1678    3.5182 H   0  0  0  0  0  0  0  0  0  0  0  0
    4.4666    0.0808   -1.5748 H   0  0  0  0  0  0  0  0  0  0  0  0
    2.5531    1.2203   -2.5625 H   0  0  0  0  0  0  0  0  0  0  0  0
   -1.9508   -0.2999   -3.4613 H   0  0  0  0  0  0  0  0  0  0  0  0
   -3.4199   -2.4819   -4.5766 H   0  0  0  0  0  0  0  0  0  0  0  0
   -4.8145   -5.1686   -1.6358 H   0  0  0  0  0  0  0  0  0  0  0  0
   -3.7929   -3.7983    0.1574 H   0  0  0  0  0  0  0  0  0  0  0  0
   -4.3000   -0.8892    1.2625 H   0  0  0  0  0  0  0  0  0  0  0  0
   -4.1582   -0.8954    3.7447 H   0  0  0  0  0  0  0  0  0  0  0  0
   -2.0407   -1.5070    4.8633 H   0  0  0  0  0  0  0  0  0  0  0  0
   -0.2537   -2.0919    1.0494 H   0  0  0  0  0  0  0  0  0  0  0  0
  1  2  1  0
  2  3  1  0
  3  4  1  0
  4  5  1  0
  5  6  1  0
  6  7  1  0
  7  8  1  0
  8  9  2  0
  9 10  1  0
 10 11  2  0
 11 12  1  0
 12 13  2  0
 12 14  1  0
 14 15  1  0
 15 16  1  0
 16 17  1  0
 17 18  2  0
 17 19  1  0
 11 20  1  0
 20 21  2  0
  6 22  1  0
 22 23  2  0
 22 24  1  0
 24 25  2  0
 25 26  1  0
 26 27  2  0
 27 28  1  0
 28 29  1  0
 28 30  2  0
 30 31  1  0
 31 32  2  0
 32 33  1  0
 33 34  1  0
 34 35  2  0
 35 36  1  0
 36 37  2  0
 37 38  1  0
 38 39  1  0
 39 40  1  0
 39 41  1  0
 39 42  1  0
 38 43  2  0
 21  8  1  0
 33 24  1  0
 43 34  1  0
 32 26  1  0
  1 44  1  0
  1 45  1  0
  1 46  1  0
  2 47  1  0
  2 48  1  0
  3 49  1  0
  3 50  1  0
  4 51  1  0
  4 52  1  0
  5 53  1  0
  5 54  1  0
  6 55  1  6
  7 56  1  0
  7 57  1  0
  9 58  1  0
 10 59  1  0
 14 60  1  0
 15 61  1  0
 15 62  1  0
 16 63  1  0
 16 64  1  0
 19 65  1  0
 20 66  1  0
 21 67  1  0
 25 68  1  0
 27 69  1  0
 30 70  1  0
 31 71  1  0
 35 72  1  0
 36 73  1  0
 37 74  1  0
 43 75  1  0
M  END
$$$$
