@<TRIPOS>MOLECULE
*****
 56 58 0 0 0
SMALL
GASTEIGER

@<TRIPOS>ATOM
      1 C           7.5957    2.5046    0.2522 C.3     1  UNL1        0.0365
      2 O           6.7666    1.3955    0.0973 O.3     1  UNL1       -0.3817
      3 C           7.1214    0.6271   -1.0005 C.3     1  UNL1        0.0614
      4 C           6.1421   -0.5336   -1.0434 C.3     1  UNL1        0.0408
      5 N           6.2832   -1.2635    0.1952 N.3     1  UNL1       -0.1878
      6 S           5.2295   -2.6152    0.2902 S.O2    1  UNL1        0.0585
      7 O           5.5625   -3.5196   -0.8684 O.2     1  UNL1       -0.1530
      8 O           5.5362   -3.3496    1.5431 O.2     1  UNL1       -0.1530
      9 C           3.5740   -2.0748    0.2193 C.ar    1  UNL1        0.1054
     10 C           2.8848   -1.7595    1.3701 C.ar    1  UNL1       -0.0336
     11 C           1.5801   -1.3394    1.2387 C.ar    1  UNL1       -0.0386
     12 C           0.8787   -1.1980    0.0640 C.ar    1  UNL1        0.0337
     13 N          -0.4628   -0.7653   -0.0585 N.pl3   1  UNL1       -0.2836
     14 C          -1.3719   -0.3874    0.9649 C.ar    1  UNL1        0.2200
     15 N          -2.6037   -0.0101    0.5994 N.ar    1  UNL1       -0.2127
     16 C          -3.5378    0.3642    1.4703 C.ar    1  UNL1        0.0939
     17 C          -3.1804    0.3489    2.8019 C.ar    1  UNL1       -0.0159
     18 C          -1.9333   -0.0275    3.2451 C.ar    1  UNL1        0.0333
     19 N          -1.0866   -0.3810    2.2713 N.ar    1  UNL1       -0.2226
     20 C          -4.8925    0.7812    1.0957 C.ar    1  UNL1        0.0875
     21 C          -5.8662    1.1724    2.0169 C.ar    1  UNL1        0.0552
     22 N          -6.9531    1.4748    1.2968 N.ar    1  UNL1       -0.2402
     23 C          -6.6996    1.2908   -0.0119 C.ar    1  UNL1        0.1072
     24 C          -7.7192    1.5451   -1.0697 C.3     1  UNL1       -0.0063
     25 N          -5.4113    0.8561   -0.1520 N.ar    1  UNL1       -0.3240
     26 C          -4.7818    0.5524   -1.4112 C.3     1  UNL1        0.0306
     27 C          -3.6226    1.4459   -1.7466 C.3     1  UNL1       -0.0444
     28 C          -4.3886   -0.9031   -1.5569 C.3     1  UNL1       -0.0444
     29 C           1.6259   -1.5294   -1.0453 C.ar    1  UNL1       -0.0386
     30 C           2.9306   -1.9553   -0.9908 C.ar    1  UNL1       -0.0336
     31 H           7.5630    3.1788   -0.6354 H       1  UNL1        0.0523
     32 H           8.6138    2.1387    0.4634 H       1  UNL1        0.0523
     33 H           7.2498    3.0774    1.1327 H       1  UNL1        0.0523
     34 H           8.1437    0.2023   -0.8272 H       1  UNL1        0.0573
     35 H           7.1228    1.2059   -1.9432 H       1  UNL1        0.0573
     36 H           6.3252   -1.1743   -1.9325 H       1  UNL1        0.0464
     37 H           5.1427   -0.0954   -1.1837 H       1  UNL1        0.0464
     38 H           6.1448   -0.5990    0.9729 H       1  UNL1        0.1481
     39 H           3.3774   -1.8490    2.3225 H       1  UNL1        0.0638
     40 H           1.1026   -1.1100    2.1778 H       1  UNL1        0.0637
     41 H          -0.8109   -0.7271   -1.0603 H       1  UNL1        0.1550
     42 H          -3.9153    0.6488    3.5583 H       1  UNL1        0.0655
     43 H          -1.6432   -0.0428    4.2892 H       1  UNL1        0.0831
     44 H          -5.8264    1.2421    3.0956 H       1  UNL1        0.0852
     45 H          -7.2896    1.7870   -2.0480 H       1  UNL1        0.0307
     46 H          -8.3446    2.4140   -0.7509 H       1  UNL1        0.0307
     47 H          -8.3658    0.6486   -1.0763 H       1  UNL1        0.0307
     48 H          -5.5404    0.7398   -2.2329 H       1  UNL1        0.0523
     49 H          -3.8169    2.1129   -2.6357 H       1  UNL1        0.0249
     50 H          -3.3787    2.1822   -0.9320 H       1  UNL1        0.0249
     51 H          -2.7170    0.8751   -2.0384 H       1  UNL1        0.0249
     52 H          -4.6495   -1.4604   -0.6111 H       1  UNL1        0.0249
     53 H          -4.9910   -1.4289   -2.3590 H       1  UNL1        0.0249
     54 H          -3.3413   -1.0535   -1.8742 H       1  UNL1        0.0249
     55 H           1.1839   -1.4605   -2.0495 H       1  UNL1        0.0637
     56 H           3.4607   -2.1997   -1.8990 H       1  UNL1        0.0638
@<TRIPOS>BOND
     1     1     2    1
     2     2     3    1
     3     3     4    1
     4     4     5    1
     5     5     6    1
     6     6     7    2
     7     6     8    2
     8     6     9    1
     9     9    10   ar
    10    10    11   ar
    11    11    12   ar
    12    12    13    1
    13    13    14    1
    14    14    15   ar
    15    15    16   ar
    16    16    17   ar
    17    17    18   ar
    18    18    19   ar
    19    16    20    1
    20    20    21   ar
    21    21    22   ar
    22    22    23   ar
    23    23    24    1
    24    23    25   ar
    25    25    26    1
    26    26    27    1
    27    26    28    1
    28    12    29   ar
    29    29    30   ar
    30    30     9   ar
    31    19    14   ar
    32    25    20   ar
    33     1    31    1
    34     1    32    1
    35     1    33    1
    36     3    34    1
    37     3    35    1
    38     4    36    1
    39     4    37    1
    40     5    38    1
    41    10    39    1
    42    11    40    1
    43    13    41    1
    44    17    42    1
    45    18    43    1
    46    21    44    1
    47    24    45    1
    48    24    46    1
    49    24    47    1
    50    26    48    1
    51    27    49    1
    52    27    50    1
    53    27    51    1
    54    28    52    1
    55    28    53    1
    56    28    54    1
    57    29    55    1
    58    30    56    1
