
     RDKit          3D

 56 58  0  0  0  0  0  0  0  0999 V2000
    7.5957    2.5046    0.2522 C   0  0  0  0  0  0  0  0  0  0  0  0
    6.7666    1.3955    0.0973 O   0  0  0  0  0  0  0  0  0  0  0  0
    7.1214    0.6271   -1.0005 C   0  0  0  0  0  0  0  0  0  0  0  0
    6.1421   -0.5336   -1.0434 C   0  0  0  0  0  0  0  0  0  0  0  0
    6.2832   -1.2635    0.1952 N   0  0  0  0  0  0  0  0  0  0  0  0
    5.2295   -2.6152    0.2902 S   0  0  0  0  0  0  0  0  0  0  0  0
    5.5625   -3.5196   -0.8684 O   0  0  0  0  0  0  0  0  0  0  0  0
    5.5362   -3.3496    1.5431 O   0  0  0  0  0  0  0  0  0  0  0  0
    3.5740   -2.0748    0.2193 C   0  0  0  0  0  0  0  0  0  0  0  0
    2.8848   -1.7595    1.3701 C   0  0  0  0  0  0  0  0  0  0  0  0
    1.5801   -1.3394    1.2387 C   0  0  0  0  0  0  0  0  0  0  0  0
    0.8787   -1.1980    0.0640 C   0  0  0  0  0  0  0  0  0  0  0  0
   -0.4628   -0.7653   -0.0585 N   0  0  0  0  0  0  0  0  0  0  0  0
   -1.3719   -0.3874    0.9649 C   0  0  0  0  0  0  0  0  0  0  0  0
   -2.6037   -0.0101    0.5994 N   0  0  0  0  0  0  0  0  0  0  0  0
   -3.5378    0.3642    1.4703 C   0  0  0  0  0  0  0  0  0  0  0  0
   -3.1804    0.3489    2.8019 C   0  0  0  0  0  0  0  0  0  0  0  0
   -1.9333   -0.0275    3.2451 C   0  0  0  0  0  0  0  0  0  0  0  0
   -1.0866   -0.3810    2.2713 N   0  0  0  0  0  0  0  0  0  0  0  0
   -4.8925    0.7812    1.0957 C   0  0  0  0  0  0  0  0  0  0  0  0
   -5.8662    1.1724    2.0169 C   0  0  0  0  0  0  0  0  0  0  0  0
   -6.9531    1.4748    1.2968 N   0  0  0  0  0  0  0  0  0  0  0  0
   -6.6996    1.2908   -0.0119 C   0  0  0  0  0  0  0  0  0  0  0  0
   -7.7192    1.5451   -1.0697 C   0  0  0  0  0  0  0  0  0  0  0  0
   -5.4113    0.8561   -0.1520 N   0  0  0  0  0  0  0  0  0  0  0  0
   -4.7818    0.5524   -1.4112 C   0  0  0  0  0  0  0  0  0  0  0  0
   -3.6226    1.4459   -1.7466 C   0  0  0  0  0  0  0  0  0  0  0  0
   -4.3886   -0.9031   -1.5569 C   0  0  0  0  0  0  0  0  0  0  0  0
    1.6259   -1.5294   -1.0453 C   0  0  0  0  0  0  0  0  0  0  0  0
    2.9306   -1.9553   -0.9908 C   0  0  0  0  0  0  0  0  0  0  0  0
    7.5630    3.1788   -0.6354 H   0  0  0  0  0  0  0  0  0  0  0  0
    8.6138    2.1387    0.4634 H   0  0  0  0  0  0  0  0  0  0  0  0
    7.2498    3.0774    1.1327 H   0  0  0  0  0  0  0  0  0  0  0  0
    8.1437    0.2023   -0.8272 H   0  0  0  0  0  0  0  0  0  0  0  0
    7.1228    1.2059   -1.9432 H   0  0  0  0  0  0  0  0  0  0  0  0
    6.3252   -1.1743   -1.9325 H   0  0  0  0  0  0  0  0  0  0  0  0
    5.1427   -0.0954   -1.1837 H   0  0  0  0  0  0  0  0  0  0  0  0
    6.1448   -0.5990    0.9729 H   0  0  0  0  0  0  0  0  0  0  0  0
    3.3774   -1.8490    2.3225 H   0  0  0  0  0  0  0  0  0  0  0  0
    1.1026   -1.1100    2.1778 H   0  0  0  0  0  0  0  0  0  0  0  0
   -0.8109   -0.7271   -1.0603 H   0  0  0  0  0  0  0  0  0  0  0  0
   -3.9153    0.6488    3.5583 H   0  0  0  0  0  0  0  0  0  0  0  0
   -1.6432   -0.0428    4.2892 H   0  0  0  0  0  0  0  0  0  0  0  0
   -5.8264    1.2421    3.0956 H   0  0  0  0  0  0  0  0  0  0  0  0
   -7.2896    1.7870   -2.0480 H   0  0  0  0  0  0  0  0  0  0  0  0
   -8.3446    2.4140   -0.7509 H   0  0  0  0  0  0  0  0  0  0  0  0
   -8.3658    0.6486   -1.0763 H   0  0  0  0  0  0  0  0  0  0  0  0
   -5.5404    0.7398   -2.2329 H   0  0  0  0  0  0  0  0  0  0  0  0
   -3.8169    2.1129   -2.6357 H   0  0  0  0  0  0  0  0  0  0  0  0
   -3.3787    2.1822   -0.9320 H   0  0  0  0  0  0  0  0  0  0  0  0
   -2.7170    0.8751   -2.0384 H   0  0  0  0  0  0  0  0  0  0  0  0
   -4.6495   -1.4604   -0.6111 H   0  0  0  0  0  0  0  0  0  0  0  0
   -4.9910   -1.4289   -2.3590 H   0  0  0  0  0  0  0  0  0  0  0  0
   -3.3413   -1.0535   -1.8742 H   0  0  0  0  0  0  0  0  0  0  0  0
    1.1839   -1.4605   -2.0495 H   0  0  0  0  0  0  0  0  0  0  0  0
    3.4607   -2.1997   -1.8990 H   0  0  0  0  0  0  0  0  0  0  0  0
  1  2  1  0
  2  3  1  0
  3  4  1  0
  4  5  1  0
  5  6  1  0
  6  7  2  0
  6  8  2  0
  6  9  1  0
  9 10  2  0
 10 11  1  0
 11 12  2  0
 12 13  1  0
 13 14  1  0
 14 15  2  0
 15 16  1  0
 16 17  2  0
 17 18  1  0
 18 19  2  0
 16 20  1  0
 20 21  2  0
 21 22  1  0
 22 23  2  0
 23 24  1  0
 23 25  1  0
 25 26  1  0
 26 27  1  0
 26 28  1  0
 12 29  1  0
 29 30  2  0
 30  9  1  0
 19 14  1  0
 25 20  1  0
  1 31  1  0
  1 32  1  0
  1 33  1  0
  3 34  1  0
  3 35  1  0
  4 36  1  0
  4 37  1  0
  5 38  1  0
 10 39  1  0
 11 40  1  0
 13 41  1  0
 17 42  1  0
 18 43  1  0
 21 44  1  0
 24 45  1  0
 24 46  1  0
 24 47  1  0
 26 48  1  0
 27 49  1  0
 27 50  1  0
 27 51  1  0
 28 52  1  0
 28 53  1  0
 28 54  1  0
 29 55  1  0
 30 56  1  0
M  END
$$$$
