
     RDKit          3D

 63 69  0  0  0  0  0  0  0  0999 V2000
   -0.7969   -5.4728   -0.1264 C   0  0  0  0  0  0  0  0  0  0  0  0
   -0.2648   -4.1021   -0.4839 C   0  0  0  0  0  0  0  0  0  0  0  0
   -0.7478   -3.5422   -1.7623 C   0  0  0  0  0  0  0  0  0  0  0  0
   -0.3572   -3.2321    0.7424 C   0  0  0  0  0  0  0  0  0  0  0  0
    0.0907   -1.8703    0.5304 N   0  0  0  0  0  0  0  0  0  0  0  0
    1.4146   -1.5301    0.5488 C   0  0  0  0  0  0  0  0  0  0  0  0
    2.5438   -2.3029    0.7236 C   0  0  0  0  0  0  0  0  0  0  0  0
    3.7898   -1.7259    0.7002 C   0  0  0  0  0  0  0  0  0  0  0  0
    3.9933   -0.3518    0.5025 C   0  0  0  0  0  0  0  0  0  0  0  0
    5.3083    0.1805    0.5001 N   0  0  0  0  0  0  0  0  0  0  0  0
    5.6936    1.4733    0.1093 C   0  0  0  0  0  0  0  0  0  0  0  0
    4.9080    2.4375   -0.3691 N   0  0  0  0  0  0  0  0  0  0  0  0
    5.3361    3.6583   -0.7291 C   0  0  0  0  0  0  0  0  0  0  0  0
    6.6717    3.9554   -0.6039 C   0  0  0  0  0  0  0  0  0  0  0  0
    7.5177    2.9925   -0.1154 C   0  0  0  0  0  0  0  0  0  0  0  0
    7.0139    1.7998    0.2215 N   0  0  0  0  0  0  0  0  0  0  0  0
    2.8368    0.3778    0.3331 C   0  0  0  0  0  0  0  0  0  0  0  0
    1.5799   -0.1910    0.3548 C   0  0  0  0  0  0  0  0  0  0  0  0
    0.3013    0.3006    0.2145 C   0  0  0  0  0  0  0  0  0  0  0  0
   -0.1627    1.6078    0.0150 C   0  0  0  0  0  0  0  0  0  0  0  0
   -1.4938    1.9246   -0.0775 C   0  0  0  0  0  0  0  0  0  0  0  0
   -2.3752    0.8563    0.0422 C   0  0  0  0  0  0  0  0  0  0  0  0
   -1.9364   -0.4559    0.2405 C   0  0  0  0  0  0  0  0  0  0  0  0
   -0.5814   -0.7319    0.3247 C   0  0  0  0  0  0  0  0  0  0  0  0
   -2.8593   -1.5566    0.4510 C   0  0  0  0  0  0  0  0  0  0  0  0
   -4.2321   -1.3137   -0.0212 C   0  0  0  0  0  0  0  0  0  0  0  0
   -4.6712    0.0663   -0.0420 C   0  0  0  0  0  0  0  0  0  0  0  0
   -5.9563    0.5743   -0.0846 N   0  0  0  0  0  0  0  0  0  0  0  0
   -5.8942    1.8622   -0.1621 N   0  0  0  0  0  0  0  0  0  0  0  0
   -6.9924    2.8371   -0.2332 C   0  0  0  0  0  0  0  0  0  0  0  0
   -4.5845    2.2645   -0.1730 C   0  0  0  0  0  0  0  0  0  0  0  0
   -3.8189    1.1357   -0.0962 C   0  0  0  0  0  0  0  0  0  0  0  0
   -1.6143    3.3393   -0.3207 C   0  0  0  0  0  0  0  0  0  0  0  0
   -2.6008    4.0855   -0.4800 O   0  0  0  0  0  0  0  0  0  0  0  0
   -0.2616    3.8679   -0.3677 N   0  0  0  0  0  0  0  0  0  0  0  0
    0.6575    2.8282   -0.1226 C   0  0  0  0  0  0  0  0  0  0  0  0
   -0.3911   -6.2635   -0.7928 H   0  0  0  0  0  0  0  0  0  0  0  0
   -1.9184   -5.4809   -0.1182 H   0  0  0  0  0  0  0  0  0  0  0  0
   -0.4571   -5.6977    0.9034 H   0  0  0  0  0  0  0  0  0  0  0  0
    0.8586   -4.3268   -0.6859 H   0  0  0  0  0  0  0  0  0  0  0  0
   -0.8477   -2.4205   -1.7455 H   0  0  0  0  0  0  0  0  0  0  0  0
   -1.7792   -3.9132   -1.9494 H   0  0  0  0  0  0  0  0  0  0  0  0
   -0.1546   -3.8664   -2.6430 H   0  0  0  0  0  0  0  0  0  0  0  0
   -1.2185   -3.3715    1.3810 H   0  0  0  0  0  0  0  0  0  0  0  0
    0.4715   -3.6974    1.4205 H   0  0  0  0  0  0  0  0  0  0  0  0
    2.4671   -3.3780    0.8820 H   0  0  0  0  0  0  0  0  0  0  0  0
    4.7006   -2.3321    0.8376 H   0  0  0  0  0  0  0  0  0  0  0  0
    6.0704   -0.4964    0.8409 H   0  0  0  0  0  0  0  0  0  0  0  0
    4.6515    4.4035   -1.1128 H   0  0  0  0  0  0  0  0  0  0  0  0
    7.0933    4.9165   -0.8722 H   0  0  0  0  0  0  0  0  0  0  0  0
    8.5969    3.2101   -0.0051 H   0  0  0  0  0  0  0  0  0  0  0  0
    2.9565    1.4556    0.1834 H   0  0  0  0  0  0  0  0  0  0  0  0
   -2.5633   -2.4953   -0.0789 H   0  0  0  0  0  0  0  0  0  0  0  0
   -2.9735   -1.7916    1.5693 H   0  0  0  0  0  0  0  0  0  0  0  0
   -4.9887   -1.9265    0.5780 H   0  0  0  0  0  0  0  0  0  0  0  0
   -4.3411   -1.6917   -1.0957 H   0  0  0  0  0  0  0  0  0  0  0  0
   -7.0430    3.4261    0.7039 H   0  0  0  0  0  0  0  0  0  0  0  0
   -6.9097    3.4720   -1.1404 H   0  0  0  0  0  0  0  0  0  0  0  0
   -7.9512    2.2905   -0.3105 H   0  0  0  0  0  0  0  0  0  0  0  0
   -4.3082    3.2638   -0.2148 H   0  0  0  0  0  0  0  0  0  0  0  0
   -0.0387    4.8785   -0.5584 H   0  0  0  0  0  0  0  0  0  0  0  0
    1.3473    2.7719   -1.0009 H   0  0  0  0  0  0  0  0  0  0  0  0
    1.2151    3.0151    0.8181 H   0  0  0  0  0  0  0  0  0  0  0  0
  1  2  1  0
  2  3  1  0
  2  4  1  0
  4  5  1  0
  5  6  1  0
  6  7  2  0
  7  8  1  0
  8  9  2  0
  9 10  1  0
 10 11  1  0
 11 12  2  0
 12 13  1  0
 13 14  2  0
 14 15  1  0
 15 16  2  0
  9 17  1  0
 17 18  2  0
 18 19  1  0
 19 20  2  0
 20 21  1  0
 21 22  2  0
 22 23  1  0
 23 24  2  0
 23 25  1  0
 25 26  1  0
 26 27  1  0
 27 28  2  0
 28 29  1  0
 29 30  1  0
 29 31  1  0
 31 32  2  0
 21 33  1  0
 33 34  2  0
 33 35  1  0
 35 36  1  0
 24  5  1  0
 32 27  1  0
 18  6  1  0
 24 19  1  0
 16 11  1  0
 36 20  1  0
 32 22  1  0
  1 37  1  0
  1 38  1  0
  1 39  1  0
  2 40  1  0
  3 41  1  0
  3 42  1  0
  3 43  1  0
  4 44  1  0
  4 45  1  0
  7 46  1  0
  8 47  1  0
 10 48  1  0
 13 49  1  0
 14 50  1  0
 15 51  1  0
 17 52  1  0
 25 53  1  0
 25 54  1  0
 26 55  1  0
 26 56  1  0
 30 57  1  0
 30 58  1  0
 30 59  1  0
 31 60  1  0
 35 61  1  0
 36 62  1  0
 36 63  1  0
M  END
$$$$
