@<TRIPOS>MOLECULE
*****
 63 69 0 0 0
SMALL
GASTEIGER

@<TRIPOS>ATOM
      1 C          -0.7969   -5.4728   -0.1264 C.3     1  UNL1       -0.0610
      2 C          -0.2648   -4.1021   -0.4839 C.3     1  UNL1       -0.0287
      3 C          -0.7478   -3.5422   -1.7623 C.3     1  UNL1       -0.0610
      4 C          -0.3572   -3.2321    0.7424 C.3     1  UNL1        0.0262
      5 N           0.0907   -1.8703    0.5304 N.ar    1  UNL1       -0.3393
      6 C           1.4146   -1.5301    0.5488 C.ar    1  UNL1        0.0502
      7 C           2.5438   -2.3029    0.7236 C.ar    1  UNL1       -0.0358
      8 C           3.7898   -1.7259    0.7002 C.ar    1  UNL1       -0.0385
      9 C           3.9933   -0.3518    0.5025 C.ar    1  UNL1        0.0343
     10 N           5.3083    0.1805    0.5001 N.pl3   1  UNL1       -0.2836
     11 C           5.6936    1.4733    0.1093 C.ar    1  UNL1        0.2194
     12 N           4.9080    2.4375   -0.3691 N.ar    1  UNL1       -0.2227
     13 C           5.3361    3.6583   -0.7291 C.ar    1  UNL1        0.0326
     14 C           6.6717    3.9554   -0.6039 C.ar    1  UNL1       -0.0253
     15 C           7.5177    2.9925   -0.1154 C.ar    1  UNL1        0.0326
     16 N           7.0139    1.7998    0.2215 N.ar    1  UNL1       -0.2227
     17 C           2.8368    0.3778    0.3331 C.ar    1  UNL1       -0.0307
     18 C           1.5799   -0.1910    0.3548 C.ar    1  UNL1        0.0097
     19 C           0.3013    0.3006    0.2145 C.ar    1  UNL1        0.0133
     20 C          -0.1627    1.6078    0.0150 C.ar    1  UNL1       -0.0079
     21 C          -1.4938    1.9246   -0.0775 C.ar    1  UNL1        0.0501
     22 C          -2.3752    0.8563    0.0422 C.ar    1  UNL1        0.0029
     23 C          -1.9364   -0.4559    0.2405 C.ar    1  UNL1       -0.0144
     24 C          -0.5814   -0.7319    0.3247 C.ar    1  UNL1        0.0543
     25 C          -2.8593   -1.5566    0.4510 C.3     1  UNL1       -0.0196
     26 C          -4.2321   -1.3137   -0.0212 C.3     1  UNL1       -0.0040
     27 C          -4.6712    0.0663   -0.0420 C.ar    1  UNL1        0.0710
     28 N          -5.9563    0.5743   -0.0846 N.ar    1  UNL1       -0.1758
     29 N          -5.8942    1.8622   -0.1621 N.ar    1  UNL1       -0.2736
     30 C          -6.9924    2.8371   -0.2332 C.3     1  UNL1        0.0302
     31 C          -4.5845    2.2645   -0.1730 C.ar    1  UNL1        0.0332
     32 C          -3.8189    1.1357   -0.0962 C.ar    1  UNL1        0.0238
     33 C          -1.6143    3.3393   -0.3207 C.2     1  UNL1        0.2453
     34 O          -2.6008    4.0855   -0.4800 O.2     1  UNL1       -0.2702
     35 N          -0.2616    3.8679   -0.3677 N.am    1  UNL1       -0.3072
     36 C           0.6575    2.8282   -0.1226 C.3     1  UNL1        0.0385
     37 H          -0.3911   -6.2635   -0.7928 H       1  UNL1        0.0233
     38 H          -1.9184   -5.4809   -0.1182 H       1  UNL1        0.0233
     39 H          -0.4571   -5.6977    0.9034 H       1  UNL1        0.0233
     40 H           0.8586   -4.3268   -0.6859 H       1  UNL1        0.0313
     41 H          -0.8477   -2.4205   -1.7455 H       1  UNL1        0.0233
     42 H          -1.7792   -3.9132   -1.9494 H       1  UNL1        0.0233
     43 H          -0.1546   -3.8664   -2.6430 H       1  UNL1        0.0233
     44 H          -1.2185   -3.3715    1.3810 H       1  UNL1        0.0494
     45 H           0.4715   -3.6974    1.4205 H       1  UNL1        0.0494
     46 H           2.4671   -3.3780    0.8820 H       1  UNL1        0.0639
     47 H           4.7006   -2.3321    0.8376 H       1  UNL1        0.0637
     48 H           6.0704   -0.4964    0.8409 H       1  UNL1        0.1550
     49 H           4.6515    4.4035   -1.1128 H       1  UNL1        0.0831
     50 H           7.0933    4.9165   -0.8722 H       1  UNL1        0.0648
     51 H           8.5969    3.2101   -0.0051 H       1  UNL1        0.0831
     52 H           2.9565    1.4556    0.1834 H       1  UNL1        0.0643
     53 H          -2.5633   -2.4953   -0.0789 H       1  UNL1        0.0318
     54 H          -2.9735   -1.7916    1.5693 H       1  UNL1        0.0318
     55 H          -4.9887   -1.9265    0.5780 H       1  UNL1        0.0332
     56 H          -4.3411   -1.6917   -1.0957 H       1  UNL1        0.0332
     57 H          -7.0430    3.4261    0.7039 H       1  UNL1        0.0473
     58 H          -6.9097    3.4720   -1.1404 H       1  UNL1        0.0473
     59 H          -7.9512    2.2905   -0.3105 H       1  UNL1        0.0473
     60 H          -4.3082    3.2638   -0.2148 H       1  UNL1        0.0832
     61 H          -0.0387    4.8785   -0.5584 H       1  UNL1        0.1493
     62 H           1.3473    2.7719   -1.0009 H       1  UNL1        0.0512
     63 H           1.2151    3.0151    0.8181 H       1  UNL1        0.0512
@<TRIPOS>BOND
     1     1     2    1
     2     2     3    1
     3     2     4    1
     4     4     5    1
     5     5     6   ar
     6     6     7   ar
     7     7     8   ar
     8     8     9   ar
     9     9    10    1
    10    10    11    1
    11    11    12   ar
    12    12    13   ar
    13    13    14   ar
    14    14    15   ar
    15    15    16   ar
    16     9    17   ar
    17    17    18   ar
    18    18    19   ar
    19    19    20   ar
    20    20    21   ar
    21    21    22   ar
    22    22    23   ar
    23    23    24   ar
    24    23    25    1
    25    25    26    1
    26    26    27    1
    27    27    28   ar
    28    28    29   ar
    29    29    30    1
    30    29    31   ar
    31    31    32   ar
    32    21    33    1
    33    33    34    2
    34    33    35   am
    35    35    36    1
    36    24     5   ar
    37    32    27   ar
    38    18     6   ar
    39    24    19   ar
    40    16    11   ar
    41    36    20    1
    42    32    22    1
    43     1    37    1
    44     1    38    1
    45     1    39    1
    46     2    40    1
    47     3    41    1
    48     3    42    1
    49     3    43    1
    50     4    44    1
    51     4    45    1
    52     7    46    1
    53     8    47    1
    54    10    48    1
    55    13    49    1
    56    14    50    1
    57    15    51    1
    58    17    52    1
    59    25    53    1
    60    25    54    1
    61    26    55    1
    62    26    56    1
    63    30    57    1
    64    30    58    1
    65    30    59    1
    66    31    60    1
    67    35    61    1
    68    36    62    1
    69    36    63    1
