@<TRIPOS>MOLECULE
*****
 63 66 0 0 0
SMALL
GASTEIGER

@<TRIPOS>ATOM
      1 C          -0.3937   -1.0501   -0.5928 C.3     1  UNL1       -0.0318
      2 C           0.3636   -2.3060   -0.4595 C.3     1  UNL1       -0.0487
      3 C           1.7693   -1.8298   -0.8533 C.3     1  UNL1       -0.0411
      4 C           1.7598   -0.3172   -0.6633 C.3     1  UNL1        0.0412
      5 C           2.9776    0.1977   -0.0266 C.2     1  UNL1        0.2170
      6 O           2.8661    0.8078    1.0614 O.2     1  UNL1       -0.2755
      7 N           4.2077   -0.0390   -0.7031 N.am    1  UNL1       -0.3103
      8 C           5.4253    0.4591   -0.0956 C.3     1  UNL1        0.0262
      9 C           5.3714    1.9665    0.0629 C.3     1  UNL1       -0.0442
     10 C           6.6068    0.1358   -0.9691 C.3     1  UNL1       -0.0442
     11 C           5.6317   -0.1781    1.2509 C.3     1  UNL1       -0.0442
     12 C           0.5181   -0.1029    0.1609 C.3     1  UNL1       -0.0179
     13 C           0.8217   -0.5829    1.5516 C.3     1  UNL1       -0.0586
     14 C          -0.0603    1.2608    0.0795 C.3     1  UNL1       -0.0464
     15 C          -1.3434    1.4408   -0.6181 C.3     1  UNL1       -0.0486
     16 C          -2.3321    0.3338   -0.5899 C.3     1  UNL1       -0.0274
     17 C          -1.7439   -0.9548    0.0108 C.3     1  UNL1       -0.0340
     18 C          -2.6740   -2.0644   -0.3505 C.3     1  UNL1       -0.0480
     19 C          -3.9769   -1.8122    0.4257 C.3     1  UNL1       -0.0334
     20 C          -4.5579   -0.5153   -0.0864 C.3     1  UNL1        0.0325
     21 N          -5.7975   -0.1959    0.5598 N.am    1  UNL1       -0.3082
     22 C          -6.4816    0.9606    0.0239 C.2     1  UNL1        0.2369
     23 O          -7.7382    1.1018   -0.0112 O.2     1  UNL1       -0.2708
     24 C          -5.5937    2.0214   -0.5055 C.2     1  UNL1       -0.0032
     25 C          -4.2609    1.8463   -0.4521 C.2     1  UNL1       -0.0712
     26 C          -3.6076    0.6445    0.1120 C.3     1  UNL1        0.0078
     27 C          -3.3976    0.9415    1.5868 C.3     1  UNL1       -0.0541
     28 H          -0.4199   -0.7274   -1.6480 H       1  UNL1        0.0309
     29 H          -0.0153   -3.0460   -1.1879 H       1  UNL1        0.0268
     30 H           0.4489   -2.6787    0.5642 H       1  UNL1        0.0268
     31 H           1.8172   -1.9859   -1.9647 H       1  UNL1        0.0273
     32 H           2.5642   -2.3401   -0.3118 H       1  UNL1        0.0273
     33 H           1.6111    0.2321   -1.6162 H       1  UNL1        0.0400
     34 H           4.2367   -0.5613   -1.6200 H       1  UNL1        0.1492
     35 H           5.0181    2.4459   -0.8610 H       1  UNL1        0.0250
     36 H           4.7224    2.2679    0.9156 H       1  UNL1        0.0250
     37 H           6.4103    2.2675    0.3384 H       1  UNL1        0.0250
     38 H           6.8615   -0.9307   -0.9821 H       1  UNL1        0.0250
     39 H           7.4930    0.6770   -0.5262 H       1  UNL1        0.0250
     40 H           6.4632    0.5808   -1.9767 H       1  UNL1        0.0250
     41 H           4.9645   -1.0652    1.3395 H       1  UNL1        0.0250
     42 H           5.3404    0.5348    2.0632 H       1  UNL1        0.0250
     43 H           6.7047   -0.4654    1.3989 H       1  UNL1        0.0250
     44 H           1.7616   -1.1810    1.6003 H       1  UNL1        0.0235
     45 H           0.0442   -1.2414    1.9705 H       1  UNL1        0.0235
     46 H           0.8677    0.3041    2.2173 H       1  UNL1        0.0235
     47 H           0.7169    1.9157   -0.3996 H       1  UNL1        0.0271
     48 H          -0.1279    1.6500    1.1226 H       1  UNL1        0.0271
     49 H          -1.1354    1.7793   -1.6761 H       1  UNL1        0.0268
     50 H          -1.8363    2.3487   -0.1701 H       1  UNL1        0.0268
     51 H          -2.5952    0.0622   -1.6340 H       1  UNL1        0.0312
     52 H          -1.7814   -0.8207    1.0937 H       1  UNL1        0.0307
     53 H          -2.2372   -3.0279   -0.0120 H       1  UNL1        0.0269
     54 H          -2.8678   -2.0401   -1.4261 H       1  UNL1        0.0269
     55 H          -3.7741   -1.8229    1.4975 H       1  UNL1        0.0283
     56 H          -4.6654   -2.6198    0.0883 H       1  UNL1        0.0283
     57 H          -4.7320   -0.6409   -1.1624 H       1  UNL1        0.0507
     58 H          -6.3106   -0.6615    1.3691 H       1  UNL1        0.1493
     59 H          -6.0512    2.9113   -0.9221 H       1  UNL1        0.0666
     60 H          -3.7206    2.6846   -0.8688 H       1  UNL1        0.0580
     61 H          -3.8805    0.1052    2.1532 H       1  UNL1        0.0239
     62 H          -3.9227    1.8581    1.9260 H       1  UNL1        0.0239
     63 H          -2.3333    1.0617    1.8629 H       1  UNL1        0.0239
@<TRIPOS>BOND
     1     1     2    1
     2     2     3    1
     3     3     4    1
     4     4     5    1
     5     5     6    2
     6     5     7   am
     7     7     8    1
     8     8     9    1
     9     8    10    1
    10     8    11    1
    11     4    12    1
    12    12    13    1
    13    12    14    1
    14    14    15    1
    15    15    16    1
    16    16    17    1
    17    17    18    1
    18    18    19    1
    19    19    20    1
    20    20    21    1
    21    21    22   am
    22    22    23    2
    23    22    24    1
    24    24    25    2
    25    25    26    1
    26    26    27    1
    27    12     1    1
    28    26    16    1
    29    17     1    1
    30    26    20    1
    31     1    28    1
    32     2    29    1
    33     2    30    1
    34     3    31    1
    35     3    32    1
    36     4    33    1
    37     7    34    1
    38     9    35    1
    39     9    36    1
    40     9    37    1
    41    10    38    1
    42    10    39    1
    43    10    40    1
    44    11    41    1
    45    11    42    1
    46    11    43    1
    47    13    44    1
    48    13    45    1
    49    13    46    1
    50    14    47    1
    51    14    48    1
    52    15    49    1
    53    15    50    1
    54    16    51    1
    55    17    52    1
    56    18    53    1
    57    18    54    1
    58    19    55    1
    59    19    56    1
    60    20    57    1
    61    21    58    1
    62    24    59    1
    63    25    60    1
    64    27    61    1
    65    27    62    1
    66    27    63    1
