
     RDKit          3D

 43 46  0  0  0  0  0  0  0  0999 V2000
    5.2740    1.4921    0.8512 C   0  0  0  0  0  0  0  0  0  0  0  0
    3.9314    2.1067    0.4808 C   0  0  0  0  0  0  0  0  0  0  0  0
    3.1227    0.9797   -0.0752 C   0  0  0  0  0  0  0  0  0  0  0  0
    3.4571    0.5993   -1.3629 C   0  0  0  0  0  0  0  0  0  0  0  0
    4.4503    1.1685   -2.1533 O   0  0  0  0  0  0  0  0  0  0  0  0
    2.7699   -0.4342   -1.9585 C   0  0  0  0  0  0  0  0  0  0  0  0
    1.7663   -1.0627   -1.2560 C   0  0  0  0  0  0  0  0  0  0  0  0
    1.0754   -2.1045   -1.8521 O   0  0  0  0  0  0  0  0  0  0  0  0
    1.3923   -0.7249    0.0250 C   0  0  0  0  0  0  0  0  0  0  0  0
    2.1051    0.3275    0.6088 C   0  0  0  0  0  0  0  0  0  0  0  0
    0.3506   -1.3245    0.8352 C   0  0  0  0  0  0  0  0  0  0  0  0
    0.8337   -2.1267    1.8046 N   0  0  0  0  0  0  0  0  0  0  0  0
   -0.1650   -2.6585    2.5132 N   0  0  0  0  0  0  0  0  0  0  0  0
   -1.3189   -2.1944    1.9976 C   0  0  0  0  0  0  0  0  0  0  0  0
   -2.7056   -2.4688    2.4092 C   0  0  0  0  0  0  0  0  0  0  0  0
   -3.0309   -3.3017    3.4593 O   0  0  0  0  0  0  0  0  0  0  0  0
   -3.7033   -1.9596    1.8295 O   0  0  0  0  0  0  0  0  0  0  0  0
   -0.9947   -1.3600    0.9486 C   0  0  0  0  0  0  0  0  0  0  0  0
   -1.8690   -0.5983    0.0709 C   0  0  0  0  0  0  0  0  0  0  0  0
   -2.1124   -0.6461   -1.2808 C   0  0  0  0  0  0  0  0  0  0  0  0
   -3.0131    0.2005   -1.8909 C   0  0  0  0  0  0  0  0  0  0  0  0
   -3.6849    1.1174   -1.1138 C   0  0  0  0  0  0  0  0  0  0  0  0
   -4.6215    2.0577   -1.4849 O   0  0  0  0  0  0  0  0  0  0  0  0
   -5.2559    2.4899   -0.3077 C   0  0  0  0  0  0  0  0  0  0  0  0
   -4.3212    2.2396    0.7186 O   0  0  0  0  0  0  0  0  0  0  0  0
   -3.4926    1.2254    0.2616 C   0  0  0  0  0  0  0  0  0  0  0  0
   -2.5733    0.3496    0.8275 C   0  0  0  0  0  0  0  0  0  0  0  0
    5.9892    2.2473    1.2259 H   0  0  0  0  0  0  0  0  0  0  0  0
    5.0804    0.6859    1.5815 H   0  0  0  0  0  0  0  0  0  0  0  0
    5.6584    1.0143   -0.0722 H   0  0  0  0  0  0  0  0  0  0  0  0
    4.1210    2.8569   -0.3156 H   0  0  0  0  0  0  0  0  0  0  0  0
    3.4233    2.4825    1.3691 H   0  0  0  0  0  0  0  0  0  0  0  0
    4.4368    2.1352   -2.3916 H   0  0  0  0  0  0  0  0  0  0  0  0
    2.9719   -0.7984   -2.9788 H   0  0  0  0  0  0  0  0  0  0  0  0
    1.3588   -3.0660   -1.6970 H   0  0  0  0  0  0  0  0  0  0  0  0
    1.9098    0.6964    1.6188 H   0  0  0  0  0  0  0  0  0  0  0  0
   -0.1541   -3.3139    3.3252 H   0  0  0  0  0  0  0  0  0  0  0  0
   -3.6849   -3.0061    4.1788 H   0  0  0  0  0  0  0  0  0  0  0  0
   -1.5243   -1.4084   -1.7564 H   0  0  0  0  0  0  0  0  0  0  0  0
   -3.1284    0.0791   -2.9578 H   0  0  0  0  0  0  0  0  0  0  0  0
   -6.1909    1.9163   -0.1873 H   0  0  0  0  0  0  0  0  0  0  0  0
   -5.4452    3.5845   -0.3126 H   0  0  0  0  0  0  0  0  0  0  0  0
   -2.4884    0.5053    1.9062 H   0  0  0  0  0  0  0  0  0  0  0  0
  1  2  1  0
  2  3  1  0
  3  4  2  0
  4  5  1  0
  4  6  1  0
  6  7  2  0
  7  8  1  0
  7  9  1  0
  9 10  2  0
  9 11  1  0
 11 12  2  0
 12 13  1  0
 13 14  1  0
 14 15  1  0
 15 16  1  0
 15 17  2  0
 14 18  2  0
 18 19  1  0
 19 20  2  0
 20 21  1  0
 21 22  2  0
 22 23  1  0
 23 24  1  0
 24 25  1  0
 25 26  1  0
 26 27  2  0
 10  3  1  0
 18 11  1  0
 27 19  1  0
 26 22  1  0
  1 28  1  0
  1 29  1  0
  1 30  1  0
  2 31  1  0
  2 32  1  0
  5 33  1  0
  6 34  1  0
  8 35  1  0
 10 36  1  0
 13 37  1  0
 16 38  1  0
 20 39  1  0
 21 40  1  0
 24 41  1  0
 24 42  1  0
 27 43  1  0
M  END
$$$$
