@<TRIPOS>MOLECULE
*****
 43 46 0 0 0
SMALL
GASTEIGER

@<TRIPOS>ATOM
      1 C           5.2740    1.4921    0.8512 C.3     1  UNL1       -0.0611
      2 C           3.9314    2.1067    0.4808 C.3     1  UNL1       -0.0271
      3 C           3.1227    0.9797   -0.0752 C.ar    1  UNL1       -0.0054
      4 C           3.4571    0.5993   -1.3629 C.ar    1  UNL1        0.1235
      5 O           4.4503    1.1685   -2.1533 O.3     1  UNL1       -0.5064
      6 C           2.7699   -0.4342   -1.9585 C.ar    1  UNL1        0.0222
      7 C           1.7663   -1.0627   -1.2560 C.ar    1  UNL1        0.1296
      8 O           1.0754   -2.1045   -1.8521 O.3     1  UNL1       -0.5060
      9 C           1.3923   -0.7249    0.0250 C.ar    1  UNL1        0.0446
     10 C           2.1051    0.3275    0.6088 C.ar    1  UNL1       -0.0424
     11 C           0.3506   -1.3245    0.8352 C.ar    1  UNL1        0.1045
     12 N           0.8337   -2.1267    1.8046 N.ar    1  UNL1       -0.1724
     13 N          -0.1650   -2.6585    2.5132 N.ar    1  UNL1       -0.2698
     14 C          -1.3189   -2.1944    1.9976 C.ar    1  UNL1        0.1508
     15 C          -2.7056   -2.4688    2.4092 C.2     1  UNL1        0.3554
     16 O          -3.0309   -3.3017    3.4593 O.3     1  UNL1       -0.4761
     17 O          -3.7033   -1.9596    1.8295 O.2     1  UNL1       -0.2434
     18 C          -0.9947   -1.3600    0.9486 C.ar    1  UNL1        0.0417
     19 C          -1.8690   -0.5983    0.0709 C.ar    1  UNL1       -0.0098
     20 C          -2.1124   -0.6461   -1.2808 C.ar    1  UNL1       -0.0502
     21 C          -3.0131    0.2005   -1.8909 C.ar    1  UNL1       -0.0156
     22 C          -3.6849    1.1174   -1.1138 C.ar    1  UNL1        0.1663
     23 O          -4.6215    2.0577   -1.4849 O.3     1  UNL1       -0.4526
     24 C          -5.2559    2.4899   -0.3077 C.3     1  UNL1        0.2332
     25 O          -4.3212    2.2396    0.7186 O.3     1  UNL1       -0.4526
     26 C          -3.4926    1.2254    0.2616 C.ar    1  UNL1        0.1668
     27 C          -2.5733    0.3496    0.8275 C.ar    1  UNL1       -0.0083
     28 H           5.9892    2.2473    1.2259 H       1  UNL1        0.0233
     29 H           5.0804    0.6859    1.5815 H       1  UNL1        0.0233
     30 H           5.6584    1.0143   -0.0722 H       1  UNL1        0.0233
     31 H           4.1210    2.8569   -0.3156 H       1  UNL1        0.0312
     32 H           3.4233    2.4825    1.3691 H       1  UNL1        0.0312
     33 H           4.4368    2.1352   -2.3916 H       1  UNL1        0.2921
     34 H           2.9719   -0.7984   -2.9788 H       1  UNL1        0.0691
     35 H           1.3588   -3.0660   -1.6970 H       1  UNL1        0.2922
     36 H           1.9098    0.6964    1.6188 H       1  UNL1        0.0629
     37 H          -0.1541   -3.3139    3.3252 H       1  UNL1        0.1892
     38 H          -3.6849   -3.0061    4.1788 H       1  UNL1        0.2955
     39 H          -1.5243   -1.4084   -1.7564 H       1  UNL1        0.0625
     40 H          -3.1284    0.0791   -2.9578 H       1  UNL1        0.0655
     41 H          -6.1909    1.9163   -0.1873 H       1  UNL1        0.1166
     42 H          -5.4452    3.5845   -0.3126 H       1  UNL1        0.1166
     43 H          -2.4884    0.5053    1.9062 H       1  UNL1        0.0661
@<TRIPOS>BOND
     1     1     2    1
     2     2     3    1
     3     3     4   ar
     4     4     5    1
     5     4     6   ar
     6     6     7   ar
     7     7     8    1
     8     7     9   ar
     9     9    10   ar
    10     9    11    1
    11    11    12   ar
    12    12    13   ar
    13    13    14   ar
    14    14    15    1
    15    15    16    1
    16    15    17    2
    17    14    18   ar
    18    18    19    1
    19    19    20   ar
    20    20    21   ar
    21    21    22   ar
    22    22    23    1
    23    23    24    1
    24    24    25    1
    25    25    26    1
    26    26    27   ar
    27    10     3   ar
    28    18    11   ar
    29    27    19   ar
    30    26    22   ar
    31     1    28    1
    32     1    29    1
    33     1    30    1
    34     2    31    1
    35     2    32    1
    36     5    33    1
    37     6    34    1
    38     8    35    1
    39    10    36    1
    40    13    37    1
    41    16    38    1
    42    20    39    1
    43    21    40    1
    44    24    41    1
    45    24    42    1
    46    27    43    1
