
     RDKit          3D

 54 59  0  0  0  0  0  0  0  0999 V2000
   -6.3876    2.0083   -1.9695 C   0  0  0  0  0  0  0  0  0  0  0  0
   -5.6466    0.7041   -2.1444 C   0  0  2  0  0  0  0  0  0  0  0  0
   -6.0887   -0.1277   -3.1493 O   0  0  0  0  0  0  0  0  0  0  0  0
   -5.5384    0.0441   -0.7553 C   0  0  0  0  0  0  0  0  0  0  0  0
   -4.3647    0.9567   -0.5281 C   0  0  1  0  0  0  0  0  0  0  0  0
   -3.2387    0.3796    0.2360 C   0  0  0  0  0  0  0  0  0  0  0  0
   -2.0052    0.8604    0.4119 N   0  0  0  0  0  0  0  0  0  0  0  0
   -1.2938    0.0519    1.1890 C   0  0  0  0  0  0  0  0  0  0  0  0
    0.1176    0.1447    1.6159 C   0  0  0  0  0  0  0  0  0  0  0  0
    0.5127    0.2387    2.9279 C   0  0  0  0  0  0  0  0  0  0  0  0
    1.8452    0.3324    3.2814 C   0  0  0  0  0  0  0  0  0  0  0  0
    2.8352    0.3351    2.3166 C   0  0  0  0  0  0  0  0  0  0  0  0
    4.1711    0.4181    2.6443 C   0  0  0  0  0  0  0  0  0  0  0  0
    5.0874    0.4019    1.5896 C   0  0  0  0  0  0  0  0  0  0  0  0
    4.7048    0.3088    0.2758 C   0  0  0  0  0  0  0  0  0  0  0  0
    5.6912    0.2897   -0.7885 C   0  0  0  0  0  0  0  0  0  0  0  0
    7.0478    0.3620   -0.6273 C   0  0  0  0  0  0  0  0  0  0  0  0
    7.9129    0.3330   -1.7284 C   0  0  0  0  0  0  0  0  0  0  0  0
    7.4340    0.2306   -3.0171 C   0  0  0  0  0  0  0  0  0  0  0  0
    6.0641    0.1582   -3.1751 C   0  0  0  0  0  0  0  0  0  0  0  0
    5.2094    0.1866   -2.0932 C   0  0  0  0  0  0  0  0  0  0  0  0
    3.3882    0.2314    0.0258 N   0  0  0  0  0  0  0  0  0  0  0  0
    2.4543    0.2414    0.9856 C   0  0  0  0  0  0  0  0  0  0  0  0
    1.0998    0.1473    0.6446 C   0  0  0  0  0  0  0  0  0  0  0  0
    0.7642    0.0568   -0.6767 F   0  0  0  0  0  0  0  0  0  0  0  0
   -2.1223   -1.0042    1.5282 C   0  0  0  0  0  0  0  0  0  0  0  0
   -1.9148   -2.1264    2.3019 C   0  0  0  0  0  0  0  0  0  0  0  0
   -0.6639   -2.3675    2.9260 N   0  0  0  0  0  0  0  0  0  0  0  0
   -2.9373   -2.9877    2.4396 N   0  0  0  0  0  0  0  0  0  0  0  0
   -4.1284   -2.7810    1.8520 C   0  0  0  0  0  0  0  0  0  0  0  0
   -4.2751   -1.6725    1.1098 N   0  0  0  0  0  0  0  0  0  0  0  0
   -3.3133   -0.7700    0.9230 N   0  0  0  0  0  0  0  0  0  0  0  0
   -4.1392    0.8564   -2.0591 C   0  0  0  0  0  0  0  0  0  0  0  0
   -6.6922    2.2149   -0.9232 H   0  0  0  0  0  0  0  0  0  0  0  0
   -7.3215    2.0597   -2.5714 H   0  0  0  0  0  0  0  0  0  0  0  0
   -5.7031    2.8606   -2.2405 H   0  0  0  0  0  0  0  0  0  0  0  0
   -6.5552   -0.9297   -2.8636 H   0  0  0  0  0  0  0  0  0  0  0  0
   -6.4151    0.1847   -0.1255 H   0  0  0  0  0  0  0  0  0  0  0  0
   -5.2212   -1.0110   -0.9427 H   0  0  0  0  0  0  0  0  0  0  0  0
   -4.6157    2.0071   -0.3118 H   0  0  0  0  0  0  0  0  0  0  0  0
   -0.2351    0.2483    3.7200 H   0  0  0  0  0  0  0  0  0  0  0  0
    2.1768    0.4064    4.2990 H   0  0  0  0  0  0  0  0  0  0  0  0
    4.4713    0.4920    3.6774 H   0  0  0  0  0  0  0  0  0  0  0  0
    6.1377    0.4675    1.8615 H   0  0  0  0  0  0  0  0  0  0  0  0
    7.4500    0.4430    0.3667 H   0  0  0  0  0  0  0  0  0  0  0  0
    8.9838    0.3900   -1.5901 H   0  0  0  0  0  0  0  0  0  0  0  0
    8.0773    0.2061   -3.8903 H   0  0  0  0  0  0  0  0  0  0  0  0
    5.6891    0.0781   -4.2068 H   0  0  0  0  0  0  0  0  0  0  0  0
    4.1407    0.1274   -2.2366 H   0  0  0  0  0  0  0  0  0  0  0  0
   -0.5670   -2.3139    3.9755 H   0  0  0  0  0  0  0  0  0  0  0  0
    0.2138   -2.6065    2.3883 H   0  0  0  0  0  0  0  0  0  0  0  0
   -4.9540   -3.4959    1.9757 H   0  0  0  0  0  0  0  0  0  0  0  0
   -3.6068   -0.0726   -2.3403 H   0  0  0  0  0  0  0  0  0  0  0  0
   -3.7355    1.8028   -2.4797 H   0  0  0  0  0  0  0  0  0  0  0  0
  1  2  1  0
  2  3  1  6
  2  4  1  0
  4  5  1  0
  5  6  1  0
  6  7  2  0
  7  8  1  0
  8  9  1  0
  9 10  2  0
 10 11  1  0
 11 12  2  0
 12 13  1  0
 13 14  2  0
 14 15  1  0
 15 16  1  0
 16 17  2  0
 17 18  1  0
 18 19  2  0
 19 20  1  0
 20 21  2  0
 15 22  2  0
 22 23  1  0
 23 24  2  0
 24 25  1  0
  8 26  2  0
 26 27  1  0
 27 28  1  0
 27 29  2  0
 29 30  1  0
 30 31  2  0
 31 32  1  0
  5 33  1  0
 33  2  1  0
 32  6  1  0
 24  9  1  0
 32 26  1  0
 23 12  1  0
 21 16  1  0
  1 34  1  0
  1 35  1  0
  1 36  1  0
  3 37  1  0
  4 38  1  0
  4 39  1  0
  5 40  1  1
 10 41  1  0
 11 42  1  0
 13 43  1  0
 14 44  1  0
 17 45  1  0
 18 46  1  0
 19 47  1  0
 20 48  1  0
 21 49  1  0
 28 50  1  0
 28 51  1  0
 30 52  1  0
 33 53  1  0
 33 54  1  0
M  END
$$$$
