@<TRIPOS>MOLECULE
*****
 54 59 0 0 0
SMALL
GASTEIGER

@<TRIPOS>ATOM
      1 C          -6.3876    2.0083   -1.9695 C.3     1  UNL1       -0.0360
      2 C          -5.6466    0.7041   -2.1444 C.3     1  UNL1        0.0646
      3 O          -6.0887   -0.1277   -3.1493 O.3     1  UNL1       -0.3888
      4 C          -5.5384    0.0441   -0.7553 C.3     1  UNL1       -0.0144
      5 C          -4.3647    0.9567   -0.5281 C.3     1  UNL1        0.0242
      6 C          -3.2387    0.3796    0.2360 C.ar    1  UNL1        0.1353
      7 N          -2.0052    0.8604    0.4119 N.ar    1  UNL1       -0.2294
      8 C          -1.2938    0.0519    1.1890 C.ar    1  UNL1        0.1046
      9 C           0.1176    0.1447    1.6159 C.ar    1  UNL1        0.0399
     10 C           0.5127    0.2387    2.9279 C.ar    1  UNL1       -0.0490
     11 C           1.8452    0.3324    3.2814 C.ar    1  UNL1       -0.0518
     12 C           2.8352    0.3351    2.3166 C.ar    1  UNL1        0.0033
     13 C           4.1711    0.4181    2.6443 C.ar    1  UNL1       -0.0505
     14 C           5.0874    0.4019    1.5896 C.ar    1  UNL1       -0.0351
     15 C           4.7048    0.3088    0.2758 C.ar    1  UNL1        0.0718
     16 C           5.6912    0.2897   -0.7885 C.ar    1  UNL1        0.0004
     17 C           7.0478    0.3620   -0.6273 C.ar    1  UNL1       -0.0526
     18 C           7.9129    0.3330   -1.7284 C.ar    1  UNL1       -0.0611
     19 C           7.4340    0.2306   -3.0171 C.ar    1  UNL1       -0.0617
     20 C           6.0641    0.1582   -3.1751 C.ar    1  UNL1       -0.0611
     21 C           5.2094    0.1866   -2.0932 C.ar    1  UNL1       -0.0526
     22 N           3.3882    0.2314    0.0258 N.ar    1  UNL1       -0.2438
     23 C           2.4543    0.2414    0.9856 C.ar    1  UNL1        0.1074
     24 C           1.0998    0.1473    0.6446 C.ar    1  UNL1        0.1584
     25 F           0.7642    0.0568   -0.6767 F       1  UNL1       -0.2026
     26 C          -2.1223   -1.0042    1.5282 C.ar    1  UNL1        0.1327
     27 C          -1.9148   -2.1264    2.3019 C.ar    1  UNL1        0.1458
     28 N          -0.6639   -2.3675    2.9260 N.pl3   1  UNL1       -0.3414
     29 N          -2.9373   -2.9877    2.4396 N.ar    1  UNL1       -0.2172
     30 C          -4.1284   -2.7810    1.8520 C.ar    1  UNL1        0.1388
     31 N          -4.2751   -1.6725    1.1098 N.ar    1  UNL1       -0.1531
     32 N          -3.3133   -0.7700    0.9230 N.ar    1  UNL1       -0.2115
     33 C          -4.1392    0.8564   -2.0591 C.3     1  UNL1       -0.0144
     34 H          -6.6922    2.2149   -0.9232 H       1  UNL1        0.0257
     35 H          -7.3215    2.0597   -2.5714 H       1  UNL1        0.0257
     36 H          -5.7031    2.8606   -2.2405 H       1  UNL1        0.0257
     37 H          -6.5552   -0.9297   -2.8636 H       1  UNL1        0.2101
     38 H          -6.4151    0.1847   -0.1255 H       1  UNL1        0.0300
     39 H          -5.2212   -1.0110   -0.9427 H       1  UNL1        0.0300
     40 H          -4.6157    2.0071   -0.3118 H       1  UNL1        0.0381
     41 H          -0.2351    0.2483    3.7200 H       1  UNL1        0.0625
     42 H           2.1768    0.4064    4.2990 H       1  UNL1        0.0624
     43 H           4.4713    0.4920    3.6774 H       1  UNL1        0.0625
     44 H           6.1377    0.4675    1.8615 H       1  UNL1        0.0639
     45 H           7.4500    0.4430    0.3667 H       1  UNL1        0.0624
     46 H           8.9838    0.3900   -1.5901 H       1  UNL1        0.0618
     47 H           8.0773    0.2061   -3.8903 H       1  UNL1        0.0618
     48 H           5.6891    0.0781   -4.2068 H       1  UNL1        0.0618
     49 H           4.1407    0.1274   -2.2366 H       1  UNL1        0.0624
     50 H          -0.5670   -2.3139    3.9755 H       1  UNL1        0.1438
     51 H           0.2138   -2.6065    2.3883 H       1  UNL1        0.1438
     52 H          -4.9540   -3.4959    1.9757 H       1  UNL1        0.1066
     53 H          -3.6068   -0.0726   -2.3403 H       1  UNL1        0.0300
     54 H          -3.7355    1.8028   -2.4797 H       1  UNL1        0.0300
@<TRIPOS>BOND
     1     1     2    1
     2     2     3    1
     3     2     4    1
     4     4     5    1
     5     5     6    1
     6     6     7   ar
     7     7     8   ar
     8     8     9    1
     9     9    10   ar
    10    10    11   ar
    11    11    12   ar
    12    12    13   ar
    13    13    14   ar
    14    14    15   ar
    15    15    16    1
    16    16    17   ar
    17    17    18   ar
    18    18    19   ar
    19    19    20   ar
    20    20    21   ar
    21    15    22   ar
    22    22    23   ar
    23    23    24   ar
    24    24    25    1
    25     8    26   ar
    26    26    27   ar
    27    27    28    1
    28    27    29   ar
    29    29    30   ar
    30    30    31   ar
    31    31    32   ar
    32     5    33    1
    33    33     2    1
    34    32     6   ar
    35    24     9   ar
    36    32    26   ar
    37    23    12   ar
    38    21    16   ar
    39     1    34    1
    40     1    35    1
    41     1    36    1
    42     3    37    1
    43     4    38    1
    44     4    39    1
    45     5    40    1
    46    10    41    1
    47    11    42    1
    48    13    43    1
    49    14    44    1
    50    17    45    1
    51    18    46    1
    52    19    47    1
    53    20    48    1
    54    21    49    1
    55    28    50    1
    56    28    51    1
    57    30    52    1
    58    33    53    1
    59    33    54    1
