@<TRIPOS>MOLECULE
*****
 39 42 0 0 0
SMALL
GASTEIGER

@<TRIPOS>ATOM
      1 N          -5.2568    1.6370   -0.1095 N.1     1  UNL1       -0.1908
      2 C          -4.3039    1.2206   -0.7972 C.1     1  UNL1        0.1021
      3 C          -3.1754    0.7091   -1.6307 C.ar    1  UNL1        0.0875
      4 C          -2.0378    0.7921   -1.1729 C.ar    1  UNL1       -0.0323
      5 C          -0.8797    0.3696   -1.9629 C.ar    1  UNL1        0.0039
      6 C           0.4236    0.7964   -1.4529 C.ar    1  UNL1        0.0983
      7 N           1.2216    1.7011   -2.2076 N.ar    1  UNL1       -0.2351
      8 C           2.2127    2.0998   -1.3970 C.ar    1  UNL1        0.0973
      9 N           2.1317    1.5314   -0.1721 N.ar    1  UNL1       -0.3229
     10 C           2.7543    1.9287    1.0905 C.3     1  UNL1        0.0852
     11 C           2.3695    3.4295    1.2863 C.3     1  UNL1        0.2569
     12 F           2.8477    3.9149    2.4340 F       1  UNL1       -0.2073
     13 F           0.9870    3.4069    1.1036 F       1  UNL1       -0.2073
     14 C           1.0087    0.7142   -0.2545 C.ar    1  UNL1        0.0968
     15 C           0.5826   -0.2138    0.7545 C.ar    1  UNL1        0.1103
     16 C           0.1721    0.0496    2.0516 C.ar    1  UNL1       -0.0290
     17 C          -0.0549   -0.9572    2.9559 C.ar    1  UNL1       -0.0153
     18 C           0.1233   -2.2244    2.5588 C.ar    1  UNL1        0.1555
     19 N           0.0184   -3.4281    3.2641 N.ar    1  UNL1       -0.2333
     20 C           0.3081   -4.3687    2.4565 C.ar    1  UNL1        0.0659
     21 C           0.5909   -3.9750    1.2319 C.ar    1  UNL1        0.1618
     22 C           0.7343   -4.7489    0.0376 C.1     1  UNL1        0.1208
     23 N           0.8371   -5.4066   -0.9915 N.1     1  UNL1       -0.1892
     24 N           0.5081   -2.5500    1.2651 N.ar    1  UNL1       -0.2023
     25 N           0.7002   -1.5966    0.5184 N.ar    1  UNL1       -0.1623
     26 C          -1.1135   -0.1117   -3.1985 C.ar    1  UNL1       -0.0497
     27 C          -2.5015   -0.1541   -3.6640 C.ar    1  UNL1       -0.0245
     28 C          -3.5315    0.2456   -2.8884 C.ar    1  UNL1        0.1407
     29 F          -4.8626    0.2063   -3.2112 F       1  UNL1       -0.2041
     30 H          -1.7089    1.2079   -0.1829 H       1  UNL1        0.0638
     31 H           3.0284    2.8187   -1.6691 H       1  UNL1        0.1029
     32 H           2.2500    1.3775    1.9653 H       1  UNL1        0.0548
     33 H           3.8194    1.7479    1.1380 H       1  UNL1        0.0548
     34 H           2.8540    3.9265    0.3426 H       1  UNL1        0.1037
     35 H          -0.0300    1.0958    2.3166 H       1  UNL1        0.0641
     36 H          -0.4146   -0.7764    3.9609 H       1  UNL1        0.0655
     37 H           0.4386   -5.4876    2.7849 H       1  UNL1        0.0859
     38 H          -0.3865   -0.4440   -3.8892 H       1  UNL1        0.0625
     39 H          -2.6649   -0.4841   -4.6648 H       1  UNL1        0.0647
@<TRIPOS>BOND
     1     1     2    3
     2     2     3    1
     3     3     4   ar
     4     4     5   ar
     5     5     6    1
     6     6     7   ar
     7     7     8   ar
     8     8     9   ar
     9     9    10    1
    10    10    11    1
    11    11    12    1
    12    11    13    1
    13     9    14   ar
    14    14    15    1
    15    15    16   ar
    16    16    17   ar
    17    17    18   ar
    18    18    19   ar
    19    19    20   ar
    20    20    21   ar
    21    21    22    1
    22    22    23    3
    23    21    24   ar
    24    24    25   ar
    25     5    26   ar
    26    26    27   ar
    27    27    28   ar
    28    28    29    1
    29    28     3   ar
    30    14     6   ar
    31    25    15   ar
    32    24    18   ar
    33     4    30    1
    34     8    31    1
    35    10    32    1
    36    10    33    1
    37    11    34    1
    38    16    35    1
    39    17    36    1
    40    20    37    1
    41    26    38    1
    42    27    39    1
