@<TRIPOS>MOLECULE
*****
 59 61 0 0 0
SMALL
GASTEIGER

@<TRIPOS>ATOM
      1 N           5.2039   -0.0666   -1.6527 N.pl3   1  UNL1       -0.3424
      2 C           4.9422   -0.0258   -0.2409 C.ar    1  UNL1        0.1320
      3 C           3.6615    0.0675    0.3088 C.ar    1  UNL1        0.0958
      4 C           2.4471    0.1435   -0.4729 C.2     1  UNL1        0.2490
      5 O           2.4534    0.1865   -1.7314 O.2     1  UNL1       -0.2700
      6 N           1.1711    0.1726    0.2027 N.am    1  UNL1       -0.3081
      7 C          -0.0308    0.2571   -0.5740 C.3     1  UNL1        0.0508
      8 C          -1.3184    0.2847    0.2465 C.3     1  UNL1        0.1917
      9 O          -1.3419   -0.9066    0.9852 O.3     1  UNL1       -0.3774
     10 C          -2.4077    0.3367   -0.7700 C.3     1  UNL1        0.0540
     11 N          -3.7639    0.2346   -0.3671 N.am    1  UNL1       -0.2921
     12 C          -4.5780    1.4237   -0.2125 C.3     1  UNL1        0.0383
     13 C          -5.2441    1.7956   -1.5309 C.3     1  UNL1        0.0600
     14 O          -4.3189    2.0487   -2.5233 O.3     1  UNL1       -0.3935
     15 C          -4.3665   -1.0667   -0.1719 C.2     1  UNL1        0.2523
     16 O          -3.6489   -2.0896   -0.3419 O.2     1  UNL1       -0.2698
     17 C          -5.7450   -1.2485    0.2039 C.ar    1  UNL1        0.1070
     18 C          -6.6742   -1.6465   -0.7469 C.ar    1  UNL1        0.1383
     19 F          -6.2131   -1.8463   -2.0222 F       1  UNL1       -0.2046
     20 C          -7.9977   -1.8345   -0.4441 C.ar    1  UNL1       -0.0255
     21 C          -8.4051   -1.6166    0.8566 C.ar    1  UNL1       -0.0563
     22 C          -7.5111   -1.2222    1.8218 C.ar    1  UNL1       -0.0255
     23 C          -6.1678   -1.0401    1.4777 C.ar    1  UNL1        0.1383
     24 F          -5.3531   -0.6514    2.4836 F       1  UNL1       -0.2046
     25 C          -1.3501    1.4948    1.1251 C.3     1  UNL1        0.4212
     26 F          -0.2867    1.5617    2.0223 F       1  UNL1       -0.1675
     27 F          -1.4501    2.6292    0.3828 F       1  UNL1       -0.1675
     28 F          -2.4653    1.3293    1.9683 F       1  UNL1       -0.1675
     29 C           3.8903    0.0760    1.6673 C.ar    1  UNL1        0.0638
     30 N           5.2340   -0.0072    1.8974 N.ar    1  UNL1       -0.1723
     31 N           5.8625   -0.0689    0.7372 N.ar    1  UNL1       -0.2182
     32 C           7.2789   -0.1761    0.4693 C.ar    1  UNL1        0.0676
     33 C           7.8598    0.5579   -0.5387 C.ar    1  UNL1       -0.0335
     34 C           9.2042    0.4603   -0.8198 C.ar    1  UNL1       -0.0244
     35 C          10.0267   -0.3923   -0.0867 C.ar    1  UNL1        0.1235
     36 F          11.3476   -0.5033   -0.3519 F       1  UNL1       -0.2055
     37 C           9.4042   -1.1063    0.9112 C.ar    1  UNL1       -0.0244
     38 C           8.0578   -1.0173    1.2035 C.ar    1  UNL1       -0.0335
     39 H           4.6851    0.5717   -2.2942 H       1  UNL1        0.1437
     40 H           5.8968   -0.7106   -2.0885 H       1  UNL1        0.1437
     41 H           1.2019    0.1216    1.2325 H       1  UNL1        0.1491
     42 H          -0.0410    1.2165   -1.1530 H       1  UNL1        0.0494
     43 H          -0.0523   -0.5510   -1.3227 H       1  UNL1        0.0494
     44 H          -0.4432   -1.1158    1.3022 H       1  UNL1        0.2106
     45 H          -2.1846   -0.4141   -1.6056 H       1  UNL1        0.0496
     46 H          -2.3348    1.3185   -1.3529 H       1  UNL1        0.0496
     47 H          -4.0165    2.2853    0.1542 H       1  UNL1        0.0487
     48 H          -5.4070    1.2666    0.5253 H       1  UNL1        0.0487
     49 H          -5.9592    1.0225   -1.8736 H       1  UNL1        0.0573
     50 H          -5.8172    2.7298   -1.3726 H       1  UNL1        0.0573
     51 H          -4.5592    1.6575   -3.3819 H       1  UNL1        0.2095
     52 H          -8.7060   -2.1438   -1.2116 H       1  UNL1        0.0646
     53 H          -9.4458   -1.7519    1.1327 H       1  UNL1        0.0619
     54 H          -7.8417   -1.0572    2.8223 H       1  UNL1        0.0646
     55 H           3.1220    0.1396    2.4158 H       1  UNL1        0.0856
     56 H           7.2345    1.2237   -1.1122 H       1  UNL1        0.0640
     57 H           9.6375    1.0577   -1.6277 H       1  UNL1        0.0647
     58 H          10.0194   -1.7885    1.5052 H       1  UNL1        0.0647
     59 H           7.6047   -1.6058    2.0121 H       1  UNL1        0.0640
@<TRIPOS>BOND
     1     1     2    1
     2     2     3   ar
     3     3     4    1
     4     4     5    2
     5     4     6   am
     6     6     7    1
     7     7     8    1
     8     8     9    1
     9     8    10    1
    10    10    11    1
    11    11    12    1
    12    12    13    1
    13    13    14    1
    14    11    15   am
    15    15    16    2
    16    15    17    1
    17    17    18   ar
    18    18    19    1
    19    18    20   ar
    20    20    21   ar
    21    21    22   ar
    22    22    23   ar
    23    23    24    1
    24     8    25    1
    25    25    26    1
    26    25    27    1
    27    25    28    1
    28     3    29   ar
    29    29    30   ar
    30    30    31   ar
    31    31    32    1
    32    32    33   ar
    33    33    34   ar
    34    34    35   ar
    35    35    36    1
    36    35    37   ar
    37    37    38   ar
    38    31     2   ar
    39    38    32   ar
    40    23    17   ar
    41     1    39    1
    42     1    40    1
    43     6    41    1
    44     7    42    1
    45     7    43    1
    46     9    44    1
    47    10    45    1
    48    10    46    1
    49    12    47    1
    50    12    48    1
    51    13    49    1
    52    13    50    1
    53    14    51    1
    54    20    52    1
    55    21    53    1
    56    22    54    1
    57    29    55    1
    58    33    56    1
    59    34    57    1
    60    37    58    1
    61    38    59    1
