
     RDKit          3D

 59 61  0  0  0  0  0  0  0  0999 V2000
    5.2039   -0.0666   -1.6527 N   0  0  0  0  0  0  0  0  0  0  0  0
    4.9422   -0.0258   -0.2409 C   0  0  0  0  0  0  0  0  0  0  0  0
    3.6615    0.0675    0.3088 C   0  0  0  0  0  0  0  0  0  0  0  0
    2.4471    0.1435   -0.4729 C   0  0  0  0  0  0  0  0  0  0  0  0
    2.4534    0.1865   -1.7314 O   0  0  0  0  0  0  0  0  0  0  0  0
    1.1711    0.1726    0.2027 N   0  0  0  0  0  0  0  0  0  0  0  0
   -0.0308    0.2571   -0.5740 C   0  0  0  0  0  0  0  0  0  0  0  0
   -1.3184    0.2847    0.2465 C   0  0  0  0  0  0  0  0  0  0  0  0
   -1.3419   -0.9066    0.9852 O   0  0  0  0  0  0  0  0  0  0  0  0
   -2.4077    0.3367   -0.7700 C   0  0  0  0  0  0  0  0  0  0  0  0
   -3.7639    0.2346   -0.3671 N   0  0  0  0  0  0  0  0  0  0  0  0
   -4.5780    1.4237   -0.2125 C   0  0  0  0  0  0  0  0  0  0  0  0
   -5.2441    1.7956   -1.5309 C   0  0  0  0  0  0  0  0  0  0  0  0
   -4.3189    2.0487   -2.5233 O   0  0  0  0  0  0  0  0  0  0  0  0
   -4.3665   -1.0667   -0.1719 C   0  0  0  0  0  0  0  0  0  0  0  0
   -3.6489   -2.0896   -0.3419 O   0  0  0  0  0  0  0  0  0  0  0  0
   -5.7450   -1.2485    0.2039 C   0  0  0  0  0  0  0  0  0  0  0  0
   -6.6742   -1.6465   -0.7469 C   0  0  0  0  0  0  0  0  0  0  0  0
   -6.2131   -1.8463   -2.0222 F   0  0  0  0  0  0  0  0  0  0  0  0
   -7.9977   -1.8345   -0.4441 C   0  0  0  0  0  0  0  0  0  0  0  0
   -8.4051   -1.6166    0.8566 C   0  0  0  0  0  0  0  0  0  0  0  0
   -7.5111   -1.2222    1.8218 C   0  0  0  0  0  0  0  0  0  0  0  0
   -6.1678   -1.0401    1.4777 C   0  0  0  0  0  0  0  0  0  0  0  0
   -5.3531   -0.6514    2.4836 F   0  0  0  0  0  0  0  0  0  0  0  0
   -1.3501    1.4948    1.1251 C   0  0  0  0  0  0  0  0  0  0  0  0
   -0.2867    1.5617    2.0223 F   0  0  0  0  0  0  0  0  0  0  0  0
   -1.4501    2.6292    0.3828 F   0  0  0  0  0  0  0  0  0  0  0  0
   -2.4653    1.3293    1.9683 F   0  0  0  0  0  0  0  0  0  0  0  0
    3.8903    0.0760    1.6673 C   0  0  0  0  0  0  0  0  0  0  0  0
    5.2340   -0.0072    1.8974 N   0  0  0  0  0  0  0  0  0  0  0  0
    5.8625   -0.0689    0.7372 N   0  0  0  0  0  0  0  0  0  0  0  0
    7.2789   -0.1761    0.4693 C   0  0  0  0  0  0  0  0  0  0  0  0
    7.8598    0.5579   -0.5387 C   0  0  0  0  0  0  0  0  0  0  0  0
    9.2042    0.4603   -0.8198 C   0  0  0  0  0  0  0  0  0  0  0  0
   10.0267   -0.3923   -0.0867 C   0  0  0  0  0  0  0  0  0  0  0  0
   11.3476   -0.5033   -0.3519 F   0  0  0  0  0  0  0  0  0  0  0  0
    9.4042   -1.1063    0.9112 C   0  0  0  0  0  0  0  0  0  0  0  0
    8.0578   -1.0173    1.2035 C   0  0  0  0  0  0  0  0  0  0  0  0
    4.6851    0.5717   -2.2942 H   0  0  0  0  0  0  0  0  0  0  0  0
    5.8968   -0.7106   -2.0885 H   0  0  0  0  0  0  0  0  0  0  0  0
    1.2019    0.1216    1.2325 H   0  0  0  0  0  0  0  0  0  0  0  0
   -0.0410    1.2165   -1.1530 H   0  0  0  0  0  0  0  0  0  0  0  0
   -0.0523   -0.5510   -1.3227 H   0  0  0  0  0  0  0  0  0  0  0  0
   -0.4432   -1.1158    1.3022 H   0  0  0  0  0  0  0  0  0  0  0  0
   -2.1846   -0.4141   -1.6056 H   0  0  0  0  0  0  0  0  0  0  0  0
   -2.3348    1.3185   -1.3529 H   0  0  0  0  0  0  0  0  0  0  0  0
   -4.0165    2.2853    0.1542 H   0  0  0  0  0  0  0  0  0  0  0  0
   -5.4070    1.2666    0.5253 H   0  0  0  0  0  0  0  0  0  0  0  0
   -5.9592    1.0225   -1.8736 H   0  0  0  0  0  0  0  0  0  0  0  0
   -5.8172    2.7298   -1.3726 H   0  0  0  0  0  0  0  0  0  0  0  0
   -4.5592    1.6575   -3.3819 H   0  0  0  0  0  0  0  0  0  0  0  0
   -8.7060   -2.1438   -1.2116 H   0  0  0  0  0  0  0  0  0  0  0  0
   -9.4458   -1.7519    1.1327 H   0  0  0  0  0  0  0  0  0  0  0  0
   -7.8417   -1.0572    2.8223 H   0  0  0  0  0  0  0  0  0  0  0  0
    3.1220    0.1396    2.4158 H   0  0  0  0  0  0  0  0  0  0  0  0
    7.2345    1.2237   -1.1122 H   0  0  0  0  0  0  0  0  0  0  0  0
    9.6375    1.0577   -1.6277 H   0  0  0  0  0  0  0  0  0  0  0  0
   10.0194   -1.7885    1.5052 H   0  0  0  0  0  0  0  0  0  0  0  0
    7.6047   -1.6058    2.0121 H   0  0  0  0  0  0  0  0  0  0  0  0
  1  2  1  0
  2  3  2  0
  3  4  1  0
  4  5  2  0
  4  6  1  0
  6  7  1  0
  7  8  1  0
  8  9  1  0
  8 10  1  0
 10 11  1  0
 11 12  1  0
 12 13  1  0
 13 14  1  0
 11 15  1  0
 15 16  2  0
 15 17  1  0
 17 18  2  0
 18 19  1  0
 18 20  1  0
 20 21  2  0
 21 22  1  0
 22 23  2  0
 23 24  1  0
  8 25  1  0
 25 26  1  0
 25 27  1  0
 25 28  1  0
  3 29  1  0
 29 30  2  0
 30 31  1  0
 31 32  1  0
 32 33  2  0
 33 34  1  0
 34 35  2  0
 35 36  1  0
 35 37  1  0
 37 38  2  0
 31  2  1  0
 38 32  1  0
 23 17  1  0
  1 39  1  0
  1 40  1  0
  6 41  1  0
  7 42  1  0
  7 43  1  0
  9 44  1  0
 10 45  1  0
 10 46  1  0
 12 47  1  0
 12 48  1  0
 13 49  1  0
 13 50  1  0
 14 51  1  0
 20 52  1  0
 21 53  1  0
 22 54  1  0
 29 55  1  0
 33 56  1  0
 34 57  1  0
 37 58  1  0
 38 59  1  0
M  END
$$$$
