
     RDKit          3D

 39 43  0  0  0  0  0  0  0  0999 V2000
   -6.0407    0.9671    2.7105 C   0  0  0  0  0  0  0  0  0  0  0  0
   -4.8352    1.0603    1.8987 N   0  0  0  0  0  0  0  0  0  0  0  0
   -4.5165    0.1725    0.9235 C   0  0  0  0  0  0  0  0  0  0  0  0
   -3.3141    0.5639    0.3625 C   0  0  0  0  0  0  0  0  0  0  0  0
   -2.9167    1.7081    1.0231 C   0  0  0  0  0  0  0  0  0  0  0  0
   -3.8776    1.9697    1.9503 N   0  0  0  0  0  0  0  0  0  0  0  0
   -2.5810   -0.0923   -0.7255 C   0  0  0  0  0  0  0  0  0  0  0  0
   -1.4105    0.3390   -1.2297 N   0  0  0  0  0  0  0  0  0  0  0  0
   -0.8680   -0.3627   -2.2151 N   0  0  0  0  0  0  0  0  0  0  0  0
    0.2917   -0.0774   -2.8330 C   0  0  0  0  0  0  0  0  0  0  0  0
    1.5156    1.2149   -2.6587 S   0  0  0  0  0  0  0  0  0  0  0  0
    2.7449    0.6946   -1.4605 C   0  0  0  0  0  0  0  0  0  0  0  0
    3.8069    0.0100   -2.0346 C   0  0  0  0  0  0  0  0  0  0  0  0
    4.8658   -0.4783   -1.2769 C   0  0  0  0  0  0  0  0  0  0  0  0
    4.8372   -0.2636    0.0817 C   0  0  0  0  0  0  0  0  0  0  0  0
    5.8194   -0.7058    0.8576 N   0  0  0  0  0  0  0  0  0  0  0  0
    5.8528   -0.5298    2.1910 C   0  0  0  0  0  0  0  0  0  0  0  0
    4.7801    0.1588    2.7517 C   0  0  0  0  0  0  0  0  0  0  0  0
    3.7401    0.6356    1.9884 C   0  0  0  0  0  0  0  0  0  0  0  0
    3.7753    0.4186    0.6390 C   0  0  0  0  0  0  0  0  0  0  0  0
    2.7178    0.9089   -0.0984 C   0  0  0  0  0  0  0  0  0  0  0  0
    0.5369   -1.0097   -3.7913 N   0  0  0  0  0  0  0  0  0  0  0  0
   -0.4905   -1.8674   -3.7483 N   0  0  0  0  0  0  0  0  0  0  0  0
   -1.3432   -1.4827   -2.7983 C   0  0  0  0  0  0  0  0  0  0  0  0
   -2.5435   -1.9497   -2.3019 C   0  0  0  0  0  0  0  0  0  0  0  0
   -3.1406   -1.2494   -1.2773 C   0  0  0  0  0  0  0  0  0  0  0  0
   -5.8773    0.3219    3.6077 H   0  0  0  0  0  0  0  0  0  0  0  0
   -6.8248    0.4146    2.1201 H   0  0  0  0  0  0  0  0  0  0  0  0
   -6.4303    1.9688    2.9811 H   0  0  0  0  0  0  0  0  0  0  0  0
   -5.0537   -0.7033    0.5897 H   0  0  0  0  0  0  0  0  0  0  0  0
   -2.0340    2.3153    0.8780 H   0  0  0  0  0  0  0  0  0  0  0  0
    3.9126   -0.2047   -3.0952 H   0  0  0  0  0  0  0  0  0  0  0  0
    5.7009   -1.0142   -1.7124 H   0  0  0  0  0  0  0  0  0  0  0  0
    6.6484   -0.8864    2.8308 H   0  0  0  0  0  0  0  0  0  0  0  0
    4.7996    0.3055    3.8308 H   0  0  0  0  0  0  0  0  0  0  0  0
    2.9358    1.1584    2.4529 H   0  0  0  0  0  0  0  0  0  0  0  0
    1.8665    1.4412    0.2487 H   0  0  0  0  0  0  0  0  0  0  0  0
   -2.9684   -2.8440   -2.7340 H   0  0  0  0  0  0  0  0  0  0  0  0
   -4.0816   -1.6622   -0.9271 H   0  0  0  0  0  0  0  0  0  0  0  0
  1  2  1  0
  2  3  1  0
  3  4  2  0
  4  5  1  0
  5  6  2  0
  4  7  1  0
  7  8  2  0
  8  9  1  0
  9 10  1  0
 10 11  1  0
 11 12  1  0
 12 13  2  0
 13 14  1  0
 14 15  2  0
 15 16  1  0
 16 17  2  0
 17 18  1  0
 18 19  2  0
 19 20  1  0
 20 21  2  0
 10 22  2  0
 22 23  1  0
 23 24  2  0
 24 25  1  0
 25 26  2  0
  6  2  1  0
 26  7  1  0
 24  9  1  0
 21 12  1  0
 20 15  1  0
  1 27  1  0
  1 28  1  0
  1 29  1  0
  3 30  1  0
  5 31  1  0
 13 32  1  0
 14 33  1  0
 17 34  1  0
 18 35  1  0
 19 36  1  0
 21 37  1  0
 25 38  1  0
 26 39  1  0
M  END
$$$$
