@<TRIPOS>MOLECULE
*****
 39 43 0 0 0
SMALL
GASTEIGER

@<TRIPOS>ATOM
      1 C          -6.0407    0.9671    2.7105 C.3     1  UNL1        0.0302
      2 N          -4.8352    1.0603    1.8987 N.ar    1  UNL1       -0.2738
      3 C          -4.5165    0.1725    0.9235 C.ar    1  UNL1        0.0344
      4 C          -3.3141    0.5639    0.3625 C.ar    1  UNL1        0.0395
      5 C          -2.9167    1.7081    1.0231 C.ar    1  UNL1        0.0586
      6 N          -3.8776    1.9697    1.9503 N.ar    1  UNL1       -0.1792
      7 C          -2.5810   -0.0923   -0.7255 C.ar    1  UNL1        0.0949
      8 N          -1.4105    0.3390   -1.2297 N.ar    1  UNL1       -0.1626
      9 N          -0.8680   -0.3627   -2.2151 N.ar    1  UNL1       -0.1865
     10 C           0.2917   -0.0774   -2.8330 C.ar    1  UNL1        0.2171
     11 S           1.5156    1.2149   -2.6587 S.3     1  UNL1       -0.0482
     12 C           2.7449    0.6946   -1.4605 C.ar    1  UNL1        0.0163
     13 C           3.8069    0.0100   -2.0346 C.ar    1  UNL1       -0.0458
     14 C           4.8658   -0.4783   -1.2769 C.ar    1  UNL1       -0.0347
     15 C           4.8372   -0.2636    0.0817 C.ar    1  UNL1        0.0710
     16 N           5.8194   -0.7058    0.8576 N.ar    1  UNL1       -0.2550
     17 C           5.8528   -0.5298    2.1910 C.ar    1  UNL1        0.0283
     18 C           4.7801    0.1588    2.7517 C.ar    1  UNL1       -0.0430
     19 C           3.7401    0.6356    1.9884 C.ar    1  UNL1       -0.0511
     20 C           3.7753    0.4186    0.6390 C.ar    1  UNL1        0.0014
     21 C           2.7178    0.9089   -0.0984 C.ar    1  UNL1       -0.0387
     22 N           0.5369   -1.0097   -3.7913 N.ar    1  UNL1       -0.1200
     23 N          -0.4905   -1.8674   -3.7483 N.ar    1  UNL1       -0.1271
     24 C          -1.3432   -1.4827   -2.7983 C.ar    1  UNL1        0.1788
     25 C          -2.5435   -1.9497   -2.3019 C.ar    1  UNL1       -0.0135
     26 C          -3.1406   -1.2494   -1.2773 C.ar    1  UNL1       -0.0304
     27 H          -5.8773    0.3219    3.6077 H       1  UNL1        0.0473
     28 H          -6.8248    0.4146    2.1201 H       1  UNL1        0.0473
     29 H          -6.4303    1.9688    2.9811 H       1  UNL1        0.0473
     30 H          -5.0537   -0.7033    0.5897 H       1  UNL1        0.0833
     31 H          -2.0340    2.3153    0.8780 H       1  UNL1        0.0854
     32 H           3.9126   -0.2047   -3.0952 H       1  UNL1        0.0629
     33 H           5.7009   -1.0142   -1.7124 H       1  UNL1        0.0639
     34 H           6.6484   -0.8864    2.8308 H       1  UNL1        0.0830
     35 H           4.7996    0.3055    3.8308 H       1  UNL1        0.0633
     36 H           2.9358    1.1584    2.4529 H       1  UNL1        0.0625
     37 H           1.8665    1.4412    0.2487 H       1  UNL1        0.0635
     38 H          -2.9684   -2.8440   -2.7340 H       1  UNL1        0.0656
     39 H          -4.0816   -1.6622   -0.9271 H       1  UNL1        0.0641
@<TRIPOS>BOND
     1     1     2    1
     2     2     3   ar
     3     3     4   ar
     4     4     5   ar
     5     5     6   ar
     6     4     7    1
     7     7     8   ar
     8     8     9   ar
     9     9    10   ar
    10    10    11    1
    11    11    12    1
    12    12    13   ar
    13    13    14   ar
    14    14    15   ar
    15    15    16   ar
    16    16    17   ar
    17    17    18   ar
    18    18    19   ar
    19    19    20   ar
    20    20    21   ar
    21    10    22   ar
    22    22    23   ar
    23    23    24   ar
    24    24    25   ar
    25    25    26   ar
    26     6     2   ar
    27    26     7   ar
    28    24     9   ar
    29    21    12   ar
    30    20    15   ar
    31     1    27    1
    32     1    28    1
    33     1    29    1
    34     3    30    1
    35     5    31    1
    36    13    32    1
    37    14    33    1
    38    17    34    1
    39    18    35    1
    40    19    36    1
    41    21    37    1
    42    25    38    1
    43    26    39    1
