
     RDKit          3D

 50 54  0  0  0  0  0  0  0  0999 V2000
    8.7587   -1.4856    2.8803 F   0  0  0  0  0  0  0  0  0  0  0  0
    7.7989   -0.9295    2.1085 C   0  0  0  0  0  0  0  0  0  0  0  0
    7.9275   -0.9774    0.7343 C   0  0  0  0  0  0  0  0  0  0  0  0
    6.9193   -0.3940   -0.0289 C   0  0  0  0  0  0  0  0  0  0  0  0
    5.8149    0.2193    0.5619 C   0  0  0  0  0  0  0  0  0  0  0  0
    5.7141    0.2515    1.9391 C   0  0  0  0  0  0  0  0  0  0  0  0
    6.7110   -0.3254    2.7000 C   0  0  0  0  0  0  0  0  0  0  0  0
    4.9315    0.7356   -0.3928 N   0  0  0  0  0  0  0  0  0  0  0  0
    5.4182    1.5820   -1.2967 C   0  0  0  0  0  0  0  0  0  0  0  0
    4.5668    2.1022   -2.2454 C   0  0  0  0  0  0  0  0  0  0  0  0
    3.2556    1.7408   -2.2366 C   0  0  0  0  0  0  0  0  0  0  0  0
    2.6886    0.8648   -1.3227 C   0  0  0  0  0  0  0  0  0  0  0  0
    1.2877    0.5412   -1.3923 C   0  0  0  0  0  0  0  0  0  0  0  0
    0.6403    1.0955   -2.3144 O   0  0  0  0  0  0  0  0  0  0  0  0
    0.5308   -0.3081   -0.5772 N   0  0  0  0  0  0  0  0  0  0  0  0
   -0.8381   -0.6598   -0.6003 C   0  0  0  0  0  0  0  0  0  0  0  0
   -1.3695   -1.5369    0.3270 C   0  0  0  0  0  0  0  0  0  0  0  0
   -2.6860   -1.9205    0.3621 C   0  0  0  0  0  0  0  0  0  0  0  0
   -3.5685   -1.4223   -0.5691 C   0  0  0  0  0  0  0  0  0  0  0  0
   -4.8925   -1.8168   -0.5227 O   0  0  0  0  0  0  0  0  0  0  0  0
   -5.9481   -0.9531   -0.3504 C   0  0  0  0  0  0  0  0  0  0  0  0
   -6.8720   -0.9512   -1.3929 C   0  0  0  0  0  0  0  0  0  0  0  0
   -7.9900   -0.1354   -1.3668 C   0  0  0  0  0  0  0  0  0  0  0  0
   -8.1644    0.6643   -0.2984 N   0  0  0  0  0  0  0  0  0  0  0  0
   -7.3007    0.6942    0.7262 C   0  0  0  0  0  0  0  0  0  0  0  0
   -6.1810   -0.1121    0.7172 C   0  0  0  0  0  0  0  0  0  0  0  0
   -5.4212    0.0547    1.8412 C   0  0  0  0  0  0  0  0  0  0  0  0
   -6.0980    1.0079    2.5838 C   0  0  0  0  0  0  0  0  0  0  0  0
   -7.1975    1.3538    1.8870 N   0  0  0  0  0  0  0  0  0  0  0  0
   -3.1085   -0.5424   -1.5242 C   0  0  0  0  0  0  0  0  0  0  0  0
   -3.9832   -0.0575   -2.4360 F   0  0  0  0  0  0  0  0  0  0  0  0
   -1.7801   -0.2063   -1.4953 C   0  0  0  0  0  0  0  0  0  0  0  0
    3.6299    0.4103   -0.4264 C   0  0  0  0  0  0  0  0  0  0  0  0
    3.2668   -0.3934    0.4657 O   0  0  0  0  0  0  0  0  0  0  0  0
    8.7931   -1.4585    0.2940 H   0  0  0  0  0  0  0  0  0  0  0  0
    7.1035   -0.4788   -1.1022 H   0  0  0  0  0  0  0  0  0  0  0  0
    4.8222    0.7489    2.2963 H   0  0  0  0  0  0  0  0  0  0  0  0
    6.5819   -0.2720    3.7841 H   0  0  0  0  0  0  0  0  0  0  0  0
    6.4667    1.8613   -1.2915 H   0  0  0  0  0  0  0  0  0  0  0  0
    4.9840    2.7902   -2.9727 H   0  0  0  0  0  0  0  0  0  0  0  0
    2.6618    2.1993   -3.0193 H   0  0  0  0  0  0  0  0  0  0  0  0
    1.0698   -0.7715    0.1929 H   0  0  0  0  0  0  0  0  0  0  0  0
   -0.7228   -1.9760    1.1030 H   0  0  0  0  0  0  0  0  0  0  0  0
   -3.0366   -2.6055    1.1082 H   0  0  0  0  0  0  0  0  0  0  0  0
   -6.7568   -1.5923   -2.2772 H   0  0  0  0  0  0  0  0  0  0  0  0
   -8.6909   -0.1661   -2.2085 H   0  0  0  0  0  0  0  0  0  0  0  0
   -4.4997   -0.4406    2.0999 H   0  0  0  0  0  0  0  0  0  0  0  0
   -5.8284    1.4233    3.5464 H   0  0  0  0  0  0  0  0  0  0  0  0
   -7.8995    2.0659    2.2198 H   0  0  0  0  0  0  0  0  0  0  0  0
   -1.5096    0.4819   -2.2728 H   0  0  0  0  0  0  0  0  0  0  0  0
  1  2  1  0
  2  3  2  0
  3  4  1  0
  4  5  2  0
  5  6  1  0
  6  7  2  0
  5  8  1  0
  8  9  1  0
  9 10  2  0
 10 11  1  0
 11 12  2  0
 12 13  1  0
 13 14  2  0
 13 15  1  0
 15 16  1  0
 16 17  2  0
 17 18  1  0
 18 19  2  0
 19 20  1  0
 20 21  1  0
 21 22  2  0
 22 23  1  0
 23 24  2  0
 24 25  1  0
 25 26  2  0
 26 27  1  0
 27 28  2  0
 28 29  1  0
 19 30  1  0
 30 31  1  0
 30 32  2  0
 12 33  1  0
 33 34  2  0
  7  2  1  0
 33  8  1  0
 32 16  1  0
 26 21  1  0
 29 25  1  0
  3 35  1  0
  4 36  1  0
  6 37  1  0
  7 38  1  0
  9 39  1  0
 10 40  1  0
 11 41  1  0
 15 42  1  0
 17 43  1  0
 18 44  1  0
 22 45  1  0
 23 46  1  0
 27 47  1  0
 28 48  1  0
 29 49  1  0
 32 50  1  0
M  END
$$$$
