@<TRIPOS>MOLECULE
*****
 50 54 0 0 0
SMALL
GASTEIGER

@<TRIPOS>ATOM
      1 F           8.7587   -1.4856    2.8803 F       1  UNL1       -0.2055
      2 C           7.7989   -0.9295    2.1085 C.ar    1  UNL1        0.1235
      3 C           7.9275   -0.9774    0.7343 C.ar    1  UNL1       -0.0245
      4 C           6.9193   -0.3940   -0.0289 C.ar    1  UNL1       -0.0350
      5 C           5.8149    0.2193    0.5619 C.ar    1  UNL1        0.0496
      6 C           5.7141    0.2515    1.9391 C.ar    1  UNL1       -0.0350
      7 C           6.7110   -0.3254    2.7000 C.ar    1  UNL1       -0.0245
      8 N           4.9315    0.7356   -0.3928 N.ar    1  UNL1       -0.2836
      9 C           5.4182    1.5820   -1.2967 C.ar    1  UNL1        0.0132
     10 C           4.5668    2.1022   -2.2454 C.ar    1  UNL1       -0.0442
     11 C           3.2556    1.7408   -2.2366 C.ar    1  UNL1       -0.0430
     12 C           2.6886    0.8648   -1.3227 C.ar    1  UNL1        0.1017
     13 C           1.2877    0.5412   -1.3923 C.2     1  UNL1        0.2535
     14 O           0.6403    1.0955   -2.3144 O.2     1  UNL1       -0.2697
     15 N           0.5308   -0.3081   -0.5772 N.am    1  UNL1       -0.2813
     16 C          -0.8381   -0.6598   -0.6003 C.ar    1  UNL1        0.0366
     17 C          -1.3695   -1.5369    0.3270 C.ar    1  UNL1       -0.0368
     18 C          -2.6860   -1.9205    0.3621 C.ar    1  UNL1       -0.0147
     19 C          -3.5685   -1.4223   -0.5691 C.ar    1  UNL1        0.1636
     20 O          -4.8925   -1.8168   -0.5227 O.3     1  UNL1       -0.4524
     21 C          -5.9481   -0.9531   -0.3504 C.ar    1  UNL1        0.1406
     22 C          -6.8720   -0.9512   -1.3929 C.ar    1  UNL1       -0.0005
     23 C          -7.9900   -0.1354   -1.3668 C.ar    1  UNL1        0.0334
     24 N          -8.1644    0.6643   -0.2984 N.ar    1  UNL1       -0.2373
     25 C          -7.3007    0.6942    0.7262 C.ar    1  UNL1        0.1416
     26 C          -6.1810   -0.1121    0.7172 C.ar    1  UNL1        0.0608
     27 C          -5.4212    0.0547    1.8412 C.ar    1  UNL1       -0.0315
     28 C          -6.0980    1.0079    2.5838 C.ar    1  UNL1        0.0042
     29 N          -7.1975    1.3538    1.8870 N.ar    1  UNL1       -0.3457
     30 C          -3.1085   -0.5424   -1.5242 C.ar    1  UNL1        0.1672
     31 F          -3.9832   -0.0575   -2.4360 F       1  UNL1       -0.2016
     32 C          -1.7801   -0.2063   -1.4953 C.ar    1  UNL1       -0.0015
     33 C           3.6299    0.4103   -0.4264 C.ar    1  UNL1        0.2679
     34 O           3.2668   -0.3934    0.4657 O.2     1  UNL1       -0.2665
     35 H           8.7931   -1.4585    0.2940 H       1  UNL1        0.0647
     36 H           7.1035   -0.4788   -1.1022 H       1  UNL1        0.0639
     37 H           4.8222    0.7489    2.2963 H       1  UNL1        0.0639
     38 H           6.5819   -0.2720    3.7841 H       1  UNL1        0.0647
     39 H           6.4667    1.8613   -1.2915 H       1  UNL1        0.0814
     40 H           4.9840    2.7902   -2.9727 H       1  UNL1        0.0632
     41 H           2.6618    2.1993   -3.0193 H       1  UNL1        0.0627
     42 H           1.0698   -0.7715    0.1929 H       1  UNL1        0.1551
     43 H          -0.7228   -1.9760    1.1030 H       1  UNL1        0.0637
     44 H          -3.0366   -2.6055    1.1082 H       1  UNL1        0.0656
     45 H          -6.7568   -1.5923   -2.2772 H       1  UNL1        0.0670
     46 H          -8.6909   -0.1661   -2.2085 H       1  UNL1        0.0831
     47 H          -4.4997   -0.4406    2.0999 H       1  UNL1        0.0640
     48 H          -5.8284    1.4233    3.5464 H       1  UNL1        0.0807
     49 H          -7.8995    2.0659    2.2198 H       1  UNL1        0.1668
     50 H          -1.5096    0.4819   -2.2728 H       1  UNL1        0.0666
@<TRIPOS>BOND
     1     1     2    1
     2     2     3   ar
     3     3     4   ar
     4     4     5   ar
     5     5     6   ar
     6     6     7   ar
     7     5     8    1
     8     8     9   ar
     9     9    10   ar
    10    10    11   ar
    11    11    12   ar
    12    12    13    1
    13    13    14    2
    14    13    15   am
    15    15    16    1
    16    16    17   ar
    17    17    18   ar
    18    18    19   ar
    19    19    20    1
    20    20    21    1
    21    21    22   ar
    22    22    23   ar
    23    23    24   ar
    24    24    25   ar
    25    25    26   ar
    26    26    27   ar
    27    27    28   ar
    28    28    29   ar
    29    19    30   ar
    30    30    31    1
    31    30    32   ar
    32    12    33   ar
    33    33    34    2
    34     7     2   ar
    35    33     8   ar
    36    32    16   ar
    37    26    21   ar
    38    29    25   ar
    39     3    35    1
    40     4    36    1
    41     6    37    1
    42     7    38    1
    43     9    39    1
    44    10    40    1
    45    11    41    1
    46    15    42    1
    47    17    43    1
    48    18    44    1
    49    22    45    1
    50    23    46    1
    51    27    47    1
    52    28    48    1
    53    29    49    1
    54    32    50    1
