@<TRIPOS>MOLECULE
*****
 39 40 0 0 0
SMALL
GASTEIGER

@<TRIPOS>ATOM
      1 C           3.8064    0.0792   -0.3583 C.3     1  UNL1        0.0048
      2 C           4.0429    1.3820    0.2679 C.3     1  UNL1       -0.0496
      3 N           4.8615   -0.8308    0.0771 N.3     1  UNL1       -0.3272
      4 C           2.4978   -0.5648   -0.2496 C.3     1  UNL1       -0.0260
      5 C           1.9724   -0.8890    1.0944 C.3     1  UNL1       -0.0481
      6 C           0.4582   -1.1156    0.9477 C.3     1  UNL1       -0.0416
      7 C          -0.1113    0.3002    0.8316 C.3     1  UNL1        0.0359
      8 C           0.6735    1.0506   -0.1676 C.3     1  UNL1       -0.0416
      9 C           1.4110    0.1072   -1.0654 C.3     1  UNL1       -0.0481
     10 C          -1.5684    0.2556    0.6399 C.2     1  UNL1        0.2203
     11 O          -2.3571    0.8155    1.4770 O.2     1  UNL1       -0.2752
     12 N          -2.2244   -0.3788   -0.4357 N.am    1  UNL1       -0.2852
     13 C          -3.6551   -0.2318   -0.3168 C.ar    1  UNL1        0.0363
     14 C          -4.2609    0.8807   -0.9107 C.ar    1  UNL1       -0.0223
     15 C          -5.6292    1.0663   -0.8245 C.ar    1  UNL1        0.0293
     16 N          -6.4107    0.1800   -0.1666 N.ar    1  UNL1       -0.2631
     17 C          -5.8377   -0.9021    0.4134 C.ar    1  UNL1        0.0293
     18 C          -4.4720   -1.1162    0.3451 C.ar    1  UNL1       -0.0223
     19 H           4.0113    0.1958   -1.4575 H       1  UNL1        0.0458
     20 H           3.6948    2.2539   -0.3273 H       1  UNL1        0.0245
     21 H           5.1482    1.5866    0.3836 H       1  UNL1        0.0245
     22 H           3.6550    1.5380    1.2882 H       1  UNL1        0.0245
     23 H           5.7768   -0.3467   -0.1274 H       1  UNL1        0.1185
     24 H           4.7940   -1.7480   -0.4173 H       1  UNL1        0.1185
     25 H           2.5990   -1.5726   -0.7670 H       1  UNL1        0.0316
     26 H           2.0430   -0.1258    1.8653 H       1  UNL1        0.0269
     27 H           2.4262   -1.8455    1.4653 H       1  UNL1        0.0269
     28 H           0.1902   -1.7721    0.1305 H       1  UNL1        0.0273
     29 H           0.1356   -1.5367    1.9187 H       1  UNL1        0.0273
     30 H           0.0979    0.7462    1.8504 H       1  UNL1        0.0394
     31 H           1.4647    1.6687    0.3321 H       1  UNL1        0.0273
     32 H           0.0958    1.7901   -0.7583 H       1  UNL1        0.0273
     33 H           1.8245    0.6106   -1.9635 H       1  UNL1        0.0269
     34 H           0.6821   -0.6393   -1.4904 H       1  UNL1        0.0269
     35 H          -1.6772   -0.8545   -1.1564 H       1  UNL1        0.1548
     36 H          -3.6174    1.5842   -1.4362 H       1  UNL1        0.0651
     37 H          -6.0403    1.9497   -1.3062 H       1  UNL1        0.0830
     38 H          -6.4791   -1.5973    0.9336 H       1  UNL1        0.0830
     39 H          -4.0220   -1.9733    0.8050 H       1  UNL1        0.0651
@<TRIPOS>BOND
     1     1     2    1
     2     1     3    1
     3     1     4    1
     4     4     5    1
     5     5     6    1
     6     6     7    1
     7     7     8    1
     8     8     9    1
     9     7    10    1
    10    10    11    2
    11    10    12   am
    12    12    13    1
    13    13    14   ar
    14    14    15   ar
    15    15    16   ar
    16    16    17   ar
    17    17    18   ar
    18     9     4    1
    19    18    13   ar
    20     1    19    1
    21     2    20    1
    22     2    21    1
    23     2    22    1
    24     3    23    1
    25     3    24    1
    26     4    25    1
    27     5    26    1
    28     5    27    1
    29     6    28    1
    30     6    29    1
    31     7    30    1
    32     8    31    1
    33     8    32    1
    34     9    33    1
    35     9    34    1
    36    12    35    1
    37    14    36    1
    38    15    37    1
    39    17    38    1
    40    18    39    1
