
     RDKit          3D

 61 64  0  0  0  0  0  0  0  0999 V2000
   -4.4251   -4.3625   -1.8965 C   0  0  0  0  0  0  0  0  0  0  0  0
   -4.2210   -2.9261   -1.8439 N   0  0  0  0  0  0  0  0  0  0  0  0
   -2.8424   -2.5633   -2.1195 C   0  0  0  0  0  0  0  0  0  0  0  0
   -2.5926   -1.2964   -1.3468 C   0  0  2  0  0  0  0  0  0  0  0  0
   -1.1764   -1.1466   -0.9487 C   0  0  0  0  0  0  0  0  0  0  0  0
   -0.4992   -0.0278   -1.3739 C   0  0  0  0  0  0  0  0  0  0  0  0
    0.8440    0.1979   -1.0463 C   0  0  0  0  0  0  0  0  0  0  0  0
    1.5238   -0.7160   -0.2766 C   0  0  0  0  0  0  0  0  0  0  0  0
    2.9315   -0.5580    0.1101 C   0  0  0  0  0  0  0  0  0  0  0  0
    3.6831    0.4651   -0.2421 C   0  0  0  0  0  0  0  0  0  0  0  0
    5.0886    0.5299    0.1994 C   0  0  0  0  0  0  0  0  0  0  0  0
    5.5526   -0.3911    0.9075 O   0  0  0  0  0  0  0  0  0  0  0  0
    5.9298    1.6150   -0.1612 N   0  0  0  0  0  0  0  0  0  0  0  0
    7.3029    1.6749    0.2727 C   0  0  0  0  0  0  0  0  0  0  0  0
    7.6608    2.2820    1.4532 C   0  0  0  0  0  0  0  0  0  0  0  0
    8.9880    2.3084    1.8187 C   0  0  0  0  0  0  0  0  0  0  0  0
    9.9624    1.7305    1.0102 C   0  0  0  0  0  0  0  0  0  0  0  0
    9.5603    1.1330   -0.1637 C   0  0  0  0  0  0  0  0  0  0  0  0
    8.2433    1.0884   -0.5600 C   0  0  0  0  0  0  0  0  0  0  0  0
    7.8209    0.4698   -1.7778 N   0  0  0  0  0  0  0  0  0  0  0  0
    0.8223   -1.8390    0.1429 C   0  0  0  0  0  0  0  0  0  0  0  0
   -0.4986   -2.0545   -0.1829 C   0  0  0  0  0  0  0  0  0  0  0  0
   -3.5086   -1.3921   -0.1752 C   0  0  1  0  0  0  0  0  0  0  0  0
   -4.1982   -0.0739    0.0411 C   0  0  0  0  0  0  0  0  0  0  0  0
   -3.9508    0.8738   -0.7243 O   0  0  0  0  0  0  0  0  0  0  0  0
   -5.1009    0.0524    1.0979 N   0  0  0  0  0  0  0  0  0  0  0  0
   -5.8292    1.2095    1.4377 C   0  0  0  0  0  0  0  0  0  0  0  0
   -6.6881    1.1622    2.5412 C   0  0  0  0  0  0  0  0  0  0  0  0
   -7.4463    2.2200    2.9655 C   0  0  0  0  0  0  0  0  0  0  0  0
   -7.3811    3.4163    2.2847 C   0  0  0  0  0  0  0  0  0  0  0  0
   -8.3148    4.8196    2.7572 Cl  0  0  0  0  0  0  0  0  0  0  0  0
   -6.5528    3.5151    1.1938 C   0  0  0  0  0  0  0  0  0  0  0  0
   -5.7829    2.4107    0.7785 C   0  0  0  0  0  0  0  0  0  0  0  0
   -4.5486   -2.3906   -0.5647 C   0  0  0  0  0  0  0  0  0  0  0  0
   -3.8078   -4.7625   -2.7164 H   0  0  0  0  0  0  0  0  0  0  0  0
   -5.5077   -4.5707   -2.0134 H   0  0  0  0  0  0  0  0  0  0  0  0
   -4.0269   -4.7824   -0.9400 H   0  0  0  0  0  0  0  0  0  0  0  0
   -2.7883   -2.3080   -3.2012 H   0  0  0  0  0  0  0  0  0  0  0  0
   -2.2086   -3.3980   -1.8291 H   0  0  0  0  0  0  0  0  0  0  0  0
   -2.9189   -0.4319   -1.9615 H   0  0  0  0  0  0  0  0  0  0  0  0
   -0.9695    0.7461   -1.9885 H   0  0  0  0  0  0  0  0  0  0  0  0
    1.3472    1.0912   -1.3986 H   0  0  0  0  0  0  0  0  0  0  0  0
    3.4195   -1.3179    0.7287 H   0  0  0  0  0  0  0  0  0  0  0  0
    3.2745    1.2404   -0.8426 H   0  0  0  0  0  0  0  0  0  0  0  0
    5.5055    2.3616   -0.7533 H   0  0  0  0  0  0  0  0  0  0  0  0
    6.9027    2.7267    2.0721 H   0  0  0  0  0  0  0  0  0  0  0  0
    9.3342    2.7696    2.7340 H   0  0  0  0  0  0  0  0  0  0  0  0
   10.9926    1.7456    1.2860 H   0  0  0  0  0  0  0  0  0  0  0  0
   10.2944    0.6786   -0.8076 H   0  0  0  0  0  0  0  0  0  0  0  0
    7.0428    0.9047   -2.3254 H   0  0  0  0  0  0  0  0  0  0  0  0
    8.3141   -0.3954   -2.0654 H   0  0  0  0  0  0  0  0  0  0  0  0
    1.3840   -2.5550    0.7561 H   0  0  0  0  0  0  0  0  0  0  0  0
   -1.0049   -2.9256    0.1559 H   0  0  0  0  0  0  0  0  0  0  0  0
   -2.9763   -1.7051    0.7505 H   0  0  0  0  0  0  0  0  0  0  0  0
   -5.2667   -0.7993    1.7178 H   0  0  0  0  0  0  0  0  0  0  0  0
   -6.7879    0.2412    3.1275 H   0  0  0  0  0  0  0  0  0  0  0  0
   -8.1015    2.1407    3.8294 H   0  0  0  0  0  0  0  0  0  0  0  0
   -6.4474    4.4276    0.6037 H   0  0  0  0  0  0  0  0  0  0  0  0
   -5.1458    2.5284   -0.0818 H   0  0  0  0  0  0  0  0  0  0  0  0
   -4.6496   -3.1869    0.2243 H   0  0  0  0  0  0  0  0  0  0  0  0
   -5.5609   -1.9002   -0.6694 H   0  0  0  0  0  0  0  0  0  0  0  0
  1  2  1  0
  2  3  1  0
  3  4  1  0
  4  5  1  0
  5  6  2  0
  6  7  1  0
  7  8  2  0
  8  9  1  0
  9 10  2  0
 10 11  1  0
 11 12  2  0
 11 13  1  0
 13 14  1  0
 14 15  2  0
 15 16  1  0
 16 17  2  0
 17 18  1  0
 18 19  2  0
 19 20  1  0
  8 21  1  0
 21 22  2  0
  4 23  1  0
 23 24  1  0
 24 25  2  0
 24 26  1  0
 26 27  1  0
 27 28  2  0
 28 29  1  0
 29 30  2  0
 30 31  1  0
 30 32  1  0
 32 33  2  0
 23 34  1  0
 34  2  1  0
 22  5  1  0
 33 27  1  0
 19 14  1  0
  1 35  1  0
  1 36  1  0
  1 37  1  0
  3 38  1  0
  3 39  1  0
  4 40  1  6
  6 41  1  0
  7 42  1  0
  9 43  1  0
 10 44  1  0
 13 45  1  0
 15 46  1  0
 16 47  1  0
 17 48  1  0
 18 49  1  0
 20 50  1  0
 20 51  1  0
 21 52  1  0
 22 53  1  0
 23 54  1  1
 26 55  1  0
 28 56  1  0
 29 57  1  0
 32 58  1  0
 33 59  1  0
 34 60  1  0
 34 61  1  0
M  END
$$$$
