@<TRIPOS>MOLECULE
*****
 61 64 0 0 0
SMALL
GASTEIGER

@<TRIPOS>ATOM
      1 C          -4.4251   -4.3625   -1.8965 C.3     1  UNL1       -0.0127
      2 N          -4.2210   -2.9261   -1.8439 N.3     1  UNL1       -0.3040
      3 C          -2.8424   -2.5633   -2.1195 C.3     1  UNL1        0.0062
      4 C          -2.5926   -1.2964   -1.3468 C.3     1  UNL1        0.0092
      5 C          -1.1764   -1.1466   -0.9487 C.ar    1  UNL1       -0.0423
      6 C          -0.4992   -0.0278   -1.3739 C.ar    1  UNL1       -0.0577
      7 C           0.8440    0.1979   -1.0463 C.ar    1  UNL1       -0.0543
      8 C           1.5238   -0.7160   -0.2766 C.ar    1  UNL1       -0.0249
      9 C           2.9315   -0.5580    0.1101 C.2     1  UNL1       -0.0497
     10 C           3.6831    0.4651   -0.2421 C.2     1  UNL1        0.0010
     11 C           5.0886    0.5299    0.1994 C.2     1  UNL1        0.2411
     12 O           5.5526   -0.3911    0.9075 O.2     1  UNL1       -0.2705
     13 N           5.9298    1.6150   -0.1612 N.am    1  UNL1       -0.2804
     14 C           7.3029    1.6749    0.2727 C.ar    1  UNL1        0.0545
     15 C           7.6608    2.2820    1.4532 C.ar    1  UNL1       -0.0387
     16 C           8.9880    2.3084    1.8187 C.ar    1  UNL1       -0.0599
     17 C           9.9624    1.7305    1.0102 C.ar    1  UNL1       -0.0599
     18 C           9.5603    1.1330   -0.1637 C.ar    1  UNL1       -0.0392
     19 C           8.2433    1.0884   -0.5600 C.ar    1  UNL1        0.0461
     20 N           7.8209    0.4698   -1.7778 N.pl3   1  UNL1       -0.3565
     21 C           0.8223   -1.8390    0.1429 C.ar    1  UNL1       -0.0543
     22 C          -0.4986   -2.0545   -0.1829 C.ar    1  UNL1       -0.0577
     23 C          -3.5086   -1.3921   -0.1752 C.3     1  UNL1        0.0565
     24 C          -4.1982   -0.0739    0.0411 C.2     1  UNL1        0.2221
     25 O          -3.9508    0.8738   -0.7243 O.2     1  UNL1       -0.2751
     26 N          -5.1009    0.0524    1.0979 N.am    1  UNL1       -0.2852
     27 C          -5.8292    1.2095    1.4377 C.ar    1  UNL1        0.0335
     28 C          -6.6881    1.1622    2.5412 C.ar    1  UNL1       -0.0391
     29 C          -7.4463    2.2200    2.9655 C.ar    1  UNL1       -0.0416
     30 C          -7.3811    3.4163    2.2847 C.ar    1  UNL1        0.0411
     31 CL         -8.3148    4.8196    2.7572 Cl      1  UNL1       -0.0835
     32 C          -6.5528    3.5151    1.1938 C.ar    1  UNL1       -0.0416
     33 C          -5.7829    2.4107    0.7785 C.ar    1  UNL1       -0.0391
     34 C          -4.5486   -2.3906   -0.5647 C.3     1  UNL1        0.0103
     35 H          -3.8078   -4.7625   -2.7164 H       1  UNL1        0.0391
     36 H          -5.5077   -4.5707   -2.0134 H       1  UNL1        0.0391
     37 H          -4.0269   -4.7824   -0.9400 H       1  UNL1        0.0391
     38 H          -2.7883   -2.3080   -3.2012 H       1  UNL1        0.0433
     39 H          -2.2086   -3.3980   -1.8291 H       1  UNL1        0.0433
     40 H          -2.9189   -0.4319   -1.9615 H       1  UNL1        0.0369
     41 H          -0.9695    0.7461   -1.9885 H       1  UNL1        0.0621
     42 H           1.3472    1.0912   -1.3986 H       1  UNL1        0.0624
     43 H           3.4195   -1.3179    0.7287 H       1  UNL1        0.0625
     44 H           3.2745    1.2404   -0.8426 H       1  UNL1        0.0670
     45 H           5.5055    2.3616   -0.7533 H       1  UNL1        0.1552
     46 H           6.9027    2.7267    2.0721 H       1  UNL1        0.0637
     47 H           9.3342    2.7696    2.7340 H       1  UNL1        0.0618
     48 H          10.9926    1.7456    1.2860 H       1  UNL1        0.0618
     49 H          10.2944    0.6786   -0.8076 H       1  UNL1        0.0636
     50 H           7.0428    0.9047   -2.3254 H       1  UNL1        0.1424
     51 H           8.3141   -0.3954   -2.0654 H       1  UNL1        0.1424
     52 H           1.3840   -2.5550    0.7561 H       1  UNL1        0.0624
     53 H          -1.0049   -2.9256    0.1559 H       1  UNL1        0.0621
     54 H          -2.9763   -1.7051    0.7505 H       1  UNL1        0.0413
     55 H          -5.2667   -0.7993    1.7178 H       1  UNL1        0.1548
     56 H          -6.7879    0.2412    3.1275 H       1  UNL1        0.0636
     57 H          -8.1015    2.1407    3.8294 H       1  UNL1        0.0633
     58 H          -6.4474    4.4276    0.6037 H       1  UNL1        0.0633
     59 H          -5.1458    2.5284   -0.0818 H       1  UNL1        0.0636
     60 H          -4.6496   -3.1869    0.2243 H       1  UNL1        0.0434
     61 H          -5.5609   -1.9002   -0.6694 H       1  UNL1        0.0434
@<TRIPOS>BOND
     1     1     2    1
     2     2     3    1
     3     3     4    1
     4     4     5    1
     5     5     6   ar
     6     6     7   ar
     7     7     8   ar
     8     8     9    1
     9     9    10    2
    10    10    11    1
    11    11    12    2
    12    11    13   am
    13    13    14    1
    14    14    15   ar
    15    15    16   ar
    16    16    17   ar
    17    17    18   ar
    18    18    19   ar
    19    19    20    1
    20     8    21   ar
    21    21    22   ar
    22     4    23    1
    23    23    24    1
    24    24    25    2
    25    24    26   am
    26    26    27    1
    27    27    28   ar
    28    28    29   ar
    29    29    30   ar
    30    30    31    1
    31    30    32   ar
    32    32    33   ar
    33    23    34    1
    34    34     2    1
    35    22     5   ar
    36    33    27   ar
    37    19    14   ar
    38     1    35    1
    39     1    36    1
    40     1    37    1
    41     3    38    1
    42     3    39    1
    43     4    40    1
    44     6    41    1
    45     7    42    1
    46     9    43    1
    47    10    44    1
    48    13    45    1
    49    15    46    1
    50    16    47    1
    51    17    48    1
    52    18    49    1
    53    20    50    1
    54    20    51    1
    55    21    52    1
    56    22    53    1
    57    23    54    1
    58    26    55    1
    59    28    56    1
    60    29    57    1
    61    32    58    1
    62    33    59    1
    63    34    60    1
    64    34    61    1
