@<TRIPOS>MOLECULE
*****
 21 21 0 0 0
SMALL
GASTEIGER

@<TRIPOS>ATOM
      1 O           4.1309    0.6387   -0.8659 O.2     1  UNL1       -0.2458
      2 C           3.7698   -0.1842    0.0062 C.2     1  UNL1        0.3296
      3 O           4.7187   -0.8773    0.7280 O.3     1  UNL1       -0.4775
      4 C           2.3426   -0.4107    0.2598 C.2     1  UNL1        0.0229
      5 C           1.4422    0.2551   -0.4337 C.2     1  UNL1       -0.0477
      6 C           0.0256    0.0417   -0.1941 C.ar    1  UNL1       -0.0211
      7 C          -0.5010   -0.8281    0.7290 C.ar    1  UNL1       -0.0509
      8 C          -1.8699   -0.9792    0.9024 C.ar    1  UNL1       -0.0160
      9 C          -2.7735   -0.2586    0.1512 C.ar    1  UNL1        0.1582
     10 O          -4.1585   -0.4190    0.3345 O.3     1  UNL1       -0.5033
     11 C          -2.2652    0.6156   -0.7765 C.ar    1  UNL1        0.1588
     12 O          -3.1671    1.3592   -1.5520 O.3     1  UNL1       -0.5033
     13 C          -0.9088    0.7676   -0.9506 C.ar    1  UNL1       -0.0094
     14 H           5.6714   -0.5173    0.8682 H       1  UNL1        0.2954
     15 H           2.0915   -1.1259    1.0171 H       1  UNL1        0.0689
     16 H           1.8141    0.9511   -1.1721 H       1  UNL1        0.0626
     17 H           0.1579   -1.4131    1.3397 H       1  UNL1        0.0625
     18 H          -2.2601   -1.6798    1.6457 H       1  UNL1        0.0655
     19 H          -4.5558    0.2152    1.0436 H       1  UNL1        0.2923
     20 H          -3.1383    2.3761   -1.3820 H       1  UNL1        0.2923
     21 H          -0.5663    1.4729   -1.6984 H       1  UNL1        0.0661
@<TRIPOS>BOND
     1     1     2    2
     2     2     3    1
     3     2     4    1
     4     4     5    2
     5     5     6    1
     6     6     7   ar
     7     7     8   ar
     8     8     9   ar
     9     9    10    1
    10     9    11   ar
    11    11    12    1
    12    11    13   ar
    13    13     6   ar
    14     3    14    1
    15     4    15    1
    16     5    16    1
    17     7    17    1
    18     8    18    1
    19    10    19    1
    20    12    20    1
    21    13    21    1
