
     RDKit          3D

 21 21  0  0  0  0  0  0  0  0999 V2000
    4.1309    0.6387   -0.8659 O   0  0  0  0  0  0  0  0  0  0  0  0
    3.7698   -0.1842    0.0062 C   0  0  0  0  0  0  0  0  0  0  0  0
    4.7187   -0.8773    0.7280 O   0  0  0  0  0  0  0  0  0  0  0  0
    2.3426   -0.4107    0.2598 C   0  0  0  0  0  0  0  0  0  0  0  0
    1.4422    0.2551   -0.4337 C   0  0  0  0  0  0  0  0  0  0  0  0
    0.0256    0.0417   -0.1941 C   0  0  0  0  0  0  0  0  0  0  0  0
   -0.5010   -0.8281    0.7290 C   0  0  0  0  0  0  0  0  0  0  0  0
   -1.8699   -0.9792    0.9024 C   0  0  0  0  0  0  0  0  0  0  0  0
   -2.7735   -0.2586    0.1512 C   0  0  0  0  0  0  0  0  0  0  0  0
   -4.1585   -0.4190    0.3345 O   0  0  0  0  0  0  0  0  0  0  0  0
   -2.2652    0.6156   -0.7765 C   0  0  0  0  0  0  0  0  0  0  0  0
   -3.1671    1.3592   -1.5520 O   0  0  0  0  0  0  0  0  0  0  0  0
   -0.9088    0.7676   -0.9506 C   0  0  0  0  0  0  0  0  0  0  0  0
    5.6714   -0.5173    0.8682 H   0  0  0  0  0  0  0  0  0  0  0  0
    2.0915   -1.1259    1.0171 H   0  0  0  0  0  0  0  0  0  0  0  0
    1.8141    0.9511   -1.1721 H   0  0  0  0  0  0  0  0  0  0  0  0
    0.1579   -1.4131    1.3397 H   0  0  0  0  0  0  0  0  0  0  0  0
   -2.2601   -1.6798    1.6457 H   0  0  0  0  0  0  0  0  0  0  0  0
   -4.5558    0.2152    1.0436 H   0  0  0  0  0  0  0  0  0  0  0  0
   -3.1383    2.3761   -1.3820 H   0  0  0  0  0  0  0  0  0  0  0  0
   -0.5663    1.4729   -1.6984 H   0  0  0  0  0  0  0  0  0  0  0  0
  1  2  2  0
  2  3  1  0
  2  4  1  0
  4  5  2  0
  5  6  1  0
  6  7  2  0
  7  8  1  0
  8  9  2  0
  9 10  1  0
  9 11  1  0
 11 12  1  0
 11 13  2  0
 13  6  1  0
  3 14  1  0
  4 15  1  0
  5 16  1  0
  7 17  1  0
  8 18  1  0
 10 19  1  0
 12 20  1  0
 13 21  1  0
M  END
$$$$
