@<TRIPOS>MOLECULE
*****
 61 63 0 0 0
SMALL
GASTEIGER

@<TRIPOS>ATOM
      1 C           5.0548    0.9563   -1.1760 C.3     1  UNL1       -0.0130
      2 N           5.8858   -0.1635   -1.4628 N.3     1  UNL1       -0.3071
      3 C           6.4884   -0.0348   -2.7694 C.3     1  UNL1       -0.0130
      4 C           5.1778   -1.4151   -1.3687 C.3     1  UNL1        0.0111
      5 C           4.7861   -1.7596    0.0431 C.3     1  UNL1        0.0117
      6 N           4.0750   -3.0229    0.1150 N.3     1  UNL1       -0.3000
      7 C           3.8235   -3.3561    1.5236 C.3     1  UNL1       -0.0124
      8 C           2.8112   -3.0102   -0.6066 C.3     1  UNL1        0.0238
      9 C           1.8124   -2.0931   -0.0302 C.ar    1  UNL1       -0.0333
     10 C           0.9635   -2.5400    0.9734 C.ar    1  UNL1       -0.0566
     11 C           0.0170   -1.6953    1.5223 C.ar    1  UNL1       -0.0493
     12 C          -0.1001   -0.3758    1.0745 C.ar    1  UNL1        0.0370
     13 C          -1.1051    0.5112    1.6748 C.2     1  UNL1        0.2483
     14 O          -1.8033    0.1053    2.6369 O.2     1  UNL1       -0.2699
     15 N          -1.3583    1.8376    1.2384 N.am    1  UNL1       -0.2808
     16 C          -2.3450    2.6688    1.8565 C.ar    1  UNL1        0.0459
     17 C          -2.0058    3.5073    2.8992 C.ar    1  UNL1       -0.0384
     18 C          -2.9517    4.2947    3.5094 C.ar    1  UNL1       -0.0416
     19 C          -4.2500    4.2256    3.0534 C.ar    1  UNL1        0.0418
     20 CL         -5.4616    5.2109    3.8088 Cl      1  UNL1       -0.0835
     21 C          -4.6042    3.3777    1.9958 C.ar    1  UNL1       -0.0295
     22 C          -3.6316    2.5928    1.3953 C.ar    1  UNL1        0.0596
     23 C          -3.9310    1.6995    0.2782 C.2     1  UNL1        0.2511
     24 O          -2.9842    1.0843   -0.2508 O.2     1  UNL1       -0.2697
     25 N          -5.2202    1.4843   -0.2436 N.am    1  UNL1       -0.2663
     26 C          -5.5810    0.6358   -1.3278 C.ar    1  UNL1        0.1252
     27 C          -4.7475   -0.0929   -2.0972 C.ar    1  UNL1       -0.0201
     28 C          -5.2471   -0.8896   -3.1230 C.ar    1  UNL1       -0.0387
     29 C          -6.6067   -0.9349   -3.3554 C.ar    1  UNL1        0.0592
     30 CL         -7.2918   -1.9079   -4.6224 Cl      1  UNL1       -0.0820
     31 C          -7.4548   -0.1866   -2.5640 C.ar    1  UNL1        0.0480
     32 N          -6.9167    0.5576   -1.5967 N.ar    1  UNL1       -0.2387
     33 C           0.7575    0.0223    0.0833 C.ar    1  UNL1       -0.0493
     34 C           1.7170   -0.8088   -0.4839 C.ar    1  UNL1       -0.0566
     35 H           5.6358    1.8454   -0.8154 H       1  UNL1        0.0391
     36 H           4.2638    0.7758   -0.4382 H       1  UNL1        0.0391
     37 H           4.5660    1.3055   -2.1253 H       1  UNL1        0.0391
     38 H           6.8346   -1.0293   -3.1620 H       1  UNL1        0.0391
     39 H           7.4056    0.6176   -2.7322 H       1  UNL1        0.0391
     40 H           5.7699    0.3394   -3.5238 H       1  UNL1        0.0391
     41 H           5.9123   -2.1901   -1.7561 H       1  UNL1        0.0439
     42 H           4.3631   -1.4082   -2.0943 H       1  UNL1        0.0439
     43 H           4.2941   -0.9540    0.5904 H       1  UNL1        0.0439
     44 H           5.7584   -1.9491    0.5866 H       1  UNL1        0.0439
     45 H           4.8351   -3.4015    1.9924 H       1  UNL1        0.0391
     46 H           3.2946   -4.3138    1.5302 H       1  UNL1        0.0391
     47 H           3.2799   -2.5227    1.9666 H       1  UNL1        0.0391
     48 H           2.4530   -4.0823   -0.5429 H       1  UNL1        0.0476
     49 H           3.0032   -2.8390   -1.6636 H       1  UNL1        0.0476
     50 H           1.0247   -3.5608    1.3476 H       1  UNL1        0.0621
     51 H          -0.6593   -2.0182    2.3060 H       1  UNL1        0.0625
     52 H          -0.8142    2.2200    0.4481 H       1  UNL1        0.1552
     53 H          -0.9917    3.5491    3.2414 H       1  UNL1        0.0637
     54 H          -2.6395    4.9346    4.3195 H       1  UNL1        0.0633
     55 H          -5.6279    3.3409    1.6543 H       1  UNL1        0.0640
     56 H          -5.9889    2.0282    0.2498 H       1  UNL1        0.1566
     57 H          -3.6994   -0.0764   -1.9456 H       1  UNL1        0.0652
     58 H          -4.5964   -1.4776   -3.7459 H       1  UNL1        0.0634
     59 H          -8.5215   -0.2329   -2.7576 H       1  UNL1        0.0845
     60 H           0.6967    1.0356   -0.2898 H       1  UNL1        0.0625
     61 H           2.3762   -0.4209   -1.2815 H       1  UNL1        0.0621
@<TRIPOS>BOND
     1     1     2    1
     2     2     3    1
     3     2     4    1
     4     4     5    1
     5     5     6    1
     6     6     7    1
     7     6     8    1
     8     8     9    1
     9     9    10   ar
    10    10    11   ar
    11    11    12   ar
    12    12    13    1
    13    13    14    2
    14    13    15   am
    15    15    16    1
    16    16    17   ar
    17    17    18   ar
    18    18    19   ar
    19    19    20    1
    20    19    21   ar
    21    21    22   ar
    22    22    23    1
    23    23    24    2
    24    23    25   am
    25    25    26    1
    26    26    27   ar
    27    27    28   ar
    28    28    29   ar
    29    29    30    1
    30    29    31   ar
    31    31    32   ar
    32    12    33   ar
    33    33    34   ar
    34    34     9   ar
    35    22    16   ar
    36    32    26   ar
    37     1    35    1
    38     1    36    1
    39     1    37    1
    40     3    38    1
    41     3    39    1
    42     3    40    1
    43     4    41    1
    44     4    42    1
    45     5    43    1
    46     5    44    1
    47     7    45    1
    48     7    46    1
    49     7    47    1
    50     8    48    1
    51     8    49    1
    52    10    50    1
    53    11    51    1
    54    15    52    1
    55    17    53    1
    56    18    54    1
    57    21    55    1
    58    25    56    1
    59    27    57    1
    60    28    58    1
    61    31    59    1
    62    33    60    1
    63    34    61    1
