
     RDKit          3D

 80 80  0  0  0  0  0  0  0  0999 V2000
    9.3721   -1.1836    1.7770 C   0  0  0  0  0  0  0  0  0  0  0  0
    9.8063    0.1672    2.2306 C   0  0  0  0  0  0  0  0  0  0  0  0
    9.3237    1.3455    1.4905 C   0  0  0  0  0  0  0  0  0  0  0  0
    7.8632    1.6301    1.4539 C   0  0  0  0  0  0  0  0  0  0  0  0
    7.0724    0.6128    0.8455 N   0  0  0  0  0  0  0  0  0  0  0  0
    5.6307    0.7554    0.7233 C   0  0  0  0  0  0  0  0  0  0  0  0
    5.1449    1.8146    1.1743 O   0  0  0  0  0  0  0  0  0  0  0  0
    4.8229   -0.2953    0.1024 C   0  0  2  0  0  0  0  0  0  0  0  0
    5.5088   -0.6294   -1.2438 C   0  0  0  0  0  0  0  0  0  0  0  0
    3.4350    0.0999   -0.2628 C   0  0  0  0  0  0  0  0  0  0  0  0
    2.5358    0.5450    0.8306 C   0  0  2  0  0  0  0  0  0  0  0  0
    2.3902   -0.4978    1.7770 O   0  0  0  0  0  0  0  0  0  0  0  0
    1.1450    0.8829    0.2920 C   0  0  1  0  0  0  0  0  0  0  0  0
    1.1462    1.9173   -0.6574 N   0  0  0  0  0  0  0  0  0  0  0  0
    0.3456   -0.3388    0.0124 C   0  0  0  0  0  0  0  0  0  0  0  0
   -0.9626   -0.1537   -0.5399 N   0  0  0  0  0  0  0  0  0  0  0  0
   -2.1163    0.1377    0.2878 C   0  0  0  0  0  0  0  0  0  0  0  0
   -2.0298    0.2439    1.5169 O   0  0  0  0  0  0  0  0  0  0  0  0
   -3.4264    0.3131   -0.3331 C   0  0  0  0  0  0  0  0  0  0  0  0
   -3.6745    1.4320   -1.0920 C   0  0  0  0  0  0  0  0  0  0  0  0
   -4.9108    1.5832   -1.7035 C   0  0  0  0  0  0  0  0  0  0  0  0
   -5.9269    0.6634   -1.5956 C   0  0  0  0  0  0  0  0  0  0  0  0
   -7.1513    0.8367   -2.2178 O   0  0  0  0  0  0  0  0  0  0  0  0
   -7.4750    1.9417   -3.0092 C   0  0  0  0  0  0  0  0  0  0  0  0
   -5.6761   -0.4809   -0.8206 C   0  0  0  0  0  0  0  0  0  0  0  0
   -6.6438   -1.4068   -0.6874 O   0  0  0  0  0  0  0  0  0  0  0  0
   -6.7518   -2.5858   -0.0036 C   0  0  0  0  0  0  0  0  0  0  0  0
   -6.6797   -2.5400    1.4834 C   0  0  0  0  0  0  0  0  0  0  0  0
   -7.8181   -1.6610    2.0366 C   0  0  0  0  0  0  0  0  0  0  0  0
   -7.6806   -0.3951    1.5286 O   0  0  0  0  0  0  0  0  0  0  0  0
   -8.6543    0.4794    1.9527 C   0  0  0  0  0  0  0  0  0  0  0  0
   -4.4493   -0.6304   -0.2139 C   0  0  0  0  0  0  0  0  0  0  0  0
   -1.1953   -0.3379   -1.9521 C   0  0  0  0  0  0  0  0  0  0  0  0
   -0.9400   -1.8153   -2.2999 C   0  0  0  0  0  0  0  0  0  0  0  0
   -0.3539    0.4732   -2.8738 C   0  0  0  0  0  0  0  0  0  0  0  0
    9.4834   -1.3038    0.6800 H   0  0  0  0  0  0  0  0  0  0  0  0
    8.3872   -1.5083    2.1634 H   0  0  0  0  0  0  0  0  0  0  0  0
   10.0854   -1.9805    2.2004 H   0  0  0  0  0  0  0  0  0  0  0  0
    9.6649    0.2834    3.3542 H   0  0  0  0  0  0  0  0  0  0  0  0
   10.9394    0.1731    2.1367 H   0  0  0  0  0  0  0  0  0  0  0  0
    9.7674    1.3161    0.4485 H   0  0  0  0  0  0  0  0  0  0  0  0
    9.8411    2.2616    1.9445 H   0  0  0  0  0  0  0  0  0  0  0  0
    7.7678    2.6120    0.8793 H   0  0  0  0  0  0  0  0  0  0  0  0
    7.5024    1.8971    2.4841 H   0  0  0  0  0  0  0  0  0  0  0  0
    7.4401   -0.2532    0.4486 H   0  0  0  0  0  0  0  0  0  0  0  0
    4.8343   -1.2510    0.6673 H   0  0  0  0  0  0  0  0  0  0  0  0
    5.8058    0.3511   -1.6583 H   0  0  0  0  0  0  0  0  0  0  0  0
    4.7797   -1.0776   -1.9258 H   0  0  0  0  0  0  0  0  0  0  0  0
    6.3997   -1.2730   -1.0273 H   0  0  0  0  0  0  0  0  0  0  0  0
    3.4665    0.9195   -1.0451 H   0  0  0  0  0  0  0  0  0  0  0  0
    2.9469   -0.8052   -0.7318 H   0  0  0  0  0  0  0  0  0  0  0  0
    2.8786    1.4273    1.3944 H   0  0  0  0  0  0  0  0  0  0  0  0
    2.1095   -0.1202    2.6394 H   0  0  0  0  0  0  0  0  0  0  0  0
    0.6396    1.3297    1.2384 H   0  0  0  0  0  0  0  0  0  0  0  0
    1.7851    1.8759   -1.4457 H   0  0  0  0  0  0  0  0  0  0  0  0
    0.9847    2.8342   -0.2408 H   0  0  0  0  0  0  0  0  0  0  0  0
    0.2903   -0.9655    0.9587 H   0  0  0  0  0  0  0  0  0  0  0  0
    0.9307   -0.9838   -0.6836 H   0  0  0  0  0  0  0  0  0  0  0  0
   -2.9019    2.2049   -1.2172 H   0  0  0  0  0  0  0  0  0  0  0  0
   -5.1388    2.4668   -2.3180 H   0  0  0  0  0  0  0  0  0  0  0  0
   -8.4425    1.7403   -3.5304 H   0  0  0  0  0  0  0  0  0  0  0  0
   -7.5370    2.8839   -2.4141 H   0  0  0  0  0  0  0  0  0  0  0  0
   -6.7000    2.0628   -3.8205 H   0  0  0  0  0  0  0  0  0  0  0  0
   -7.6319   -3.2062   -0.2694 H   0  0  0  0  0  0  0  0  0  0  0  0
   -5.8752   -3.2300   -0.3342 H   0  0  0  0  0  0  0  0  0  0  0  0
   -6.9183   -3.5532    1.9350 H   0  0  0  0  0  0  0  0  0  0  0  0
   -5.7434   -2.2227    1.9224 H   0  0  0  0  0  0  0  0  0  0  0  0
   -7.7732   -1.7353    3.1389 H   0  0  0  0  0  0  0  0  0  0  0  0
   -8.7836   -2.1291    1.6915 H   0  0  0  0  0  0  0  0  0  0  0  0
   -8.5088    1.5015    1.5177 H   0  0  0  0  0  0  0  0  0  0  0  0
   -9.6879    0.1626    1.7074 H   0  0  0  0  0  0  0  0  0  0  0  0
   -8.6051    0.5877    3.0544 H   0  0  0  0  0  0  0  0  0  0  0  0
   -4.1663   -1.4865    0.3929 H   0  0  0  0  0  0  0  0  0  0  0  0
   -2.2918   -0.2119   -2.2037 H   0  0  0  0  0  0  0  0  0  0  0  0
   -0.1293   -1.8741   -3.0480 H   0  0  0  0  0  0  0  0  0  0  0  0
   -1.8253   -2.3264   -2.6781 H   0  0  0  0  0  0  0  0  0  0  0  0
   -0.6075   -2.3615   -1.3791 H   0  0  0  0  0  0  0  0  0  0  0  0
   -0.6862    0.2508   -3.9406 H   0  0  0  0  0  0  0  0  0  0  0  0
   -0.5204    1.5507   -2.7668 H   0  0  0  0  0  0  0  0  0  0  0  0
    0.7176    0.2429   -2.7908 H   0  0  0  0  0  0  0  0  0  0  0  0
  1  2  1  0
  2  3  1  0
  3  4  1  0
  4  5  1  0
  5  6  1  0
  6  7  2  0
  6  8  1  0
  8  9  1  0
  8 10  1  0
 10 11  1  0
 11 12  1  0
 11 13  1  0
 13 14  1  0
 13 15  1  0
 15 16  1  0
 16 17  1  0
 17 18  2  0
 17 19  1  0
 19 20  2  0
 20 21  1  0
 21 22  2  0
 22 23  1  0
 23 24  1  0
 22 25  1  0
 25 26  1  0
 26 27  1  0
 27 28  1  0
 28 29  1  0
 29 30  1  0
 30 31  1  0
 25 32  2  0
 16 33  1  0
 33 34  1  0
 33 35  1  0
 32 19  1  0
  1 36  1  0
  1 37  1  0
  1 38  1  0
  2 39  1  0
  2 40  1  0
  3 41  1  0
  3 42  1  0
  4 43  1  0
  4 44  1  0
  5 45  1  0
  8 46  1  1
  9 47  1  0
  9 48  1  0
  9 49  1  0
 10 50  1  0
 10 51  1  0
 11 52  1  1
 12 53  1  0
 13 54  1  1
 14 55  1  0
 14 56  1  0
 15 57  1  0
 15 58  1  0
 20 59  1  0
 21 60  1  0
 24 61  1  0
 24 62  1  0
 24 63  1  0
 27 64  1  0
 27 65  1  0
 28 66  1  0
 28 67  1  0
 29 68  1  0
 29 69  1  0
 31 70  1  0
 31 71  1  0
 31 72  1  0
 32 73  1  0
 33 74  1  0
 34 75  1  0
 34 76  1  0
 34 77  1  0
 35 78  1  0
 35 79  1  0
 35 80  1  0
M  END
$$$$
