@<TRIPOS>MOLECULE
*****
 80 80 0 0 0
SMALL
GASTEIGER

@<TRIPOS>ATOM
      1 C           9.3721   -1.1836    1.7770 C.3     1  UNL1       -0.0652
      2 C           9.8063    0.1672    2.2306 C.3     1  UNL1       -0.0545
      3 C           9.3237    1.3455    1.4905 C.3     1  UNL1       -0.0376
      4 C           7.8632    1.6301    1.4539 C.3     1  UNL1        0.0116
      5 N           7.0724    0.6128    0.8455 N.am    1  UNL1       -0.3151
      6 C           5.6307    0.7554    0.7233 C.2     1  UNL1        0.2159
      7 O           5.1449    1.8146    1.1743 O.2     1  UNL1       -0.2755
      8 C           4.8229   -0.2953    0.1024 C.3     1  UNL1        0.0351
      9 C           5.5088   -0.6294   -1.2438 C.3     1  UNL1       -0.0540
     10 C           3.4350    0.0999   -0.2628 C.3     1  UNL1       -0.0145
     11 C           2.5358    0.5450    0.8306 C.3     1  UNL1        0.0725
     12 O           2.3902   -0.4978    1.7770 O.3     1  UNL1       -0.3902
     13 C           1.1450    0.8829    0.2920 C.3     1  UNL1        0.0471
     14 N           1.1462    1.9173   -0.6574 N.3     1  UNL1       -0.3239
     15 C           0.3456   -0.3388    0.0124 C.3     1  UNL1        0.0328
     16 N          -0.9626   -0.1537   -0.5399 N.am    1  UNL1       -0.2934
     17 C          -2.1163    0.1377    0.2878 C.2     1  UNL1        0.2470
     18 O          -2.0298    0.2439    1.5169 O.2     1  UNL1       -0.2700
     19 C          -3.4264    0.3131   -0.3331 C.ar    1  UNL1        0.0406
     20 C          -3.6745    1.4320   -1.0920 C.ar    1  UNL1       -0.0459
     21 C          -4.9108    1.5832   -1.7035 C.ar    1  UNL1       -0.0156
     22 C          -5.9269    0.6634   -1.5956 C.ar    1  UNL1        0.1615
     23 O          -7.1513    0.8367   -2.2178 O.3     1  UNL1       -0.4915
     24 C          -7.4750    1.9417   -3.0092 C.3     1  UNL1        0.0790
     25 C          -5.6761   -0.4809   -0.8206 C.ar    1  UNL1        0.1626
     26 O          -6.6438   -1.4068   -0.6874 O.3     1  UNL1       -0.4882
     27 C          -6.7518   -2.5858   -0.0036 C.3     1  UNL1        0.0918
     28 C          -6.6797   -2.5400    1.4834 C.3     1  UNL1        0.0049
     29 C          -7.8181   -1.6610    2.0366 C.3     1  UNL1        0.0504
     30 O          -7.6806   -0.3951    1.5286 O.3     1  UNL1       -0.3829
     31 C          -8.6543    0.4794    1.9527 C.3     1  UNL1        0.0364
     32 C          -4.4493   -0.6304   -0.2139 C.ar    1  UNL1       -0.0042
     33 C          -1.1953   -0.3379   -1.9521 C.3     1  UNL1        0.0207
     34 C          -0.9400   -1.8153   -2.2999 C.3     1  UNL1       -0.0467
     35 C          -0.3539    0.4732   -2.8738 C.3     1  UNL1       -0.0467
     36 H           9.4834   -1.3038    0.6800 H       1  UNL1        0.0230
     37 H           8.3872   -1.5083    2.1634 H       1  UNL1        0.0230
     38 H          10.0854   -1.9805    2.2004 H       1  UNL1        0.0230
     39 H           9.6649    0.2834    3.3542 H       1  UNL1        0.0263
     40 H          10.9394    0.1731    2.1367 H       1  UNL1        0.0263
     41 H           9.7674    1.3161    0.4485 H       1  UNL1        0.0280
     42 H           9.8411    2.2616    1.9445 H       1  UNL1        0.0280
     43 H           7.7678    2.6120    0.8793 H       1  UNL1        0.0462
     44 H           7.5024    1.8971    2.4841 H       1  UNL1        0.0462
     45 H           7.4401   -0.2532    0.4486 H       1  UNL1        0.1487
     46 H           4.8343   -1.2510    0.6673 H       1  UNL1        0.0392
     47 H           5.8058    0.3511   -1.6583 H       1  UNL1        0.0237
     48 H           4.7797   -1.0776   -1.9258 H       1  UNL1        0.0237
     49 H           6.3997   -1.2730   -1.0273 H       1  UNL1        0.0237
     50 H           3.4665    0.9195   -1.0451 H       1  UNL1        0.0298
     51 H           2.9469   -0.8052   -0.7318 H       1  UNL1        0.0298
     52 H           2.8786    1.4273    1.3944 H       1  UNL1        0.0609
     53 H           2.1095   -0.1202    2.6394 H       1  UNL1        0.2098
     54 H           0.6396    1.3297    1.2384 H       1  UNL1        0.0499
     55 H           1.7851    1.8759   -1.4457 H       1  UNL1        0.1186
     56 H           0.9847    2.8342   -0.2408 H       1  UNL1        0.1186
     57 H           0.2903   -0.9655    0.9587 H       1  UNL1        0.0481
     58 H           0.9307   -0.9838   -0.6836 H       1  UNL1        0.0481
     59 H          -2.9019    2.2049   -1.2172 H       1  UNL1        0.0626
     60 H          -5.1388    2.4668   -2.3180 H       1  UNL1        0.0655
     61 H          -8.4425    1.7403   -3.5304 H       1  UNL1        0.0660
     62 H          -7.5370    2.8839   -2.4141 H       1  UNL1        0.0660
     63 H          -6.7000    2.0628   -3.8205 H       1  UNL1        0.0660
     64 H          -7.6319   -3.2062   -0.2694 H       1  UNL1        0.0697
     65 H          -5.8752   -3.2300   -0.3342 H       1  UNL1        0.0697
     66 H          -6.9183   -3.5532    1.9350 H       1  UNL1        0.0320
     67 H          -5.7434   -2.2227    1.9224 H       1  UNL1        0.0320
     68 H          -7.7732   -1.7353    3.1389 H       1  UNL1        0.0561
     69 H          -8.7836   -2.1291    1.6915 H       1  UNL1        0.0561
     70 H          -8.5088    1.5015    1.5177 H       1  UNL1        0.0523
     71 H          -9.6879    0.1626    1.7074 H       1  UNL1        0.0523
     72 H          -8.6051    0.5877    3.0544 H       1  UNL1        0.0523
     73 H          -4.1663   -1.4865    0.3929 H       1  UNL1        0.0663
     74 H          -2.2918   -0.2119   -2.2037 H       1  UNL1        0.0495
     75 H          -0.1293   -1.8741   -3.0480 H       1  UNL1        0.0247
     76 H          -1.8253   -2.3264   -2.6781 H       1  UNL1        0.0247
     77 H          -0.6075   -2.3615   -1.3791 H       1  UNL1        0.0247
     78 H          -0.6862    0.2508   -3.9406 H       1  UNL1        0.0247
     79 H          -0.5204    1.5507   -2.7668 H       1  UNL1        0.0247
     80 H           0.7176    0.2429   -2.7908 H       1  UNL1        0.0247
@<TRIPOS>BOND
     1     1     2    1
     2     2     3    1
     3     3     4    1
     4     4     5    1
     5     5     6   am
     6     6     7    2
     7     6     8    1
     8     8     9    1
     9     8    10    1
    10    10    11    1
    11    11    12    1
    12    11    13    1
    13    13    14    1
    14    13    15    1
    15    15    16    1
    16    16    17   am
    17    17    18    2
    18    17    19    1
    19    19    20   ar
    20    20    21   ar
    21    21    22   ar
    22    22    23    1
    23    23    24    1
    24    22    25   ar
    25    25    26    1
    26    26    27    1
    27    27    28    1
    28    28    29    1
    29    29    30    1
    30    30    31    1
    31    25    32   ar
    32    16    33    1
    33    33    34    1
    34    33    35    1
    35    32    19   ar
    36     1    36    1
    37     1    37    1
    38     1    38    1
    39     2    39    1
    40     2    40    1
    41     3    41    1
    42     3    42    1
    43     4    43    1
    44     4    44    1
    45     5    45    1
    46     8    46    1
    47     9    47    1
    48     9    48    1
    49     9    49    1
    50    10    50    1
    51    10    51    1
    52    11    52    1
    53    12    53    1
    54    13    54    1
    55    14    55    1
    56    14    56    1
    57    15    57    1
    58    15    58    1
    59    20    59    1
    60    21    60    1
    61    24    61    1
    62    24    62    1
    63    24    63    1
    64    27    64    1
    65    27    65    1
    66    28    66    1
    67    28    67    1
    68    29    68    1
    69    29    69    1
    70    31    70    1
    71    31    71    1
    72    31    72    1
    73    32    73    1
    74    33    74    1
    75    34    75    1
    76    34    76    1
    77    34    77    1
    78    35    78    1
    79    35    79    1
    80    35    80    1
