@<TRIPOS>MOLECULE
*****
 67 71 0 0 0
SMALL
GASTEIGER

@<TRIPOS>ATOM
      1 C          -0.2443   -1.4537   -2.6643 C.3     1  UNL1       -0.0586
      2 C           0.4719   -0.3186   -2.0171 C.3     1  UNL1       -0.0186
      3 C          -0.0856    1.0578   -2.2457 C.3     1  UNL1       -0.0586
      4 C           0.9678   -0.5752   -0.6464 C.ar    1  UNL1       -0.0023
      5 C           2.2762   -0.9048   -0.2720 C.ar    1  UNL1        0.0621
      6 C           3.3897   -1.1035   -1.1766 C.ar    1  UNL1        0.2518
      7 N           3.5104   -1.0525   -2.5062 N.ar    1  UNL1       -0.1058
      8 N           4.7408   -1.3086   -2.8911 N.ar    1  UNL1       -0.0924
      9 C           5.4443   -1.5348   -1.7603 C.ar    1  UNL1        0.3081
     10 N           6.8386   -1.8562   -1.6696 N.pl3   1  UNL1       -0.2976
     11 C           7.4096   -2.0484   -0.3614 C.3     1  UNL1        0.0133
     12 C           7.2907   -0.7586    0.4165 C.3     1  UNL1       -0.0362
     13 C           8.0463    0.3113   -0.3511 C.3     1  UNL1       -0.0392
     14 C           7.9881    1.6507    0.3484 C.3     1  UNL1       -0.0069
     15 N           8.5554    1.6329    1.6586 N.3     1  UNL1       -0.3300
     16 O           4.6201   -1.4069   -0.7606 O.2     1  UNL1       -0.4048
     17 C           2.3487   -1.0239    1.0917 C.ar    1  UNL1        0.0425
     18 N           1.1287   -0.7802    1.5739 N.ar    1  UNL1       -0.2341
     19 N           0.7130   -0.7659    2.8381 N.ar    1  UNL1       -0.1548
     20 C          -0.5584   -0.4871    3.1649 C.ar    1  UNL1        0.1388
     21 N          -1.4076   -0.2223    2.1756 N.ar    1  UNL1       -0.2167
     22 C          -1.0301   -0.2246    0.8459 C.ar    1  UNL1        0.1507
     23 N          -2.0299    0.0491   -0.0943 N.pl3   1  UNL1       -0.2954
     24 C          -3.1979    0.7667    0.3467 C.ar    1  UNL1        0.0690
     25 C          -4.4484    0.2379    0.2664 C.ar    1  UNL1       -0.0228
     26 C          -5.6054    0.8833    0.6699 C.ar    1  UNL1        0.0737
     27 C          -6.8988    0.2315    0.5231 C.2     1  UNL1        0.2471
     28 O          -6.9005   -1.0274    0.2219 O.2     1  UNL1       -0.2701
     29 N          -8.1591    0.8039    0.6675 N.am    1  UNL1       -0.3084
     30 C          -9.3899    0.0127    0.4934 C.3     1  UNL1        0.0235
     31 C         -10.6025    0.7097   -0.0297 C.3     1  UNL1       -0.0328
     32 C         -10.5142    0.4310    1.4189 C.3     1  UNL1       -0.0328
     33 C          -5.4693    2.1352    1.1825 C.ar    1  UNL1        0.1383
     34 F          -6.5303    2.8479    1.6171 F       1  UNL1       -0.2046
     35 C          -4.2001    2.7337    1.2899 C.ar    1  UNL1        0.0114
     36 C          -3.0793    2.0435    0.8714 C.ar    1  UNL1        0.1472
     37 F          -1.8791    2.6587    0.9944 F       1  UNL1       -0.2035
     38 C           0.2639   -0.5065    0.5504 C.ar    1  UNL1        0.1095
     39 H          -1.0752   -1.1069   -3.3445 H       1  UNL1        0.0235
     40 H           0.3821   -2.1054   -3.3068 H       1  UNL1        0.0235
     41 H          -0.6592   -2.1188   -1.8605 H       1  UNL1        0.0235
     42 H           1.4559   -0.2680   -2.6343 H       1  UNL1        0.0344
     43 H          -1.0627    1.0975   -2.7323 H       1  UNL1        0.0235
     44 H          -0.0445    1.5942   -1.2539 H       1  UNL1        0.0235
     45 H           0.5758    1.7078   -2.8975 H       1  UNL1        0.0235
     46 H           7.3822   -1.9371   -2.5624 H       1  UNL1        0.1504
     47 H           8.4770   -2.3568   -0.4211 H       1  UNL1        0.0462
     48 H           6.8390   -2.8135    0.2301 H       1  UNL1        0.0462
     49 H           6.2441   -0.4326    0.5503 H       1  UNL1        0.0281
     50 H           7.7169   -0.8904    1.4412 H       1  UNL1        0.0281
     51 H           7.5968    0.4184   -1.3577 H       1  UNL1        0.0278
     52 H           9.1110    0.0337   -0.4929 H       1  UNL1        0.0278
     53 H           8.4767    2.3979   -0.3067 H       1  UNL1        0.0422
     54 H           6.9118    1.9582    0.4341 H       1  UNL1        0.0422
     55 H           7.8685    1.8242    2.4127 H       1  UNL1        0.1182
     56 H           9.1897    0.8513    1.8374 H       1  UNL1        0.1182
     57 H           3.2078   -1.2655    1.6895 H       1  UNL1        0.0838
     58 H          -0.8882   -0.4766    4.2074 H       1  UNL1        0.1066
     59 H          -2.0258   -0.2537   -1.0484 H       1  UNL1        0.1537
     60 H          -4.5662   -0.7628   -0.1412 H       1  UNL1        0.0645
     61 H          -8.2309    1.8113    0.8949 H       1  UNL1        0.1493
     62 H          -9.2318   -1.0535    0.2540 H       1  UNL1        0.0498
     63 H         -10.4577    1.7435   -0.4239 H       1  UNL1        0.0284
     64 H         -11.3171    0.0916   -0.6079 H       1  UNL1        0.0284
     65 H         -10.3507    1.2841    2.1137 H       1  UNL1        0.0284
     66 H         -11.1451   -0.3968    1.8430 H       1  UNL1        0.0284
     67 H          -4.1536    3.7259    1.7035 H       1  UNL1        0.0676
@<TRIPOS>BOND
     1     1     2    1
     2     2     3    1
     3     2     4    1
     4     4     5   ar
     5     5     6    1
     6     6     7   ar
     7     7     8   ar
     8     8     9   ar
     9     9    10    1
    10    10    11    1
    11    11    12    1
    12    12    13    1
    13    13    14    1
    14    14    15    1
    15     9    16   ar
    16     5    17   ar
    17    17    18   ar
    18    18    19   ar
    19    19    20   ar
    20    20    21   ar
    21    21    22   ar
    22    22    23    1
    23    23    24    1
    24    24    25   ar
    25    25    26   ar
    26    26    27    1
    27    27    28    2
    28    27    29   am
    29    29    30    1
    30    30    31    1
    31    31    32    1
    32    26    33   ar
    33    33    34    1
    34    33    35   ar
    35    35    36   ar
    36    36    37    1
    37    22    38   ar
    38    38     4   ar
    39    16     6   ar
    40    38    18   ar
    41    36    24   ar
    42    32    30    1
    43     1    39    1
    44     1    40    1
    45     1    41    1
    46     2    42    1
    47     3    43    1
    48     3    44    1
    49     3    45    1
    50    10    46    1
    51    11    47    1
    52    11    48    1
    53    12    49    1
    54    12    50    1
    55    13    51    1
    56    13    52    1
    57    14    53    1
    58    14    54    1
    59    15    55    1
    60    15    56    1
    61    17    57    1
    62    20    58    1
    63    23    59    1
    64    25    60    1
    65    29    61    1
    66    30    62    1
    67    31    63    1
    68    31    64    1
    69    32    65    1
    70    32    66    1
    71    35    67    1
