
     RDKit          3D

 34 35  0  0  0  0  0  0  0  0999 V2000
    5.6690    1.9721   -0.4937 N   0  0  0  0  0  0  0  0  0  0  0  0
    5.4205    0.3123   -0.0951 S   0  0  0  0  0  0  0  0  0  0  0  0
    6.1603   -0.5400   -1.0810 O   0  0  0  0  0  0  0  0  0  0  0  0
    6.0740    0.0783    1.2575 O   0  0  0  0  0  0  0  0  0  0  0  0
    3.7329   -0.0676   -0.0221 C   0  0  0  0  0  0  0  0  0  0  0  0
    3.0695    0.0651    1.1833 C   0  0  0  0  0  0  0  0  0  0  0  0
    1.7223   -0.2148    1.3350 C   0  0  0  0  0  0  0  0  0  0  0  0
    1.0015   -0.6397    0.2659 C   0  0  0  0  0  0  0  0  0  0  0  0
    1.6715   -0.7695   -0.9333 C   0  0  0  0  0  0  0  0  0  0  0  0
    3.0107   -0.4948   -1.0991 C   0  0  0  0  0  0  0  0  0  0  0  0
   -0.4366   -0.9732    0.2787 C   0  0  0  0  0  0  0  0  0  0  0  0
   -1.0279   -1.3698   -0.7843 O   0  0  0  0  0  0  0  0  0  0  0  0
   -1.1956   -0.8569    1.4884 N   0  0  0  0  0  0  0  0  0  0  0  0
   -2.5620   -1.2172    1.3060 C   0  0  0  0  0  0  0  0  0  0  0  0
   -3.3143   -0.4008    0.3492 C   0  0  0  0  0  0  0  0  0  0  0  0
   -2.7216    0.7302   -0.1454 C   0  0  0  0  0  0  0  0  0  0  0  0
   -3.4135    1.5325   -1.0516 C   0  0  0  0  0  0  0  0  0  0  0  0
   -4.6994    1.1217   -1.4063 C   0  0  0  0  0  0  0  0  0  0  0  0
   -5.3296   -0.0093   -0.9305 C   0  0  0  0  0  0  0  0  0  0  0  0
   -6.5781   -0.3292   -1.3318 F   0  0  0  0  0  0  0  0  0  0  0  0
   -4.5932   -0.7668   -0.0335 C   0  0  0  0  0  0  0  0  0  0  0  0
   -5.1655   -1.8900    0.4654 F   0  0  0  0  0  0  0  0  0  0  0  0
    5.7042    2.1456   -1.5109 H   0  0  0  0  0  0  0  0  0  0  0  0
    4.9207    2.5831   -0.0506 H   0  0  0  0  0  0  0  0  0  0  0  0
    3.6316    0.4071    2.0629 H   0  0  0  0  0  0  0  0  0  0  0  0
    1.2154   -0.1086    2.2771 H   0  0  0  0  0  0  0  0  0  0  0  0
    1.1254   -1.1112   -1.8249 H   0  0  0  0  0  0  0  0  0  0  0  0
    3.5183   -0.6061   -2.0632 H   0  0  0  0  0  0  0  0  0  0  0  0
   -0.7675   -0.5407    2.3863 H   0  0  0  0  0  0  0  0  0  0  0  0
   -2.7402   -2.2750    1.0316 H   0  0  0  0  0  0  0  0  0  0  0  0
   -3.0645   -1.0740    2.2926 H   0  0  0  0  0  0  0  0  0  0  0  0
   -1.7460    1.1149    0.0780 H   0  0  0  0  0  0  0  0  0  0  0  0
   -3.0314    2.4532   -1.5046 H   0  0  0  0  0  0  0  0  0  0  0  0
   -5.2612    1.7390   -2.1183 H   0  0  0  0  0  0  0  0  0  0  0  0
  1  2  1  0
  2  3  2  0
  2  4  2  0
  2  5  1  0
  5  6  2  0
  6  7  1  0
  7  8  2  0
  8  9  1  0
  9 10  2  0
  8 11  1  0
 11 12  2  0
 11 13  1  0
 13 14  1  0
 14 15  1  0
 15 16  2  0
 16 17  1  0
 17 18  2  0
 18 19  1  0
 19 20  1  0
 19 21  2  0
 21 22  1  0
 10  5  1  0
 21 15  1  0
  1 23  1  0
  1 24  1  0
  6 25  1  0
  7 26  1  0
  9 27  1  0
 10 28  1  0
 13 29  1  0
 14 30  1  0
 14 31  1  0
 16 32  1  0
 17 33  1  0
 18 34  1  0
M  END
$$$$
