
     RDKit          3D

 37 40  0  0  0  0  0  0  0  0999 V2000
   -2.5659   -2.3121   -0.6718 O   0  0  0  0  0  0  0  0  0  0  0  0
   -2.3553   -0.9718   -0.3405 C   0  0  0  0  0  0  0  0  0  0  0  0
   -1.1082   -0.3405   -0.2177 C   0  0  0  0  0  0  0  0  0  0  0  0
   -0.0185   -1.2828   -0.4872 C   0  0  0  0  0  0  0  0  0  0  0  0
    1.3379   -0.7336   -0.3996 C   0  0  0  0  0  0  0  0  0  0  0  0
    2.0433   -0.4471    0.7449 C   0  0  0  0  0  0  0  0  0  0  0  0
    1.4265   -0.6889    1.9430 O   0  0  0  0  0  0  0  0  0  0  0  0
    3.3202    0.0630    0.5979 C   0  0  0  0  0  0  0  0  0  0  0  0
    3.9267    0.3007   -0.6233 C   0  0  0  0  0  0  0  0  0  0  0  0
    3.2315    0.0189   -1.6897 O   0  0  0  0  0  0  0  0  0  0  0  0
    2.0138   -0.4677   -1.5959 C   0  0  0  0  0  0  0  0  0  0  0  0
    1.4430   -0.7001   -2.6891 O   0  0  0  0  0  0  0  0  0  0  0  0
    5.2052    0.8109   -0.7135 C   0  0  0  0  0  0  0  0  0  0  0  0
    5.9451    1.1104    0.4288 C   0  0  0  0  0  0  0  0  0  0  0  0
    5.3236    0.8666    1.6507 C   0  0  0  0  0  0  0  0  0  0  0  0
    4.0473    0.3574    1.7412 C   0  0  0  0  0  0  0  0  0  0  0  0
   -1.1112    0.9872    0.1167 C   0  0  0  0  0  0  0  0  0  0  0  0
    0.0410    1.4644    0.2034 O   0  0  0  0  0  0  0  0  0  0  0  0
   -2.2318    1.6405    0.3135 O   0  0  0  0  0  0  0  0  0  0  0  0
   -3.4212    1.0720    0.2047 C   0  0  0  0  0  0  0  0  0  0  0  0
   -3.5287   -0.2607   -0.1277 C   0  0  0  0  0  0  0  0  0  0  0  0
   -4.7884   -0.8462   -0.2392 C   0  0  0  0  0  0  0  0  0  0  0  0
   -5.9143   -0.0849   -0.0157 C   0  0  0  0  0  0  0  0  0  0  0  0
   -5.8371    1.2553    0.3198 C   0  0  0  0  0  0  0  0  0  0  0  0
   -4.5639    1.8121    0.4237 C   0  0  0  0  0  0  0  0  0  0  0  0
   -1.9179   -3.0335   -0.3993 H   0  0  0  0  0  0  0  0  0  0  0  0
   -0.2063   -1.7576   -1.4926 H   0  0  0  0  0  0  0  0  0  0  0  0
   -0.1711   -2.1400    0.2321 H   0  0  0  0  0  0  0  0  0  0  0  0
    1.3202   -1.6163    2.3358 H   0  0  0  0  0  0  0  0  0  0  0  0
    5.5978    0.9642   -1.7089 H   0  0  0  0  0  0  0  0  0  0  0  0
    6.9244    1.5000    0.2637 H   0  0  0  0  0  0  0  0  0  0  0  0
    5.9482    1.1190    2.4998 H   0  0  0  0  0  0  0  0  0  0  0  0
    3.6212    0.1906    2.7196 H   0  0  0  0  0  0  0  0  0  0  0  0
   -4.8600   -1.8969   -0.5016 H   0  0  0  0  0  0  0  0  0  0  0  0
   -6.8469   -0.6062   -0.1208 H   0  0  0  0  0  0  0  0  0  0  0  0
   -6.7556    1.8071    0.4860 H   0  0  0  0  0  0  0  0  0  0  0  0
   -4.5147    2.8465    0.6827 H   0  0  0  0  0  0  0  0  0  0  0  0
  1  2  1  0
  2  3  2  0
  3  4  1  0
  4  5  1  0
  5  6  2  0
  6  7  1  0
  6  8  1  0
  8  9  2  0
  9 10  1  0
 10 11  1  0
 11 12  2  0
  9 13  1  0
 13 14  2  0
 14 15  1  0
 15 16  2  0
  3 17  1  0
 17 18  2  0
 17 19  1  0
 19 20  1  0
 20 21  2  0
 21 22  1  0
 22 23  2  0
 23 24  1  0
 24 25  2  0
 21  2  1  0
 11  5  1  0
 25 20  1  0
 16  8  1  0
  1 26  1  0
  4 27  1  0
  4 28  1  0
  7 29  1  0
 13 30  1  0
 14 31  1  0
 15 32  1  0
 16 33  1  0
 22 34  1  0
 23 35  1  0
 24 36  1  0
 25 37  1  0
M  END
$$$$
