@<TRIPOS>MOLECULE
*****
 28 29 0 0 0
SMALL
GASTEIGER

@<TRIPOS>ATOM
      1 C          -1.6290   -3.0081   -0.3537 C.3     1  UNL1        0.0805
      2 O          -0.9177   -1.9544    0.2405 O.3     1  UNL1       -0.4774
      3 C          -1.3662   -0.6455    0.3575 C.ar    1  UNL1        0.2570
      4 N          -2.5495   -0.1894   -0.0805 N.ar    1  UNL1       -0.1954
      5 C          -2.9466    1.0848    0.0518 C.ar    1  UNL1        0.1316
      6 C          -4.2555    1.5197   -0.4501 C.3     1  UNL1       -0.0044
      7 N          -2.1022    1.9518    0.6616 N.ar    1  UNL1       -0.2173
      8 C          -0.8897    1.5482    1.1263 C.ar    1  UNL1        0.1727
      9 CL          0.1066    2.7686    1.8949 Cl      1  UNL1       -0.0583
     10 C          -0.4881    0.2224    0.9832 C.ar    1  UNL1        0.1907
     11 N           0.8031   -0.0904    1.5073 N.pl3   1  UNL1       -0.1993
     12 C           1.9717    0.0255    0.6714 C.cat   1  UNL1        0.3696
     13 N           1.9008    0.5867   -0.5045 N.2     1  UNL1       -0.1140
     14 C           3.2227    0.5646   -1.1192 C.3     1  UNL1        0.1328
     15 C           4.1872    0.3389    0.0522 C.3     1  UNL1        0.0920
     16 N           3.3196   -0.4114    0.9390 N.pl3   1  UNL1       -0.2350
     17 H          -1.3481   -3.2116   -1.3882 H       1  UNL1        0.0660
     18 H          -1.4724   -3.9209    0.2821 H       1  UNL1        0.0660
     19 H          -2.7278   -2.7671   -0.2626 H       1  UNL1        0.0660
     20 H          -5.0192    0.8097   -0.0312 H       1  UNL1        0.0308
     21 H          -4.4539    2.5521   -0.0582 H       1  UNL1        0.0308
     22 H          -4.2434    1.5402   -1.5550 H       1  UNL1        0.0308
     23 H           0.9950   -0.4153    2.4992 H       1  UNL1        0.2514
     24 H           3.3029   -0.3658   -1.7344 H       1  UNL1        0.0723
     25 H           3.4652    1.4835   -1.6563 H       1  UNL1        0.0723
     26 H           5.0930   -0.1893   -0.2527 H       1  UNL1        0.0665
     27 H           4.5015    1.3062    0.5059 H       1  UNL1        0.0665
     28 H           3.5399   -1.1338    1.6511 H       1  UNL1        0.2445
@<TRIPOS>BOND
     1     1     2    1
     2     2     3    1
     3     3     4   ar
     4     4     5   ar
     5     5     6    1
     6     5     7   ar
     7     7     8   ar
     8     8     9    1
     9     8    10   ar
    10    10    11    1
    11    11    12    1
    12    12    13    2
    13    13    14    1
    14    14    15    1
    15    15    16    1
    16    10     3   ar
    17    16    12    1
    18     1    17    1
    19     1    18    1
    20     1    19    1
    21     6    20    1
    22     6    21    1
    23     6    22    1
    24    11    23    1
    25    14    24    1
    26    14    25    1
    27    15    26    1
    28    15    27    1
    29    16    28    1
