@<TRIPOS>MOLECULE
*****
 51 55 0 0 0
SMALL
GASTEIGER

@<TRIPOS>ATOM
      1 C          -4.1303   -1.5216   -1.5696 C.3     1  UNL1        0.0166
      2 N          -2.9539   -1.0957   -0.8142 N.ar    1  UNL1       -0.2957
      3 C          -1.7364   -1.6084   -1.0893 C.ar    1  UNL1        0.2544
      4 O          -1.6624   -2.4600   -2.0149 O.2     1  UNL1       -0.2676
      5 C          -0.5843   -1.2541   -0.4196 C.ar    1  UNL1        0.0249
      6 C          -0.6902   -0.3205    0.5900 C.ar    1  UNL1        0.0488
      7 N           0.4119    0.1202    1.3684 N.pl3   1  UNL1       -0.3126
      8 C           1.6992   -0.4364    1.1773 C.ar    1  UNL1        0.0506
      9 C           2.6761    0.4621    0.7325 C.ar    1  UNL1       -0.0270
     10 C           3.9763    0.0611    0.5181 C.ar    1  UNL1        0.0385
     11 C           4.9752    1.0091    0.0563 C.2     1  UNL1        0.2443
     12 O           4.6234    2.2129   -0.1445 O.2     1  UNL1       -0.2702
     13 N           6.3326    0.7107   -0.1961 N.am    1  UNL1       -0.3085
     14 C           7.2803    1.7230   -0.6609 C.3     1  UNL1        0.0235
     15 C           8.6790    1.5968   -0.1184 C.3     1  UNL1       -0.0328
     16 C           8.4143    1.2935   -1.5346 C.3     1  UNL1       -0.0328
     17 C           4.2566   -1.2624    0.7643 C.ar    1  UNL1       -0.0481
     18 C           3.3112   -2.1621    1.2023 C.ar    1  UNL1       -0.0409
     19 C           2.0294   -1.7522    1.4108 C.ar    1  UNL1        0.0621
     20 CL          0.7672   -2.8205    1.9956 Cl      1  UNL1       -0.0816
     21 C          -1.9558    0.1929    0.8539 C.ar    1  UNL1        0.0586
     22 C          -2.3525    1.1153    1.7802 C.ar    1  UNL1        0.0608
     23 N          -3.6739    1.2712    1.6346 N.ar    1  UNL1       -0.1722
     24 N          -4.1295    0.4826    0.6511 N.ar    1  UNL1       -0.2156
     25 C          -5.5023    0.4376    0.2710 C.ar    1  UNL1        0.0678
     26 C          -5.9818    1.0182   -0.8816 C.ar    1  UNL1       -0.0335
     27 C          -7.3218    0.9707   -1.2333 C.ar    1  UNL1       -0.0244
     28 C          -8.2326    0.3259   -0.4198 C.ar    1  UNL1        0.1235
     29 F          -9.5452    0.2728   -0.7529 F       1  UNL1       -0.2055
     30 C          -7.7785   -0.2655    0.7431 C.ar    1  UNL1       -0.0244
     31 C          -6.4353   -0.2104    1.0828 C.ar    1  UNL1       -0.0335
     32 C          -3.0787   -0.1894    0.1598 C.ar    1  UNL1        0.1485
     33 H          -4.3016   -0.7914   -2.3665 H       1  UNL1        0.0457
     34 H          -3.8811   -2.5105   -2.0162 H       1  UNL1        0.0457
     35 H          -4.9946   -1.7025   -0.9104 H       1  UNL1        0.0457
     36 H           0.3830   -1.6756   -0.6722 H       1  UNL1        0.0691
     37 H           0.2848    0.8555    2.0858 H       1  UNL1        0.1522
     38 H           2.4411    1.4970    0.5437 H       1  UNL1        0.0644
     39 H           6.6582   -0.2648   -0.0430 H       1  UNL1        0.1493
     40 H           6.9196    2.7465   -0.8170 H       1  UNL1        0.0498
     41 H           9.2326    2.5392    0.0969 H       1  UNL1        0.0284
     42 H           8.8918    0.7916    0.6151 H       1  UNL1        0.0284
     43 H           8.7660    2.0116   -2.3265 H       1  UNL1        0.0284
     44 H           8.3412    0.2505   -1.9162 H       1  UNL1        0.0284
     45 H           5.2864   -1.6005    0.5989 H       1  UNL1        0.0625
     46 H           3.5779   -3.1805    1.3797 H       1  UNL1        0.0633
     47 H          -1.6845    1.6116    2.4908 H       1  UNL1        0.0855
     48 H          -5.2720    1.5232   -1.5199 H       1  UNL1        0.0640
     49 H          -7.7087    1.4233   -2.1359 H       1  UNL1        0.0647
     50 H          -8.5229   -0.7602    1.3524 H       1  UNL1        0.0647
     51 H          -6.1045   -0.6812    1.9986 H       1  UNL1        0.0640
@<TRIPOS>BOND
     1     1     2    1
     2     2     3   ar
     3     3     4    2
     4     3     5   ar
     5     5     6   ar
     6     6     7    1
     7     7     8    1
     8     8     9   ar
     9     9    10   ar
    10    10    11    1
    11    11    12    2
    12    11    13   am
    13    13    14    1
    14    14    15    1
    15    15    16    1
    16    10    17   ar
    17    17    18   ar
    18    18    19   ar
    19    19    20    1
    20     6    21   ar
    21    21    22   ar
    22    22    23   ar
    23    23    24   ar
    24    24    25    1
    25    25    26   ar
    26    26    27   ar
    27    27    28   ar
    28    28    29    1
    29    28    30   ar
    30    30    31   ar
    31    24    32   ar
    32    32     2   ar
    33    19     8   ar
    34    32    21   ar
    35    16    14    1
    36    31    25   ar
    37     1    33    1
    38     1    34    1
    39     1    35    1
    40     5    36    1
    41     7    37    1
    42     9    38    1
    43    13    39    1
    44    14    40    1
    45    15    41    1
    46    15    42    1
    47    16    43    1
    48    16    44    1
    49    17    45    1
    50    18    46    1
    51    22    47    1
    52    26    48    1
    53    27    49    1
    54    30    50    1
    55    31    51    1
