@<TRIPOS>MOLECULE
*****
 51 54 0 0 0
SMALL
GASTEIGER

@<TRIPOS>ATOM
      1 O           0.9038   -2.6029    0.8310 O.2     1  UNL1       -0.2259
      2 C          -0.1251   -2.0003    0.4080 C.2     1  UNL1        0.4080
      3 O          -1.3108   -1.9844    1.1274 O.3     1  UNL1       -0.4385
      4 C          -2.5012   -1.5914    0.4175 C.3     1  UNL1        0.1435
      5 C          -3.6262   -2.2793    1.1347 C.3     1  UNL1        0.0148
      6 C          -4.9869   -2.0282    0.5882 C.3     1  UNL1        0.0482
      7 O          -5.3927   -0.7148    0.5924 O.3     1  UNL1       -0.3949
      8 C          -2.5813   -0.1187    0.4253 C.ar    1  UNL1       -0.0041
      9 C          -2.0173    0.6384    1.4294 C.ar    1  UNL1       -0.0548
     10 C          -2.0802    2.0152    1.4511 C.ar    1  UNL1       -0.0614
     11 C          -2.7453    2.6120    0.4032 C.ar    1  UNL1       -0.0617
     12 C          -3.3082    1.8845   -0.5963 C.ar    1  UNL1       -0.0614
     13 C          -3.2379    0.5082   -0.6057 C.ar    1  UNL1       -0.0548
     14 C          -2.3480   -2.0792   -0.9948 C.3     1  UNL1        0.0079
     15 C          -1.1867   -1.4889   -1.7376 C.3     1  UNL1        0.0269
     16 N          -0.0766   -1.3239   -0.8250 N.am    1  UNL1       -0.2371
     17 C           1.0446   -0.5021   -1.1558 C.ar    1  UNL1        0.0400
     18 C           1.0492    0.1073   -2.4030 C.ar    1  UNL1       -0.0401
     19 C           2.0940    0.9242   -2.8047 C.ar    1  UNL1       -0.0594
     20 C           3.1493    1.1303   -1.9379 C.ar    1  UNL1       -0.0538
     21 C           3.1784    0.5421   -0.6930 C.ar    1  UNL1       -0.0134
     22 C           4.3022    0.7585    0.2359 C.ar    1  UNL1        0.0176
     23 C           5.6133    0.6945   -0.1946 C.ar    1  UNL1       -0.0486
     24 C           6.6662    0.8962    0.6720 C.ar    1  UNL1       -0.0257
     25 C           6.4393    1.1715    2.0121 C.ar    1  UNL1        0.1262
     26 F           7.4703    1.3675    2.8531 F       1  UNL1       -0.2054
     27 C           5.1441    1.2327    2.4280 C.ar    1  UNL1        0.0094
     28 C           4.0859    1.0326    1.5693 C.ar    1  UNL1        0.1338
     29 F           2.8362    1.1144    2.0801 F       1  UNL1       -0.2048
     30 C           2.1107   -0.2633   -0.3428 C.ar    1  UNL1       -0.0324
     31 H          -3.4350   -3.3824    1.0557 H       1  UNL1        0.0329
     32 H          -3.6321   -2.0709    2.2223 H       1  UNL1        0.0329
     33 H          -5.7158   -2.5864    1.2402 H       1  UNL1        0.0558
     34 H          -5.1075   -2.5114   -0.4182 H       1  UNL1        0.0558
     35 H          -6.3795   -0.6811    0.5111 H       1  UNL1        0.2094
     36 H          -1.5024    0.1363    2.2370 H       1  UNL1        0.0622
     37 H          -1.6265    2.6059    2.2571 H       1  UNL1        0.0618
     38 H          -2.7930    3.7018    0.4239 H       1  UNL1        0.0618
     39 H          -3.8202    2.4195   -1.3961 H       1  UNL1        0.0618
     40 H          -3.7125    0.0090   -1.4379 H       1  UNL1        0.0622
     41 H          -3.2907   -2.0049   -1.5757 H       1  UNL1        0.0323
     42 H          -2.1315   -3.1839   -0.9138 H       1  UNL1        0.0323
     43 H          -0.9336   -2.1783   -2.5746 H       1  UNL1        0.0471
     44 H          -1.4885   -0.4788   -2.1394 H       1  UNL1        0.0471
     45 H           0.2420   -0.0258   -3.1165 H       1  UNL1        0.0636
     46 H           2.1340    1.4156   -3.7657 H       1  UNL1        0.0618
     47 H           3.9911    1.7665   -2.2164 H       1  UNL1        0.0624
     48 H           5.8170    0.4839   -1.2223 H       1  UNL1        0.0625
     49 H           7.6965    0.8500    0.3533 H       1  UNL1        0.0646
     50 H           4.9731    1.4500    3.4847 H       1  UNL1        0.0675
     51 H           2.1520   -0.7033    0.6239 H       1  UNL1        0.0642
@<TRIPOS>BOND
     1     1     2    2
     2     2     3    1
     3     3     4    1
     4     4     5    1
     5     5     6    1
     6     6     7    1
     7     4     8    1
     8     8     9   ar
     9     9    10   ar
    10    10    11   ar
    11    11    12   ar
    12    12    13   ar
    13     4    14    1
    14    14    15    1
    15    15    16    1
    16    16    17    1
    17    17    18   ar
    18    18    19   ar
    19    19    20   ar
    20    20    21   ar
    21    21    22    1
    22    22    23   ar
    23    23    24   ar
    24    24    25   ar
    25    25    26    1
    26    25    27   ar
    27    27    28   ar
    28    28    29    1
    29    21    30   ar
    30    16     2   am
    31    30    17   ar
    32    13     8   ar
    33    28    22   ar
    34     5    31    1
    35     5    32    1
    36     6    33    1
    37     6    34    1
    38     7    35    1
    39     9    36    1
    40    10    37    1
    41    11    38    1
    42    12    39    1
    43    13    40    1
    44    14    41    1
    45    14    42    1
    46    15    43    1
    47    15    44    1
    48    18    45    1
    49    19    46    1
    50    20    47    1
    51    23    48    1
    52    24    49    1
    53    27    50    1
    54    30    51    1
