
     RDKit          3D

 51 54  0  0  0  0  0  0  0  0999 V2000
    0.9038   -2.6029    0.8310 O   0  0  0  0  0  0  0  0  0  0  0  0
   -0.1251   -2.0003    0.4080 C   0  0  0  0  0  0  0  0  0  0  0  0
   -1.3108   -1.9844    1.1274 O   0  0  0  0  0  0  0  0  0  0  0  0
   -2.5012   -1.5914    0.4175 C   0  0  1  0  0  0  0  0  0  0  0  0
   -3.6262   -2.2793    1.1347 C   0  0  0  0  0  0  0  0  0  0  0  0
   -4.9869   -2.0282    0.5882 C   0  0  0  0  0  0  0  0  0  0  0  0
   -5.3927   -0.7148    0.5924 O   0  0  0  0  0  0  0  0  0  0  0  0
   -2.5813   -0.1187    0.4253 C   0  0  0  0  0  0  0  0  0  0  0  0
   -2.0173    0.6384    1.4294 C   0  0  0  0  0  0  0  0  0  0  0  0
   -2.0802    2.0152    1.4511 C   0  0  0  0  0  0  0  0  0  0  0  0
   -2.7453    2.6120    0.4032 C   0  0  0  0  0  0  0  0  0  0  0  0
   -3.3082    1.8845   -0.5963 C   0  0  0  0  0  0  0  0  0  0  0  0
   -3.2379    0.5082   -0.6057 C   0  0  0  0  0  0  0  0  0  0  0  0
   -2.3480   -2.0792   -0.9948 C   0  0  0  0  0  0  0  0  0  0  0  0
   -1.1867   -1.4889   -1.7376 C   0  0  0  0  0  0  0  0  0  0  0  0
   -0.0766   -1.3239   -0.8250 N   0  0  0  0  0  0  0  0  0  0  0  0
    1.0446   -0.5021   -1.1558 C   0  0  0  0  0  0  0  0  0  0  0  0
    1.0492    0.1073   -2.4030 C   0  0  0  0  0  0  0  0  0  0  0  0
    2.0940    0.9242   -2.8047 C   0  0  0  0  0  0  0  0  0  0  0  0
    3.1493    1.1303   -1.9379 C   0  0  0  0  0  0  0  0  0  0  0  0
    3.1784    0.5421   -0.6930 C   0  0  0  0  0  0  0  0  0  0  0  0
    4.3022    0.7585    0.2359 C   0  0  0  0  0  0  0  0  0  0  0  0
    5.6133    0.6945   -0.1946 C   0  0  0  0  0  0  0  0  0  0  0  0
    6.6662    0.8962    0.6720 C   0  0  0  0  0  0  0  0  0  0  0  0
    6.4393    1.1715    2.0121 C   0  0  0  0  0  0  0  0  0  0  0  0
    7.4703    1.3675    2.8531 F   0  0  0  0  0  0  0  0  0  0  0  0
    5.1441    1.2327    2.4280 C   0  0  0  0  0  0  0  0  0  0  0  0
    4.0859    1.0326    1.5693 C   0  0  0  0  0  0  0  0  0  0  0  0
    2.8362    1.1144    2.0801 F   0  0  0  0  0  0  0  0  0  0  0  0
    2.1107   -0.2633   -0.3428 C   0  0  0  0  0  0  0  0  0  0  0  0
   -3.4350   -3.3824    1.0557 H   0  0  0  0  0  0  0  0  0  0  0  0
   -3.6321   -2.0709    2.2223 H   0  0  0  0  0  0  0  0  0  0  0  0
   -5.7158   -2.5864    1.2402 H   0  0  0  0  0  0  0  0  0  0  0  0
   -5.1075   -2.5114   -0.4182 H   0  0  0  0  0  0  0  0  0  0  0  0
   -6.3795   -0.6811    0.5111 H   0  0  0  0  0  0  0  0  0  0  0  0
   -1.5024    0.1363    2.2370 H   0  0  0  0  0  0  0  0  0  0  0  0
   -1.6265    2.6059    2.2571 H   0  0  0  0  0  0  0  0  0  0  0  0
   -2.7930    3.7018    0.4239 H   0  0  0  0  0  0  0  0  0  0  0  0
   -3.8202    2.4195   -1.3961 H   0  0  0  0  0  0  0  0  0  0  0  0
   -3.7125    0.0090   -1.4379 H   0  0  0  0  0  0  0  0  0  0  0  0
   -3.2907   -2.0049   -1.5757 H   0  0  0  0  0  0  0  0  0  0  0  0
   -2.1315   -3.1839   -0.9138 H   0  0  0  0  0  0  0  0  0  0  0  0
   -0.9336   -2.1783   -2.5746 H   0  0  0  0  0  0  0  0  0  0  0  0
   -1.4885   -0.4788   -2.1394 H   0  0  0  0  0  0  0  0  0  0  0  0
    0.2420   -0.0258   -3.1165 H   0  0  0  0  0  0  0  0  0  0  0  0
    2.1340    1.4156   -3.7657 H   0  0  0  0  0  0  0  0  0  0  0  0
    3.9911    1.7665   -2.2164 H   0  0  0  0  0  0  0  0  0  0  0  0
    5.8170    0.4839   -1.2223 H   0  0  0  0  0  0  0  0  0  0  0  0
    7.6965    0.8500    0.3533 H   0  0  0  0  0  0  0  0  0  0  0  0
    4.9731    1.4500    3.4847 H   0  0  0  0  0  0  0  0  0  0  0  0
    2.1520   -0.7033    0.6239 H   0  0  0  0  0  0  0  0  0  0  0  0
  1  2  2  0
  2  3  1  0
  3  4  1  0
  4  5  1  1
  5  6  1  0
  6  7  1  0
  4  8  1  0
  8  9  2  0
  9 10  1  0
 10 11  2  0
 11 12  1  0
 12 13  2  0
  4 14  1  0
 14 15  1  0
 15 16  1  0
 16 17  1  0
 17 18  2  0
 18 19  1  0
 19 20  2  0
 20 21  1  0
 21 22  1  0
 22 23  2  0
 23 24  1  0
 24 25  2  0
 25 26  1  0
 25 27  1  0
 27 28  2  0
 28 29  1  0
 21 30  2  0
 16  2  1  0
 30 17  1  0
 13  8  1  0
 28 22  1  0
  5 31  1  0
  5 32  1  0
  6 33  1  0
  6 34  1  0
  7 35  1  0
  9 36  1  0
 10 37  1  0
 11 38  1  0
 12 39  1  0
 13 40  1  0
 14 41  1  0
 14 42  1  0
 15 43  1  0
 15 44  1  0
 18 45  1  0
 19 46  1  0
 20 47  1  0
 23 48  1  0
 24 49  1  0
 27 50  1  0
 30 51  1  0
M  END
$$$$
