
     RDKit          3D

 53 55  0  0  0  0  0  0  0  0999 V2000
   -1.6175   -3.8537    0.4437 C   0  0  0  0  0  0  0  0  0  0  0  0
   -1.8820   -2.7395    1.0501 C   0  0  0  0  0  0  0  0  0  0  0  0
   -1.9166   -2.8116    2.5576 C   0  0  0  0  0  0  0  0  0  0  0  0
   -2.0409   -1.4559    0.4087 C   0  0  0  0  0  0  0  0  0  0  0  0
   -2.8581   -0.5669    1.1480 C   0  0  0  0  0  0  0  0  0  0  0  0
   -3.0932    0.6571    0.6901 N   0  0  0  0  0  0  0  0  0  0  0  0
   -2.5789    1.0986   -0.4684 C   0  0  0  0  0  0  0  0  0  0  0  0
   -2.8875    2.4719   -0.9149 C   0  0  0  0  0  0  0  0  0  0  0  0
   -2.3991    2.9958   -2.0878 C   0  0  0  0  0  0  0  0  0  0  0  0
   -2.7065    4.2895   -2.4808 C   0  0  0  0  0  0  0  0  0  0  0  0
   -2.0965    4.9742   -3.9668 Cl  0  0  0  0  0  0  0  0  0  0  0  0
   -3.5138    5.0662   -1.6867 C   0  0  0  0  0  0  0  0  0  0  0  0
   -4.0050    4.5410   -0.5083 C   0  0  0  0  0  0  0  0  0  0  0  0
   -3.6985    3.2650   -0.1262 C   0  0  0  0  0  0  0  0  0  0  0  0
   -4.1977    2.7893    1.0309 F   0  0  0  0  0  0  0  0  0  0  0  0
   -1.7907    0.2666   -1.1928 C   0  0  0  0  0  0  0  0  0  0  0  0
   -1.4799   -1.0709   -0.7748 C   0  0  0  0  0  0  0  0  0  0  0  0
   -0.5657   -1.7812   -1.5644 N   0  0  0  0  0  0  0  0  0  0  0  0
    0.6289   -2.4656   -1.3812 C   0  0  0  0  0  0  0  0  0  0  0  0
    0.6873   -3.7883   -1.9171 C   0  0  0  0  0  0  0  0  0  0  0  0
    1.7876   -4.5359   -1.7687 C   0  0  0  0  0  0  0  0  0  0  0  0
    2.8569   -4.0390   -1.1066 N   0  0  0  0  0  0  0  0  0  0  0  0
    2.8329   -2.8039   -0.5945 C   0  0  0  0  0  0  0  0  0  0  0  0
    1.7120   -1.9664   -0.7137 C   0  0  0  0  0  0  0  0  0  0  0  0
    1.7926   -0.6262   -0.1455 C   0  0  0  0  0  0  0  0  0  0  0  0
    0.9011    0.2166   -0.2808 O   0  0  0  0  0  0  0  0  0  0  0  0
    2.9157   -0.1900    0.6143 N   0  0  0  0  0  0  0  0  0  0  0  0
    2.9581    1.1743    1.1721 C   0  0  0  0  0  0  0  0  0  0  0  0
    4.2220    1.4038    1.9266 C   0  0  2  0  0  0  0  0  0  0  0  0
    4.2342    2.8199    2.4274 C   0  0  0  0  0  0  0  0  0  0  0  0
    5.3192    1.2415    1.0912 O   0  0  0  0  0  0  0  0  0  0  0  0
   -1.4205   -4.8004    0.9729 H   0  0  0  0  0  0  0  0  0  0  0  0
   -1.6399   -3.9323   -0.6262 H   0  0  0  0  0  0  0  0  0  0  0  0
   -1.5337   -3.7827    2.9181 H   0  0  0  0  0  0  0  0  0  0  0  0
   -1.3454   -1.9557    2.9899 H   0  0  0  0  0  0  0  0  0  0  0  0
   -2.9778   -2.7373    2.8613 H   0  0  0  0  0  0  0  0  0  0  0  0
   -3.2951   -0.8878    2.0942 H   0  0  0  0  0  0  0  0  0  0  0  0
   -1.7617    2.4297   -2.7475 H   0  0  0  0  0  0  0  0  0  0  0  0
   -3.7939    6.0854   -1.9338 H   0  0  0  0  0  0  0  0  0  0  0  0
   -4.6425    5.1565    0.1172 H   0  0  0  0  0  0  0  0  0  0  0  0
   -1.3570    0.5711   -2.1234 H   0  0  0  0  0  0  0  0  0  0  0  0
   -0.9225   -1.7802   -2.6310 H   0  0  0  0  0  0  0  0  0  0  0  0
   -0.1873   -4.1501   -2.4516 H   0  0  0  0  0  0  0  0  0  0  0  0
    1.8586   -5.5264   -2.1579 H   0  0  0  0  0  0  0  0  0  0  0  0
    3.7256   -2.4909   -0.0874 H   0  0  0  0  0  0  0  0  0  0  0  0
    3.7047   -0.7920    0.7940 H   0  0  0  0  0  0  0  0  0  0  0  0
    2.9830    1.8400    0.2676 H   0  0  0  0  0  0  0  0  0  0  0  0
    2.0540    1.4144    1.7298 H   0  0  0  0  0  0  0  0  0  0  0  0
    4.3172    0.6724    2.7759 H   0  0  0  0  0  0  0  0  0  0  0  0
    4.8330    2.8676    3.3713 H   0  0  0  0  0  0  0  0  0  0  0  0
    3.1981    3.1733    2.6252 H   0  0  0  0  0  0  0  0  0  0  0  0
    4.7031    3.4557    1.6483 H   0  0  0  0  0  0  0  0  0  0  0  0
    5.9793    0.5934    1.4451 H   0  0  0  0  0  0  0  0  0  0  0  0
  1  2  2  3
  2  3  1  0
  2  4  1  0
  4  5  2  0
  5  6  1  0
  6  7  2  0
  7  8  1  0
  8  9  2  0
  9 10  1  0
 10 11  1  0
 10 12  2  0
 12 13  1  0
 13 14  2  0
 14 15  1  0
  7 16  1  0
 16 17  2  0
 17 18  1  0
 18 19  1  0
 19 20  2  0
 20 21  1  0
 21 22  2  0
 22 23  1  0
 23 24  2  0
 24 25  1  0
 25 26  2  0
 25 27  1  0
 27 28  1  0
 28 29  1  0
 29 30  1  0
 29 31  1  0
 17  4  1  0
 24 19  1  0
 14  8  1  0
  1 32  1  0
  1 33  1  0
  3 34  1  0
  3 35  1  0
  3 36  1  0
  5 37  1  0
  9 38  1  0
 12 39  1  0
 13 40  1  0
 16 41  1  0
 18 42  1  0
 20 43  1  0
 21 44  1  0
 23 45  1  0
 27 46  1  0
 28 47  1  0
 28 48  1  0
 29 49  1  1
 30 50  1  0
 30 51  1  0
 30 52  1  0
 31 53  1  0
M  END
$$$$
