@<TRIPOS>MOLECULE
*****
 53 55 0 0 0
SMALL
GASTEIGER

@<TRIPOS>ATOM
      1 C          -1.6175   -3.8537    0.4437 C.2     1  UNL1       -0.0951
      2 C          -1.8820   -2.7395    1.0501 C.2     1  UNL1       -0.0472
      3 C          -1.9166   -2.8116    2.5576 C.3     1  UNL1       -0.0396
      4 C          -2.0409   -1.4559    0.4087 C.ar    1  UNL1        0.0166
      5 C          -2.8581   -0.5669    1.1480 C.ar    1  UNL1        0.0374
      6 N          -3.0932    0.6571    0.6901 N.ar    1  UNL1       -0.2542
      7 C          -2.5789    1.0986   -0.4684 C.ar    1  UNL1        0.0755
      8 C          -2.8875    2.4719   -0.9149 C.ar    1  UNL1        0.0369
      9 C          -2.3991    2.9958   -2.0878 C.ar    1  UNL1       -0.0314
     10 C          -2.7065    4.2895   -2.4808 C.ar    1  UNL1        0.0418
     11 CL         -2.0965    4.9742   -3.9668 Cl      1  UNL1       -0.0835
     12 C          -3.5138    5.0662   -1.6867 C.ar    1  UNL1       -0.0406
     13 C          -4.0050    4.5410   -0.5083 C.ar    1  UNL1       -0.0244
     14 C          -3.6985    3.2650   -0.1262 C.ar    1  UNL1        0.1326
     15 F          -4.1977    2.7893    1.0309 F       1  UNL1       -0.2048
     16 C          -1.7907    0.2666   -1.1928 C.ar    1  UNL1       -0.0138
     17 C          -1.4799   -1.0709   -0.7748 C.ar    1  UNL1        0.0423
     18 N          -0.5657   -1.7812   -1.5644 N.pl3   1  UNL1       -0.3133
     19 C           0.6289   -2.4656   -1.3812 C.ar    1  UNL1        0.0465
     20 C           0.6873   -3.7883   -1.9171 C.ar    1  UNL1       -0.0217
     21 C           1.7876   -4.5359   -1.7687 C.ar    1  UNL1        0.0293
     22 N           2.8569   -4.0390   -1.1066 N.ar    1  UNL1       -0.2624
     23 C           2.8329   -2.8039   -0.5945 C.ar    1  UNL1        0.0415
     24 C           1.7120   -1.9664   -0.7137 C.ar    1  UNL1        0.0758
     25 C           1.7926   -0.6262   -0.1455 C.2     1  UNL1        0.2474
     26 O           0.9011    0.2166   -0.2808 O.2     1  UNL1       -0.2701
     27 N           2.9157   -0.1900    0.6143 N.am    1  UNL1       -0.3088
     28 C           2.9581    1.1743    1.1721 C.3     1  UNL1        0.0377
     29 C           4.2220    1.4038    1.9266 C.3     1  UNL1        0.0679
     30 C           4.2342    2.8199    2.4274 C.3     1  UNL1       -0.0375
     31 O           5.3192    1.2415    1.0912 O.3     1  UNL1       -0.3905
     32 H          -1.4205   -4.8004    0.9729 H       1  UNL1        0.0538
     33 H          -1.6399   -3.9323   -0.6262 H       1  UNL1        0.0538
     34 H          -1.5337   -3.7827    2.9181 H       1  UNL1        0.0278
     35 H          -1.3454   -1.9557    2.9899 H       1  UNL1        0.0278
     36 H          -2.9778   -2.7373    2.8613 H       1  UNL1        0.0278
     37 H          -3.2951   -0.8878    2.0942 H       1  UNL1        0.0836
     38 H          -1.7617    2.4297   -2.7475 H       1  UNL1        0.0639
     39 H          -3.7939    6.0854   -1.9338 H       1  UNL1        0.0633
     40 H          -4.6425    5.1565    0.1172 H       1  UNL1        0.0647
     41 H          -1.3570    0.5711   -2.1234 H       1  UNL1        0.0658
     42 H          -0.9225   -1.7802   -2.6310 H       1  UNL1        0.1522
     43 H          -0.1873   -4.1501   -2.4516 H       1  UNL1        0.0651
     44 H           1.8586   -5.5264   -2.1579 H       1  UNL1        0.0830
     45 H           3.7256   -2.4909   -0.0874 H       1  UNL1        0.0838
     46 H           3.7047   -0.7920    0.7940 H       1  UNL1        0.1491
     47 H           2.9830    1.8400    0.2676 H       1  UNL1        0.0487
     48 H           2.0540    1.4144    1.7298 H       1  UNL1        0.0487
     49 H           4.3172    0.6724    2.7759 H       1  UNL1        0.0606
     50 H           4.8330    2.8676    3.3713 H       1  UNL1        0.0255
     51 H           3.1981    3.1733    2.6252 H       1  UNL1        0.0255
     52 H           4.7031    3.4557    1.6483 H       1  UNL1        0.0255
     53 H           5.9793    0.5934    1.4451 H       1  UNL1        0.2098
@<TRIPOS>BOND
     1     1     2    2
     2     2     3    1
     3     2     4    1
     4     4     5   ar
     5     5     6   ar
     6     6     7   ar
     7     7     8    1
     8     8     9   ar
     9     9    10   ar
    10    10    11    1
    11    10    12   ar
    12    12    13   ar
    13    13    14   ar
    14    14    15    1
    15     7    16   ar
    16    16    17   ar
    17    17    18    1
    18    18    19    1
    19    19    20   ar
    20    20    21   ar
    21    21    22   ar
    22    22    23   ar
    23    23    24   ar
    24    24    25    1
    25    25    26    2
    26    25    27   am
    27    27    28    1
    28    28    29    1
    29    29    30    1
    30    29    31    1
    31    17     4   ar
    32    24    19   ar
    33    14     8   ar
    34     1    32    1
    35     1    33    1
    36     3    34    1
    37     3    35    1
    38     3    36    1
    39     5    37    1
    40     9    38    1
    41    12    39    1
    42    13    40    1
    43    16    41    1
    44    18    42    1
    45    20    43    1
    46    21    44    1
    47    23    45    1
    48    27    46    1
    49    28    47    1
    50    28    48    1
    51    29    49    1
    52    30    50    1
    53    30    51    1
    54    30    52    1
    55    31    53    1
