@<TRIPOS>MOLECULE
*****
 65 67 0 0 0
SMALL
GASTEIGER

@<TRIPOS>ATOM
      1 C          -1.6569    4.4936    0.3766 C.3     1  UNL1       -0.0652
      2 C          -1.6343    3.1401    1.0459 C.3     1  UNL1       -0.0545
      3 C          -2.1240    2.0460    0.1134 C.3     1  UNL1       -0.0374
      4 C          -2.0807    0.7146    0.8371 C.3     1  UNL1        0.0153
      5 N          -2.5424   -0.3892    0.0108 N.am    1  UNL1       -0.2945
      6 C          -1.6503   -1.2415   -0.6829 C.2     1  UNL1        0.2469
      7 O          -2.1947   -2.1367   -1.4254 O.2     1  UNL1       -0.2700
      8 C          -0.1888   -1.1723   -0.6028 C.ar    1  UNL1        0.0369
      9 C           0.4969   -2.2336    0.0187 C.ar    1  UNL1       -0.0493
     10 C           1.8698   -2.2083    0.1468 C.ar    1  UNL1       -0.0566
     11 C           2.6336   -1.1750   -0.3097 C.ar    1  UNL1       -0.0319
     12 C           4.1288   -1.1303   -0.1212 C.3     1  UNL1        0.0425
     13 N           4.4371   -0.4781    1.1087 N.3     1  UNL1       -0.1856
     14 S           6.0923   -0.3608    1.4282 S.O2    1  UNL1        0.0587
     15 O           6.2986    0.2941    2.7954 O.2     1  UNL1       -0.1530
     16 O           6.6687   -1.7406    1.5468 O.2     1  UNL1       -0.1530
     17 C           6.9717    0.5614    0.2492 C.ar    1  UNL1        0.1066
     18 C           7.6291   -0.0501   -0.7810 C.ar    1  UNL1       -0.0353
     19 C           8.3290    0.6802   -1.7472 C.ar    1  UNL1       -0.0585
     20 C           8.3355    2.0589   -1.6248 C.ar    1  UNL1       -0.0433
     21 C           7.6782    2.7035   -0.5927 C.ar    1  UNL1        0.0428
     22 CL          7.6778    4.4408   -0.4422 Cl      1  UNL1       -0.0835
     23 C           7.0091    1.9393    0.3242 C.ar    1  UNL1       -0.0170
     24 C           1.9752   -0.1296   -0.9222 C.ar    1  UNL1       -0.0566
     25 C           0.5739   -0.1388   -1.0637 C.ar    1  UNL1       -0.0493
     26 C          -3.9991   -0.6331   -0.0863 C.3     1  UNL1        0.0263
     27 C          -4.4688   -0.5557   -1.4867 C.3     1  UNL1       -0.0343
     28 C          -5.2972   -1.6939   -1.9789 C.3     1  UNL1       -0.0514
     29 C          -6.7073   -1.5882   -1.4603 C.3     1  UNL1       -0.0530
     30 C          -6.7128   -1.5653    0.0559 C.3     1  UNL1       -0.0530
     31 C          -5.6236   -2.4567    0.5813 C.3     1  UNL1       -0.0514
     32 C          -4.2672   -1.8836    0.6620 C.3     1  UNL1       -0.0343
     33 H          -2.2611    4.4500   -0.5429 H       1  UNL1        0.0230
     34 H          -0.6163    4.7900    0.0801 H       1  UNL1        0.0230
     35 H          -2.0204    5.2376    1.1200 H       1  UNL1        0.0230
     36 H          -2.2497    3.1089    1.9718 H       1  UNL1        0.0263
     37 H          -0.5891    2.9625    1.3881 H       1  UNL1        0.0263
     38 H          -1.5304    2.0599   -0.7824 H       1  UNL1        0.0280
     39 H          -3.2038    2.3002   -0.0653 H       1  UNL1        0.0280
     40 H          -0.9929    0.5291    1.0341 H       1  UNL1        0.0465
     41 H          -2.5695    0.7829    1.8138 H       1  UNL1        0.0465
     42 H          -0.0912   -3.0597    0.3838 H       1  UNL1        0.0625
     43 H           2.4125   -3.0306    0.6263 H       1  UNL1        0.0621
     44 H           4.6141   -0.5911   -0.9399 H       1  UNL1        0.0490
     45 H           4.5608   -2.1342   -0.0948 H       1  UNL1        0.0490
     46 H           3.8437   -0.6816    1.9148 H       1  UNL1        0.1484
     47 H           7.6346   -1.1160   -0.8916 H       1  UNL1        0.0637
     48 H           8.8441    0.1836   -2.5629 H       1  UNL1        0.0619
     49 H           8.8856    2.6229   -2.3759 H       1  UNL1        0.0632
     50 H           6.4776    2.4235    1.1564 H       1  UNL1        0.0652
     51 H           2.5306    0.6952   -1.2919 H       1  UNL1        0.0621
     52 H           0.0863    0.6814   -1.5570 H       1  UNL1        0.0625
     53 H          -4.4501    0.2086    0.5326 H       1  UNL1        0.0500
     54 H          -3.5975   -0.4447   -2.1918 H       1  UNL1        0.0283
     55 H          -5.1325    0.3610   -1.5809 H       1  UNL1        0.0283
     56 H          -5.3635   -1.5949   -3.0980 H       1  UNL1        0.0266
     57 H          -4.8544   -2.6967   -1.8180 H       1  UNL1        0.0266
     58 H          -7.3614   -2.4050   -1.8516 H       1  UNL1        0.0265
     59 H          -7.1357   -0.6367   -1.8234 H       1  UNL1        0.0265
     60 H          -6.7060   -0.5651    0.4935 H       1  UNL1        0.0265
     61 H          -7.6931   -2.0382    0.3634 H       1  UNL1        0.0265
     62 H          -5.9805   -2.8566    1.5722 H       1  UNL1        0.0266
     63 H          -5.5888   -3.3840   -0.0588 H       1  UNL1        0.0266
     64 H          -3.4522   -2.6462    0.4832 H       1  UNL1        0.0283
     65 H          -4.1068   -1.6270    1.7589 H       1  UNL1        0.0283
@<TRIPOS>BOND
     1     1     2    1
     2     2     3    1
     3     3     4    1
     4     4     5    1
     5     5     6   am
     6     6     7    2
     7     6     8    1
     8     8     9   ar
     9     9    10   ar
    10    10    11   ar
    11    11    12    1
    12    12    13    1
    13    13    14    1
    14    14    15    2
    15    14    16    2
    16    14    17    1
    17    17    18   ar
    18    18    19   ar
    19    19    20   ar
    20    20    21   ar
    21    21    22    1
    22    21    23   ar
    23    11    24   ar
    24    24    25   ar
    25     5    26    1
    26    26    27    1
    27    27    28    1
    28    28    29    1
    29    29    30    1
    30    30    31    1
    31    31    32    1
    32    25     8   ar
    33    32    26    1
    34    23    17   ar
    35     1    33    1
    36     1    34    1
    37     1    35    1
    38     2    36    1
    39     2    37    1
    40     3    38    1
    41     3    39    1
    42     4    40    1
    43     4    41    1
    44     9    42    1
    45    10    43    1
    46    12    44    1
    47    12    45    1
    48    13    46    1
    49    18    47    1
    50    19    48    1
    51    20    49    1
    52    23    50    1
    53    24    51    1
    54    25    52    1
    55    26    53    1
    56    27    54    1
    57    27    55    1
    58    28    56    1
    59    28    57    1
    60    29    58    1
    61    29    59    1
    62    30    60    1
    63    30    61    1
    64    31    62    1
    65    31    63    1
    66    32    64    1
    67    32    65    1
