
     RDKit          3D

 65 67  0  0  0  0  0  0  0  0999 V2000
   -1.6569    4.4936    0.3766 C   0  0  0  0  0  0  0  0  0  0  0  0
   -1.6343    3.1401    1.0459 C   0  0  0  0  0  0  0  0  0  0  0  0
   -2.1240    2.0460    0.1134 C   0  0  0  0  0  0  0  0  0  0  0  0
   -2.0807    0.7146    0.8371 C   0  0  0  0  0  0  0  0  0  0  0  0
   -2.5424   -0.3892    0.0108 N   0  0  0  0  0  0  0  0  0  0  0  0
   -1.6503   -1.2415   -0.6829 C   0  0  0  0  0  0  0  0  0  0  0  0
   -2.1947   -2.1367   -1.4254 O   0  0  0  0  0  0  0  0  0  0  0  0
   -0.1888   -1.1723   -0.6028 C   0  0  0  0  0  0  0  0  0  0  0  0
    0.4969   -2.2336    0.0187 C   0  0  0  0  0  0  0  0  0  0  0  0
    1.8698   -2.2083    0.1468 C   0  0  0  0  0  0  0  0  0  0  0  0
    2.6336   -1.1750   -0.3097 C   0  0  0  0  0  0  0  0  0  0  0  0
    4.1288   -1.1303   -0.1212 C   0  0  0  0  0  0  0  0  0  0  0  0
    4.4371   -0.4781    1.1087 N   0  0  0  0  0  0  0  0  0  0  0  0
    6.0923   -0.3608    1.4282 S   0  0  0  0  0  6  0  0  0  0  0  0
    6.2986    0.2941    2.7954 O   0  0  0  0  0  0  0  0  0  0  0  0
    6.6687   -1.7406    1.5468 O   0  0  0  0  0  0  0  0  0  0  0  0
    6.9717    0.5614    0.2492 C   0  0  0  0  0  0  0  0  0  0  0  0
    7.6291   -0.0501   -0.7810 C   0  0  0  0  0  0  0  0  0  0  0  0
    8.3290    0.6802   -1.7472 C   0  0  0  0  0  0  0  0  0  0  0  0
    8.3355    2.0589   -1.6248 C   0  0  0  0  0  0  0  0  0  0  0  0
    7.6782    2.7035   -0.5927 C   0  0  0  0  0  0  0  0  0  0  0  0
    7.6778    4.4408   -0.4422 Cl  0  0  0  0  0  0  0  0  0  0  0  0
    7.0091    1.9393    0.3242 C   0  0  0  0  0  0  0  0  0  0  0  0
    1.9752   -0.1296   -0.9222 C   0  0  0  0  0  0  0  0  0  0  0  0
    0.5739   -0.1388   -1.0637 C   0  0  0  0  0  0  0  0  0  0  0  0
   -3.9991   -0.6331   -0.0863 C   0  0  0  0  0  0  0  0  0  0  0  0
   -4.4688   -0.5557   -1.4867 C   0  0  0  0  0  0  0  0  0  0  0  0
   -5.2972   -1.6939   -1.9789 C   0  0  0  0  0  0  0  0  0  0  0  0
   -6.7073   -1.5882   -1.4603 C   0  0  0  0  0  0  0  0  0  0  0  0
   -6.7128   -1.5653    0.0559 C   0  0  0  0  0  0  0  0  0  0  0  0
   -5.6236   -2.4567    0.5813 C   0  0  0  0  0  0  0  0  0  0  0  0
   -4.2672   -1.8836    0.6620 C   0  0  0  0  0  0  0  0  0  0  0  0
   -2.2611    4.4500   -0.5429 H   0  0  0  0  0  0  0  0  0  0  0  0
   -0.6163    4.7900    0.0801 H   0  0  0  0  0  0  0  0  0  0  0  0
   -2.0204    5.2376    1.1200 H   0  0  0  0  0  0  0  0  0  0  0  0
   -2.2497    3.1089    1.9718 H   0  0  0  0  0  0  0  0  0  0  0  0
   -0.5891    2.9625    1.3881 H   0  0  0  0  0  0  0  0  0  0  0  0
   -1.5304    2.0599   -0.7824 H   0  0  0  0  0  0  0  0  0  0  0  0
   -3.2038    2.3002   -0.0653 H   0  0  0  0  0  0  0  0  0  0  0  0
   -0.9929    0.5291    1.0341 H   0  0  0  0  0  0  0  0  0  0  0  0
   -2.5695    0.7829    1.8138 H   0  0  0  0  0  0  0  0  0  0  0  0
   -0.0912   -3.0597    0.3838 H   0  0  0  0  0  0  0  0  0  0  0  0
    2.4125   -3.0306    0.6263 H   0  0  0  0  0  0  0  0  0  0  0  0
    4.6141   -0.5911   -0.9399 H   0  0  0  0  0  0  0  0  0  0  0  0
    4.5608   -2.1342   -0.0948 H   0  0  0  0  0  0  0  0  0  0  0  0
    3.8437   -0.6816    1.9148 H   0  0  0  0  0  0  0  0  0  0  0  0
    7.6346   -1.1160   -0.8916 H   0  0  0  0  0  0  0  0  0  0  0  0
    8.8441    0.1836   -2.5629 H   0  0  0  0  0  0  0  0  0  0  0  0
    8.8856    2.6229   -2.3759 H   0  0  0  0  0  0  0  0  0  0  0  0
    6.4776    2.4235    1.1564 H   0  0  0  0  0  0  0  0  0  0  0  0
    2.5306    0.6952   -1.2919 H   0  0  0  0  0  0  0  0  0  0  0  0
    0.0863    0.6814   -1.5570 H   0  0  0  0  0  0  0  0  0  0  0  0
   -4.4501    0.2086    0.5326 H   0  0  0  0  0  0  0  0  0  0  0  0
   -3.5975   -0.4447   -2.1918 H   0  0  0  0  0  0  0  0  0  0  0  0
   -5.1325    0.3610   -1.5809 H   0  0  0  0  0  0  0  0  0  0  0  0
   -5.3635   -1.5949   -3.0980 H   0  0  0  0  0  0  0  0  0  0  0  0
   -4.8544   -2.6967   -1.8180 H   0  0  0  0  0  0  0  0  0  0  0  0
   -7.3614   -2.4050   -1.8516 H   0  0  0  0  0  0  0  0  0  0  0  0
   -7.1357   -0.6367   -1.8234 H   0  0  0  0  0  0  0  0  0  0  0  0
   -6.7060   -0.5651    0.4935 H   0  0  0  0  0  0  0  0  0  0  0  0
   -7.6931   -2.0382    0.3634 H   0  0  0  0  0  0  0  0  0  0  0  0
   -5.9805   -2.8566    1.5722 H   0  0  0  0  0  0  0  0  0  0  0  0
   -5.5888   -3.3840   -0.0588 H   0  0  0  0  0  0  0  0  0  0  0  0
   -3.4522   -2.6462    0.4832 H   0  0  0  0  0  0  0  0  0  0  0  0
   -4.1068   -1.6270    1.7589 H   0  0  0  0  0  0  0  0  0  0  0  0
  1  2  1  0
  2  3  1  0
  3  4  1  0
  4  5  1  0
  5  6  1  0
  6  7  2  0
  6  8  1  0
  8  9  2  0
  9 10  1  0
 10 11  2  0
 11 12  1  0
 12 13  1  0
 13 14  1  0
 14 15  2  0
 14 16  2  0
 14 17  1  0
 17 18  2  0
 18 19  1  0
 19 20  2  0
 20 21  1  0
 21 22  1  0
 21 23  2  0
 11 24  1  0
 24 25  2  0
  5 26  1  0
 26 27  1  0
 27 28  1  0
 28 29  1  0
 29 30  1  0
 30 31  1  0
 31 32  1  0
 25  8  1  0
 32 26  1  0
 23 17  1  0
  1 33  1  0
  1 34  1  0
  1 35  1  0
  2 36  1  0
  2 37  1  0
  3 38  1  0
  3 39  1  0
  4 40  1  0
  4 41  1  0
  9 42  1  0
 10 43  1  0
 12 44  1  0
 12 45  1  0
 13 46  1  0
 18 47  1  0
 19 48  1  0
 20 49  1  0
 23 50  1  0
 24 51  1  0
 25 52  1  0
 26 53  1  0
 27 54  1  0
 27 55  1  0
 28 56  1  0
 28 57  1  0
 29 58  1  0
 29 59  1  0
 30 60  1  0
 30 61  1  0
 31 62  1  0
 31 63  1  0
 32 64  1  0
 32 65  1  0
M  END
$$$$
