@<TRIPOS>MOLECULE
*****
 49 51 0 0 0
SMALL
GASTEIGER

@<TRIPOS>ATOM
      1 C          -6.3332   -1.2408    0.0543 C.3     1  UNL1       -0.0126
      2 N          -5.0233   -0.8200    0.5170 N.3     1  UNL1       -0.3022
      3 C          -5.1862   -0.0726    1.7226 C.3     1  UNL1        0.0112
      4 C          -3.9031    0.4375    2.3053 C.3     1  UNL1        0.0094
      5 N          -2.8702    0.3749    1.2932 N.3     1  UNL1       -0.3034
      6 C          -3.3075    0.8477    0.0269 C.3     1  UNL1        0.0978
      7 C          -2.2927    1.1665   -0.9768 C.2     1  UNL1        0.2339
      8 O          -2.7303    1.5175   -2.1577 O.2     1  UNL1       -0.2738
      9 N          -0.9051    1.1533   -0.8669 N.am    1  UNL1       -0.2972
     10 C          -0.1769    0.8400    0.3363 C.3     1  UNL1        0.0306
     11 C           0.5627   -0.4760    0.0039 C.3     1  UNL1        0.0320
     12 N           1.4346   -0.1315   -1.0840 N.am    1  UNL1       -0.2824
     13 C           2.8377   -0.1864   -0.9473 C.2     1  UNL1        0.3065
     14 O           3.6062    0.1217   -1.9327 O.2     1  UNL1       -0.2523
     15 N           3.5433   -0.5662    0.2260 N.am    1  UNL1       -0.2693
     16 C           4.9580   -0.5931    0.2753 C.ar    1  UNL1        0.0362
     17 C           5.6457   -1.7319   -0.0598 C.ar    1  UNL1       -0.0390
     18 C           7.0462   -1.7695   -0.0140 C.ar    1  UNL1       -0.0402
     19 C           7.7640   -0.6595    0.3699 C.ar    1  UNL1        0.0594
     20 CL          9.5226   -0.6757    0.4371 Cl      1  UNL1       -0.0820
     21 C           7.0698    0.4811    0.7054 C.ar    1  UNL1        0.0610
     22 CL          7.9072    1.9225    1.2011 Cl      1  UNL1       -0.0820
     23 C           5.6930    0.5023    0.6555 C.ar    1  UNL1       -0.0207
     24 C           0.8494    0.2826   -2.3375 C.3     1  UNL1        0.0320
     25 C          -0.0715    1.4562   -2.0474 C.3     1  UNL1        0.0306
     26 C          -4.4069   -0.0435   -0.5476 C.3     1  UNL1        0.0226
     27 H          -7.1105   -0.9913    0.7919 H       1  UNL1        0.0391
     28 H          -6.2732   -2.3323   -0.1576 H       1  UNL1        0.0391
     29 H          -6.5946   -0.7292   -0.9175 H       1  UNL1        0.0391
     30 H          -5.8751    0.8007    1.6065 H       1  UNL1        0.0439
     31 H          -5.6601   -0.7728    2.4677 H       1  UNL1        0.0439
     32 H          -3.5817   -0.2549    3.1326 H       1  UNL1        0.0437
     33 H          -4.0129    1.4774    2.6806 H       1  UNL1        0.0437
     34 H          -2.5898   -0.6574    1.2641 H       1  UNL1        0.1227
     35 H          -3.8505    1.8292    0.2294 H       1  UNL1        0.0569
     36 H           0.6909    1.5810    0.4601 H       1  UNL1        0.0480
     37 H          -0.7148    0.8052    1.2540 H       1  UNL1        0.0480
     38 H          -0.2530   -1.1229   -0.4373 H       1  UNL1        0.0480
     39 H           1.0189   -0.9218    0.8773 H       1  UNL1        0.0480
     40 H           2.9947   -0.8308    1.0726 H       1  UNL1        0.1564
     41 H           5.1007   -2.5984   -0.3586 H       1  UNL1        0.0636
     42 H           7.5925   -2.6723   -0.2797 H       1  UNL1        0.0633
     43 H           5.1195    1.4041    0.9200 H       1  UNL1        0.0651
     44 H           0.3101   -0.5427   -2.8466 H       1  UNL1        0.0480
     45 H           1.6381    0.6191   -3.0221 H       1  UNL1        0.0480
     46 H           0.5533    2.3472   -1.9009 H       1  UNL1        0.0480
     47 H          -0.7367    1.6224   -2.9094 H       1  UNL1        0.0480
     48 H          -3.9049   -0.7621   -1.2255 H       1  UNL1        0.0446
     49 H          -5.0944    0.5656   -1.1257 H       1  UNL1        0.0446
@<TRIPOS>BOND
     1     1     2    1
     2     2     3    1
     3     3     4    1
     4     4     5    1
     5     5     6    1
     6     6     7    1
     7     7     8    2
     8     7     9   am
     9     9    10    1
    10    10    11    1
    11    11    12    1
    12    12    13   am
    13    13    14    2
    14    13    15   am
    15    15    16    1
    16    16    17   ar
    17    17    18   ar
    18    18    19   ar
    19    19    20    1
    20    19    21   ar
    21    21    22    1
    22    21    23   ar
    23    12    24    1
    24    24    25    1
    25     6    26    1
    26    26     2    1
    27    25     9    1
    28    23    16   ar
    29     1    27    1
    30     1    28    1
    31     1    29    1
    32     3    30    1
    33     3    31    1
    34     4    32    1
    35     4    33    1
    36     5    34    1
    37     6    35    1
    38    10    36    1
    39    10    37    1
    40    11    38    1
    41    11    39    1
    42    15    40    1
    43    17    41    1
    44    18    42    1
    45    23    43    1
    46    24    44    1
    47    24    45    1
    48    25    46    1
    49    25    47    1
    50    26    48    1
    51    26    49    1
