
     RDKit          3D

 49 51  0  0  0  0  0  0  0  0999 V2000
   -6.3332   -1.2408    0.0543 C   0  0  0  0  0  0  0  0  0  0  0  0
   -5.0233   -0.8200    0.5170 N   0  0  0  0  0  0  0  0  0  0  0  0
   -5.1862   -0.0726    1.7226 C   0  0  0  0  0  0  0  0  0  0  0  0
   -3.9031    0.4375    2.3053 C   0  0  0  0  0  0  0  0  0  0  0  0
   -2.8702    0.3749    1.2932 N   0  0  0  0  0  0  0  0  0  0  0  0
   -3.3075    0.8477    0.0269 C   0  0  1  0  0  0  0  0  0  0  0  0
   -2.2927    1.1665   -0.9768 C   0  0  0  0  0  0  0  0  0  0  0  0
   -2.7303    1.5175   -2.1577 O   0  0  0  0  0  0  0  0  0  0  0  0
   -0.9051    1.1533   -0.8669 N   0  0  0  0  0  0  0  0  0  0  0  0
   -0.1769    0.8400    0.3363 C   0  0  0  0  0  0  0  0  0  0  0  0
    0.5627   -0.4760    0.0039 C   0  0  0  0  0  0  0  0  0  0  0  0
    1.4346   -0.1315   -1.0840 N   0  0  0  0  0  0  0  0  0  0  0  0
    2.8377   -0.1864   -0.9473 C   0  0  0  0  0  0  0  0  0  0  0  0
    3.6062    0.1217   -1.9327 O   0  0  0  0  0  0  0  0  0  0  0  0
    3.5433   -0.5662    0.2260 N   0  0  0  0  0  0  0  0  0  0  0  0
    4.9580   -0.5931    0.2753 C   0  0  0  0  0  0  0  0  0  0  0  0
    5.6457   -1.7319   -0.0598 C   0  0  0  0  0  0  0  0  0  0  0  0
    7.0462   -1.7695   -0.0140 C   0  0  0  0  0  0  0  0  0  0  0  0
    7.7640   -0.6595    0.3699 C   0  0  0  0  0  0  0  0  0  0  0  0
    9.5226   -0.6757    0.4371 Cl  0  0  0  0  0  0  0  0  0  0  0  0
    7.0698    0.4811    0.7054 C   0  0  0  0  0  0  0  0  0  0  0  0
    7.9072    1.9225    1.2011 Cl  0  0  0  0  0  0  0  0  0  0  0  0
    5.6930    0.5023    0.6555 C   0  0  0  0  0  0  0  0  0  0  0  0
    0.8494    0.2826   -2.3375 C   0  0  0  0  0  0  0  0  0  0  0  0
   -0.0715    1.4562   -2.0474 C   0  0  0  0  0  0  0  0  0  0  0  0
   -4.4069   -0.0435   -0.5476 C   0  0  0  0  0  0  0  0  0  0  0  0
   -7.1105   -0.9913    0.7919 H   0  0  0  0  0  0  0  0  0  0  0  0
   -6.2732   -2.3323   -0.1576 H   0  0  0  0  0  0  0  0  0  0  0  0
   -6.5946   -0.7292   -0.9175 H   0  0  0  0  0  0  0  0  0  0  0  0
   -5.8751    0.8007    1.6065 H   0  0  0  0  0  0  0  0  0  0  0  0
   -5.6601   -0.7728    2.4677 H   0  0  0  0  0  0  0  0  0  0  0  0
   -3.5817   -0.2549    3.1326 H   0  0  0  0  0  0  0  0  0  0  0  0
   -4.0129    1.4774    2.6806 H   0  0  0  0  0  0  0  0  0  0  0  0
   -2.5898   -0.6574    1.2641 H   0  0  0  0  0  0  0  0  0  0  0  0
   -3.8505    1.8292    0.2294 H   0  0  0  0  0  0  0  0  0  0  0  0
    0.6909    1.5810    0.4601 H   0  0  0  0  0  0  0  0  0  0  0  0
   -0.7148    0.8052    1.2540 H   0  0  0  0  0  0  0  0  0  0  0  0
   -0.2530   -1.1229   -0.4373 H   0  0  0  0  0  0  0  0  0  0  0  0
    1.0189   -0.9218    0.8773 H   0  0  0  0  0  0  0  0  0  0  0  0
    2.9947   -0.8308    1.0726 H   0  0  0  0  0  0  0  0  0  0  0  0
    5.1007   -2.5984   -0.3586 H   0  0  0  0  0  0  0  0  0  0  0  0
    7.5925   -2.6723   -0.2797 H   0  0  0  0  0  0  0  0  0  0  0  0
    5.1195    1.4041    0.9200 H   0  0  0  0  0  0  0  0  0  0  0  0
    0.3101   -0.5427   -2.8466 H   0  0  0  0  0  0  0  0  0  0  0  0
    1.6381    0.6191   -3.0221 H   0  0  0  0  0  0  0  0  0  0  0  0
    0.5533    2.3472   -1.9009 H   0  0  0  0  0  0  0  0  0  0  0  0
   -0.7367    1.6224   -2.9094 H   0  0  0  0  0  0  0  0  0  0  0  0
   -3.9049   -0.7621   -1.2255 H   0  0  0  0  0  0  0  0  0  0  0  0
   -5.0944    0.5656   -1.1257 H   0  0  0  0  0  0  0  0  0  0  0  0
  1  2  1  0
  2  3  1  0
  3  4  1  0
  4  5  1  0
  5  6  1  0
  6  7  1  0
  7  8  2  0
  7  9  1  0
  9 10  1  0
 10 11  1  0
 11 12  1  0
 12 13  1  0
 13 14  2  0
 13 15  1  0
 15 16  1  0
 16 17  2  0
 17 18  1  0
 18 19  2  0
 19 20  1  0
 19 21  1  0
 21 22  1  0
 21 23  2  0
 12 24  1  0
 24 25  1  0
  6 26  1  0
 26  2  1  0
 25  9  1  0
 23 16  1  0
  1 27  1  0
  1 28  1  0
  1 29  1  0
  3 30  1  0
  3 31  1  0
  4 32  1  0
  4 33  1  0
  5 34  1  0
  6 35  1  1
 10 36  1  0
 10 37  1  0
 11 38  1  0
 11 39  1  0
 15 40  1  0
 17 41  1  0
 18 42  1  0
 23 43  1  0
 24 44  1  0
 24 45  1  0
 25 46  1  0
 25 47  1  0
 26 48  1  0
 26 49  1  0
M  END
$$$$
