@<TRIPOS>MOLECULE
*****
 62 64 0 0 0
SMALL
GASTEIGER

@<TRIPOS>ATOM
      1 C          -9.1313    2.5378   -0.3159 C.3     1  UNL1        0.0790
      2 O          -8.0812    2.0824   -1.1392 O.3     1  UNL1       -0.4915
      3 C          -7.2077    1.1197   -0.6429 C.ar    1  UNL1        0.1615
      4 C          -7.3960    0.6483    0.6236 C.ar    1  UNL1       -0.0156
      5 C          -6.5459   -0.2994    1.1282 C.ar    1  UNL1       -0.0459
      6 C          -5.4961   -0.7760    0.3471 C.ar    1  UNL1        0.0404
      7 C          -4.6263   -1.7789    0.9301 C.2     1  UNL1        0.2445
      8 O          -4.8006   -2.1432    2.1427 O.2     1  UNL1       -0.2702
      9 N          -3.5873   -2.3657    0.1865 N.am    1  UNL1       -0.3072
     10 C          -2.7276   -3.3555    0.7735 C.3     1  UNL1        0.0372
     11 C          -1.6859   -2.7525    1.6388 C.ar    1  UNL1       -0.0296
     12 C          -1.8167   -2.6185    3.0008 C.ar    1  UNL1       -0.0570
     13 C          -0.7946   -2.0316    3.7148 C.ar    1  UNL1       -0.0607
     14 C           0.3729   -1.5663    3.1078 C.ar    1  UNL1       -0.0496
     15 C           0.5182   -1.6953    1.7364 C.ar    1  UNL1        0.0373
     16 C           1.7084   -1.2344    1.0332 C.2     1  UNL1        0.2483
     17 O           1.7605   -1.3838   -0.2119 O.2     1  UNL1       -0.2699
     18 N           2.7963   -0.6292    1.7081 N.am    1  UNL1       -0.2815
     19 C           3.9343   -0.2034    0.9325 C.ar    1  UNL1        0.0337
     20 C           4.9933   -1.0558    0.7051 C.ar    1  UNL1       -0.0402
     21 C           6.0920   -0.6713   -0.0367 C.ar    1  UNL1       -0.0556
     22 C           6.1772    0.5915   -0.5857 C.ar    1  UNL1       -0.0333
     23 C           7.3497    1.0304   -1.3900 C.3     1  UNL1        0.0235
     24 N           8.3777    1.6251   -0.5984 N.3     1  UNL1       -0.3042
     25 C           7.8960    2.7940    0.0992 C.3     1  UNL1       -0.0127
     26 C           9.4433    2.0374   -1.4954 C.3     1  UNL1       -0.0127
     27 C           5.1199    1.4474   -0.3607 C.ar    1  UNL1       -0.0556
     28 C           4.0095    1.0598    0.3885 C.ar    1  UNL1       -0.0402
     29 C          -0.5182   -2.2861    1.0405 C.ar    1  UNL1       -0.0449
     30 C          -5.2929   -0.3146   -0.9236 C.ar    1  UNL1       -0.0042
     31 C          -6.1561    0.6428   -1.4258 C.ar    1  UNL1        0.1622
     32 O          -6.0433    1.1700   -2.6782 O.3     1  UNL1       -0.4914
     33 C          -5.0915    0.8767   -3.6595 C.3     1  UNL1        0.0790
     34 H          -9.7636    3.2705   -0.8602 H       1  UNL1        0.0660
     35 H          -8.6528    3.0380    0.5578 H       1  UNL1        0.0660
     36 H          -9.7640    1.6905    0.0648 H       1  UNL1        0.0660
     37 H          -8.2199    1.0207    1.2410 H       1  UNL1        0.0655
     38 H          -6.6898   -0.6755    2.1289 H       1  UNL1        0.0626
     39 H          -3.3893   -2.1133   -0.8275 H       1  UNL1        0.1493
     40 H          -3.3615   -4.0330    1.4176 H       1  UNL1        0.0512
     41 H          -2.2472   -4.0056   -0.0015 H       1  UNL1        0.0512
     42 H          -2.6796   -2.9599    3.5482 H       1  UNL1        0.0621
     43 H          -0.8740   -1.9147    4.7894 H       1  UNL1        0.0618
     44 H           1.1595   -1.1089    3.6965 H       1  UNL1        0.0625
     45 H           2.8105   -0.4794    2.7341 H       1  UNL1        0.1551
     46 H           4.9350   -2.0573    1.1358 H       1  UNL1        0.0636
     47 H           6.9329   -1.3381   -0.2208 H       1  UNL1        0.0621
     48 H           7.7775    0.1896   -1.9818 H       1  UNL1        0.0475
     49 H           6.9625    1.7720   -2.1206 H       1  UNL1        0.0475
     50 H           7.1426    2.4708    0.8305 H       1  UNL1        0.0391
     51 H           7.3839    3.4394   -0.6613 H       1  UNL1        0.0391
     52 H           8.7265    3.3614    0.5771 H       1  UNL1        0.0391
     53 H          10.1064    1.1513   -1.6941 H       1  UNL1        0.0391
     54 H           9.0536    2.3321   -2.4957 H       1  UNL1        0.0391
     55 H          10.0694    2.8114   -1.0151 H       1  UNL1        0.0391
     56 H           5.1636    2.4300   -0.7765 H       1  UNL1        0.0621
     57 H           3.1761    1.7244    0.5695 H       1  UNL1        0.0636
     58 H          -0.4026   -2.3872   -0.0388 H       1  UNL1        0.0628
     59 H          -4.4893   -0.6536   -1.5661 H       1  UNL1        0.0663
     60 H          -5.5651    0.7045   -4.6608 H       1  UNL1        0.0660
     61 H          -4.4257    0.0416   -3.4601 H       1  UNL1        0.0660
     62 H          -4.4256    1.7765   -3.8076 H       1  UNL1        0.0660
@<TRIPOS>BOND
     1     1     2    1
     2     2     3    1
     3     3     4   ar
     4     4     5   ar
     5     5     6   ar
     6     6     7    1
     7     7     8    2
     8     7     9   am
     9     9    10    1
    10    10    11    1
    11    11    12   ar
    12    12    13   ar
    13    13    14   ar
    14    14    15   ar
    15    15    16    1
    16    16    17    2
    17    16    18   am
    18    18    19    1
    19    19    20   ar
    20    20    21   ar
    21    21    22   ar
    22    22    23    1
    23    23    24    1
    24    24    25    1
    25    24    26    1
    26    22    27   ar
    27    27    28   ar
    28    15    29   ar
    29     6    30   ar
    30    30    31   ar
    31    31    32    1
    32    32    33    1
    33    31     3   ar
    34    29    11   ar
    35    28    19   ar
    36     1    34    1
    37     1    35    1
    38     1    36    1
    39     4    37    1
    40     5    38    1
    41     9    39    1
    42    10    40    1
    43    10    41    1
    44    12    42    1
    45    13    43    1
    46    14    44    1
    47    18    45    1
    48    20    46    1
    49    21    47    1
    50    23    48    1
    51    23    49    1
    52    25    50    1
    53    25    51    1
    54    25    52    1
    55    26    53    1
    56    26    54    1
    57    26    55    1
    58    27    56    1
    59    28    57    1
    60    29    58    1
    61    30    59    1
    62    33    60    1
    63    33    61    1
    64    33    62    1
