
     RDKit          3D

 90 95  0  0  0  0  0  0  0  0999 V2000
   -4.4781   -6.4956   -2.5482 C   0  0  0  0  0  0  0  0  0  0  0  0
   -4.6538   -6.1300   -1.1891 O   0  0  0  0  0  0  0  0  0  0  0  0
   -5.2206   -4.8773   -0.8905 C   0  0  0  0  0  0  0  0  0  0  0  0
   -5.3949   -4.5136    0.4234 C   0  0  0  0  0  0  0  0  0  0  0  0
   -5.9593   -3.2717    0.7546 C   0  0  0  0  0  0  0  0  0  0  0  0
   -6.3460   -2.4032   -0.2249 C   0  0  0  0  0  0  0  0  0  0  0  0
   -6.9522   -1.1462    0.0354 N   0  0  0  0  0  0  0  0  0  0  0  0
   -8.0842   -0.6955   -0.5607 N   0  0  0  0  0  0  0  0  0  0  0  0
   -8.3913    0.5098   -0.0860 C   0  0  0  0  0  0  0  0  0  0  0  0
   -9.5401    1.3551   -0.4672 C   0  0  0  0  0  0  0  0  0  0  0  0
   -9.0663    2.7091   -0.9905 C   0  0  0  0  0  0  0  0  0  0  0  0
  -10.4428    1.5156    0.7406 C   0  0  0  0  0  0  0  0  0  0  0  0
   -7.4250    0.8179    0.8303 C   0  0  0  0  0  0  0  0  0  0  0  0
   -6.5116   -0.2510    0.8960 C   0  0  0  0  0  0  0  0  0  0  0  0
   -5.4126   -0.1829    1.7885 N   0  0  0  0  0  0  0  0  0  0  0  0
   -4.1644    0.4319    1.4929 C   0  0  0  0  0  0  0  0  0  0  0  0
   -4.0271    0.9159    0.3421 O   0  0  0  0  0  0  0  0  0  0  0  0
   -3.1018    0.5121    2.4551 N   0  0  0  0  0  0  0  0  0  0  0  0
   -1.8607    1.1675    2.1416 C   0  0  0  0  0  0  0  0  0  0  0  0
   -0.7469    0.5566    1.6751 C   0  0  0  0  0  0  0  0  0  0  0  0
    0.3779    1.3251    1.3978 C   0  0  0  0  0  0  0  0  0  0  0  0
    0.4258    2.6943    1.5723 C   0  0  0  0  0  0  0  0  0  0  0  0
    1.4734    3.4895    1.3274 O   0  0  0  0  0  0  0  0  0  0  0  0
    2.7380    3.4134    0.9439 C   0  0  0  0  0  0  0  0  0  0  0  0
    3.4873    4.5991    0.8221 C   0  0  0  0  0  0  0  0  0  0  0  0
    4.7935    4.5487    0.4282 C   0  0  0  0  0  0  0  0  0  0  0  0
    5.3395    3.3625    0.1643 N   0  0  0  0  0  0  0  0  0  0  0  0
    4.6793    2.2039    0.2621 C   0  0  0  0  0  0  0  0  0  0  0  0
    5.2524    0.9576   -0.0122 N   0  0  0  0  0  0  0  0  0  0  0  0
    6.5945    0.7301   -0.3729 C   0  0  0  0  0  0  0  0  0  0  0  0
    7.6391    1.6107   -0.2289 C   0  0  0  0  0  0  0  0  0  0  0  0
    8.9400    1.3191   -0.6284 C   0  0  0  0  0  0  0  0  0  0  0  0
    9.9100    2.2567   -0.4450 O   0  0  0  0  0  0  0  0  0  0  0  0
   11.2532    2.0137   -0.8305 C   0  0  0  0  0  0  0  0  0  0  0  0
    9.2097    0.1012   -1.1939 C   0  0  0  0  0  0  0  0  0  0  0  0
    8.1809   -0.8187   -1.3579 C   0  0  0  0  0  0  0  0  0  0  0  0
    8.5039   -2.1303   -1.9682 C   0  0  0  0  0  0  0  0  0  0  0  0
    9.7028   -2.3630   -2.2305 O   0  0  0  0  0  0  0  0  0  0  0  0
    7.5129   -3.0918   -2.2497 N   0  0  0  0  0  0  0  0  0  0  0  0
    7.7981   -4.3931   -2.8472 C   0  0  0  0  0  0  0  0  0  0  0  0
    8.7346   -5.1742   -1.9247 C   0  0  0  0  0  0  0  0  0  0  0  0
    8.0624   -5.3091   -0.7077 O   0  0  0  0  0  0  0  0  0  0  0  0
    6.9284   -0.5063   -0.9600 C   0  0  0  0  0  0  0  0  0  0  0  0
    3.3889    2.2941    0.6547 N   0  0  0  0  0  0  0  0  0  0  0  0
   -0.7493    3.3130    2.0604 C   0  0  0  0  0  0  0  0  0  0  0  0
   -0.7519    4.6847    2.2504 C   0  0  0  0  0  0  0  0  0  0  0  0
   -1.8684    5.3386    2.7225 C   0  0  0  0  0  0  0  0  0  0  0  0
   -2.9914    4.5693    3.0001 C   0  0  0  0  0  0  0  0  0  0  0  0
   -2.9749    3.2052    2.8061 C   0  0  0  0  0  0  0  0  0  0  0  0
   -1.8538    2.5599    2.3338 C   0  0  0  0  0  0  0  0  0  0  0  0
   -6.1656   -2.7785   -1.5336 C   0  0  0  0  0  0  0  0  0  0  0  0
   -5.6072   -4.0055   -1.8734 C   0  0  0  0  0  0  0  0  0  0  0  0
   -5.4335   -6.5426   -3.1098 H   0  0  0  0  0  0  0  0  0  0  0  0
   -4.0990   -7.5529   -2.5418 H   0  0  0  0  0  0  0  0  0  0  0  0
   -3.7374   -5.8634   -3.0573 H   0  0  0  0  0  0  0  0  0  0  0  0
   -5.0861   -5.2117    1.1935 H   0  0  0  0  0  0  0  0  0  0  0  0
   -6.0949   -2.9864    1.7864 H   0  0  0  0  0  0  0  0  0  0  0  0
  -10.1518    0.8704   -1.2661 H   0  0  0  0  0  0  0  0  0  0  0  0
   -8.3554    3.1051   -0.2507 H   0  0  0  0  0  0  0  0  0  0  0  0
   -9.9556    3.3191   -1.1652 H   0  0  0  0  0  0  0  0  0  0  0  0
   -8.5681    2.4894   -1.9535 H   0  0  0  0  0  0  0  0  0  0  0  0
   -9.8841    1.4480    1.6829 H   0  0  0  0  0  0  0  0  0  0  0  0
  -11.1895    0.6738    0.6948 H   0  0  0  0  0  0  0  0  0  0  0  0
  -10.9924    2.4787    0.7013 H   0  0  0  0  0  0  0  0  0  0  0  0
   -7.3651    1.7390    1.4164 H   0  0  0  0  0  0  0  0  0  0  0  0
   -5.5220   -0.5901    2.7466 H   0  0  0  0  0  0  0  0  0  0  0  0
   -3.2622    0.0803    3.3849 H   0  0  0  0  0  0  0  0  0  0  0  0
   -0.7662   -0.5299    1.5300 H   0  0  0  0  0  0  0  0  0  0  0  0
    1.2623    0.8219    1.0241 H   0  0  0  0  0  0  0  0  0  0  0  0
    2.9972    5.5235    1.0484 H   0  0  0  0  0  0  0  0  0  0  0  0
    5.4041    5.4527    0.3233 H   0  0  0  0  0  0  0  0  0  0  0  0
    4.6260    0.0971    0.0638 H   0  0  0  0  0  0  0  0  0  0  0  0
    7.4348    2.5732    0.2283 H   0  0  0  0  0  0  0  0  0  0  0  0
   11.3009    1.6155   -1.8750 H   0  0  0  0  0  0  0  0  0  0  0  0
   11.7636    1.2625   -0.1778 H   0  0  0  0  0  0  0  0  0  0  0  0
   11.7730    3.0050   -0.7473 H   0  0  0  0  0  0  0  0  0  0  0  0
   10.2097   -0.1786   -1.5236 H   0  0  0  0  0  0  0  0  0  0  0  0
    6.5174   -2.8674   -2.0223 H   0  0  0  0  0  0  0  0  0  0  0  0
    6.8621   -4.9228   -3.0136 H   0  0  0  0  0  0  0  0  0  0  0  0
    8.2981   -4.2417   -3.8499 H   0  0  0  0  0  0  0  0  0  0  0  0
    9.6989   -4.6575   -1.8451 H   0  0  0  0  0  0  0  0  0  0  0  0
    8.8766   -6.2144   -2.3178 H   0  0  0  0  0  0  0  0  0  0  0  0
    8.5149   -5.9291   -0.0810 H   0  0  0  0  0  0  0  0  0  0  0  0
    6.1295   -1.2041   -1.0824 H   0  0  0  0  0  0  0  0  0  0  0  0
    0.1520    5.2464    2.0200 H   0  0  0  0  0  0  0  0  0  0  0  0
   -1.8498    6.4251    2.8639 H   0  0  0  0  0  0  0  0  0  0  0  0
   -3.8865    5.0771    3.3767 H   0  0  0  0  0  0  0  0  0  0  0  0
   -3.8622    2.5912    3.0277 H   0  0  0  0  0  0  0  0  0  0  0  0
   -6.4605   -2.1160   -2.3200 H   0  0  0  0  0  0  0  0  0  0  0  0
   -5.4829   -4.2604   -2.9132 H   0  0  0  0  0  0  0  0  0  0  0  0
  1  2  1  0
  2  3  1  0
  3  4  2  0
  4  5  1  0
  5  6  2  0
  6  7  1  0
  7  8  1  0
  8  9  2  0
  9 10  1  0
 10 11  1  0
 10 12  1  0
  9 13  1  0
 13 14  2  0
 14 15  1  0
 15 16  1  0
 16 17  2  0
 16 18  1  0
 18 19  1  0
 19 20  2  0
 20 21  1  0
 21 22  2  0
 22 23  1  0
 23 24  1  0
 24 25  2  0
 25 26  1  0
 26 27  2  0
 27 28  1  0
 28 29  1  0
 29 30  1  0
 30 31  2  0
 31 32  1  0
 32 33  1  0
 33 34  1  0
 32 35  2  0
 35 36  1  0
 36 37  1  0
 37 38  2  0
 37 39  1  0
 39 40  1  0
 40 41  1  0
 41 42  1  0
 36 43  2  0
 28 44  2  0
 22 45  1  0
 45 46  2  0
 46 47  1  0
 47 48  2  0
 48 49  1  0
 49 50  2  0
  6 51  1  0
 51 52  2  0
 52  3  1  0
 14  7  1  0
 50 19  1  0
 44 24  1  0
 50 45  1  0
 43 30  1  0
  1 53  1  0
  1 54  1  0
  1 55  1  0
  4 56  1  0
  5 57  1  0
 10 58  1  0
 11 59  1  0
 11 60  1  0
 11 61  1  0
 12 62  1  0
 12 63  1  0
 12 64  1  0
 13 65  1  0
 15 66  1  0
 18 67  1  0
 20 68  1  0
 21 69  1  0
 25 70  1  0
 26 71  1  0
 29 72  1  0
 31 73  1  0
 34 74  1  0
 34 75  1  0
 34 76  1  0
 35 77  1  0
 39 78  1  0
 40 79  1  0
 40 80  1  0
 41 81  1  0
 41 82  1  0
 42 83  1  0
 43 84  1  0
 46 85  1  0
 47 86  1  0
 48 87  1  0
 49 88  1  0
 51 89  1  0
 52 90  1  0
M  END
$$$$
