@<TRIPOS>MOLECULE
*****
 90 95 0 0 0
SMALL
GASTEIGER

@<TRIPOS>ATOM
      1 C          -4.4781   -6.4956   -2.5482 C.3     1  UNL1        0.0788
      2 O          -4.6538   -6.1300   -1.1891 O.3     1  UNL1       -0.4951
      3 C          -5.2206   -4.8773   -0.8905 C.ar    1  UNL1        0.1202
      4 C          -5.3949   -4.5136    0.4234 C.ar    1  UNL1       -0.0179
      5 C          -5.9593   -3.2717    0.7546 C.ar    1  UNL1       -0.0327
      6 C          -6.3460   -2.4032   -0.2249 C.ar    1  UNL1        0.0677
      7 N          -6.9522   -1.1462    0.0354 N.ar    1  UNL1       -0.2181
      8 N          -8.0842   -0.6955   -0.5607 N.ar    1  UNL1       -0.1694
      9 C          -8.3913    0.5098   -0.0860 C.ar    1  UNL1        0.0679
     10 C          -9.5401    1.3551   -0.4672 C.3     1  UNL1       -0.0025
     11 C          -9.0663    2.7091   -0.9905 C.3     1  UNL1       -0.0572
     12 C         -10.4428    1.5156    0.7406 C.3     1  UNL1       -0.0572
     13 C          -7.4250    0.8179    0.8303 C.ar    1  UNL1        0.0018
     14 C          -6.5116   -0.2510    0.8960 C.ar    1  UNL1        0.1299
     15 N          -5.4126   -0.1829    1.7885 N.am    1  UNL1       -0.2538
     16 C          -4.1644    0.4319    1.4929 C.2     1  UNL1        0.3092
     17 O          -4.0271    0.9159    0.3421 O.2     1  UNL1       -0.2521
     18 N          -3.1018    0.5121    2.4551 N.am    1  UNL1       -0.2686
     19 C          -1.8607    1.1675    2.1416 C.ar    1  UNL1        0.0427
     20 C          -0.7469    0.5566    1.6751 C.ar    1  UNL1       -0.0363
     21 C           0.3779    1.3251    1.3978 C.ar    1  UNL1       -0.0169
     22 C           0.4258    2.6943    1.5723 C.ar    1  UNL1        0.1381
     23 O           1.4734    3.4895    1.3274 O.3     1  UNL1       -0.4373
     24 C           2.7380    3.4134    0.9439 C.ar    1  UNL1        0.2249
     25 C           3.4873    4.5991    0.8221 C.ar    1  UNL1        0.0186
     26 C           4.7935    4.5487    0.4282 C.ar    1  UNL1        0.0362
     27 N           5.3395    3.3625    0.1643 N.ar    1  UNL1       -0.2225
     28 C           4.6793    2.2039    0.2621 C.ar    1  UNL1        0.2226
     29 N           5.2524    0.9576   -0.0122 N.pl3   1  UNL1       -0.2834
     30 C           6.5945    0.7301   -0.3729 C.ar    1  UNL1        0.0378
     31 C           7.6391    1.6107   -0.2289 C.ar    1  UNL1        0.0013
     32 C           8.9400    1.3191   -0.6284 C.ar    1  UNL1        0.1226
     33 O           9.9100    2.2567   -0.4450 O.3     1  UNL1       -0.4950
     34 C          11.2532    2.0137   -0.8305 C.3     1  UNL1        0.0788
     35 C           9.2097    0.1012   -1.1939 C.ar    1  UNL1       -0.0077
     36 C           8.1809   -0.8187   -1.3579 C.ar    1  UNL1        0.0419
     37 C           8.5039   -2.1303   -1.9682 C.2     1  UNL1        0.2443
     38 O           9.7028   -2.3630   -2.2305 O.2     1  UNL1       -0.2702
     39 N           7.5129   -3.0918   -2.2497 N.am    1  UNL1       -0.3092
     40 C           7.7981   -4.3931   -2.8472 C.3     1  UNL1        0.0351
     41 C           8.7346   -5.1742   -1.9247 C.3     1  UNL1        0.0597
     42 O           8.0624   -5.3091   -0.7077 O.3     1  UNL1       -0.3935
     43 C           6.9284   -0.5063   -0.9600 C.ar    1  UNL1       -0.0281
     44 N           3.3889    2.2941    0.6547 N.ar    1  UNL1       -0.1789
     45 C          -0.7493    3.3130    2.0604 C.ar    1  UNL1        0.0262
     46 C          -0.7519    4.6847    2.2504 C.ar    1  UNL1       -0.0505
     47 C          -1.8684    5.3386    2.7225 C.ar    1  UNL1       -0.0611
     48 C          -2.9914    4.5693    3.0001 C.ar    1  UNL1       -0.0611
     49 C          -2.9749    3.2052    2.8061 C.ar    1  UNL1       -0.0521
     50 C          -1.8538    2.5599    2.3338 C.ar    1  UNL1        0.0069
     51 C          -6.1656   -2.7785   -1.5336 C.ar    1  UNL1       -0.0327
     52 C          -5.6072   -4.0055   -1.8734 C.ar    1  UNL1       -0.0179
     53 H          -5.4335   -6.5426   -3.1098 H       1  UNL1        0.0660
     54 H          -4.0990   -7.5529   -2.5418 H       1  UNL1        0.0660
     55 H          -3.7374   -5.8634   -3.0573 H       1  UNL1        0.0660
     56 H          -5.0861   -5.2117    1.1935 H       1  UNL1        0.0655
     57 H          -6.0949   -2.9864    1.7864 H       1  UNL1        0.0640
     58 H         -10.1518    0.8704   -1.2661 H       1  UNL1        0.0359
     59 H          -8.3554    3.1051   -0.2507 H       1  UNL1        0.0236
     60 H          -9.9556    3.3191   -1.1652 H       1  UNL1        0.0236
     61 H          -8.5681    2.4894   -1.9535 H       1  UNL1        0.0236
     62 H          -9.8841    1.4480    1.6829 H       1  UNL1        0.0236
     63 H         -11.1895    0.6738    0.6948 H       1  UNL1        0.0236
     64 H         -10.9924    2.4787    0.7013 H       1  UNL1        0.0236
     65 H          -7.3651    1.7390    1.4164 H       1  UNL1        0.0671
     66 H          -5.5220   -0.5901    2.7466 H       1  UNL1        0.1578
     67 H          -3.2622    0.0803    3.3849 H       1  UNL1        0.1564
     68 H          -0.7662   -0.5299    1.5300 H       1  UNL1        0.0637
     69 H           1.2623    0.8219    1.0241 H       1  UNL1        0.0655
     70 H           2.9972    5.5235    1.0484 H       1  UNL1        0.0686
     71 H           5.4041    5.4527    0.3233 H       1  UNL1        0.0832
     72 H           4.6260    0.0971    0.0638 H       1  UNL1        0.1550
     73 H           7.4348    2.5732    0.2283 H       1  UNL1        0.0673
     74 H          11.3009    1.6155   -1.8750 H       1  UNL1        0.0660
     75 H          11.7636    1.2625   -0.1778 H       1  UNL1        0.0660
     76 H          11.7730    3.0050   -0.7473 H       1  UNL1        0.0660
     77 H          10.2097   -0.1786   -1.5236 H       1  UNL1        0.0662
     78 H           6.5174   -2.8674   -2.0223 H       1  UNL1        0.1491
     79 H           6.8621   -4.9228   -3.0136 H       1  UNL1        0.0485
     80 H           8.2981   -4.2417   -3.8499 H       1  UNL1        0.0485
     81 H           9.6989   -4.6575   -1.8451 H       1  UNL1        0.0573
     82 H           8.8766   -6.2144   -2.3178 H       1  UNL1        0.0573
     83 H           8.5149   -5.9291   -0.0810 H       1  UNL1        0.2095
     84 H           6.1295   -1.2041   -1.0824 H       1  UNL1        0.0644
     85 H           0.1520    5.2464    2.0200 H       1  UNL1        0.0625
     86 H          -1.8498    6.4251    2.8639 H       1  UNL1        0.0618
     87 H          -3.8865    5.0771    3.3767 H       1  UNL1        0.0618
     88 H          -3.8622    2.5912    3.0277 H       1  UNL1        0.0624
     89 H          -6.4605   -2.1160   -2.3200 H       1  UNL1        0.0640
     90 H          -5.4829   -4.2604   -2.9132 H       1  UNL1        0.0655
@<TRIPOS>BOND
     1     1     2    1
     2     2     3    1
     3     3     4   ar
     4     4     5   ar
     5     5     6   ar
     6     6     7    1
     7     7     8   ar
     8     8     9   ar
     9     9    10    1
    10    10    11    1
    11    10    12    1
    12     9    13   ar
    13    13    14   ar
    14    14    15    1
    15    15    16   am
    16    16    17    2
    17    16    18   am
    18    18    19    1
    19    19    20   ar
    20    20    21   ar
    21    21    22   ar
    22    22    23    1
    23    23    24    1
    24    24    25   ar
    25    25    26   ar
    26    26    27   ar
    27    27    28   ar
    28    28    29    1
    29    29    30    1
    30    30    31   ar
    31    31    32   ar
    32    32    33    1
    33    33    34    1
    34    32    35   ar
    35    35    36   ar
    36    36    37    1
    37    37    38    2
    38    37    39   am
    39    39    40    1
    40    40    41    1
    41    41    42    1
    42    36    43   ar
    43    28    44   ar
    44    22    45   ar
    45    45    46   ar
    46    46    47   ar
    47    47    48   ar
    48    48    49   ar
    49    49    50   ar
    50     6    51   ar
    51    51    52   ar
    52    52     3   ar
    53    14     7   ar
    54    50    19   ar
    55    44    24   ar
    56    50    45   ar
    57    43    30   ar
    58     1    53    1
    59     1    54    1
    60     1    55    1
    61     4    56    1
    62     5    57    1
    63    10    58    1
    64    11    59    1
    65    11    60    1
    66    11    61    1
    67    12    62    1
    68    12    63    1
    69    12    64    1
    70    13    65    1
    71    15    66    1
    72    18    67    1
    73    20    68    1
    74    21    69    1
    75    25    70    1
    76    26    71    1
    77    29    72    1
    78    31    73    1
    79    34    74    1
    80    34    75    1
    81    34    76    1
    82    35    77    1
    83    39    78    1
    84    40    79    1
    85    40    80    1
    86    41    81    1
    87    41    82    1
    88    42    83    1
    89    43    84    1
    90    46    85    1
    91    47    86    1
    92    48    87    1
    93    49    88    1
    94    51    89    1
    95    52    90    1
