@<TRIPOS>MOLECULE
*****
 43 47 0 0 0
SMALL
GASTEIGER

@<TRIPOS>ATOM
      1 C           0.6086    1.9822    1.1131 C.3     1  UNL1        0.1677
      2 O           1.8288    1.2825    1.4116 O.3     1  UNL1       -0.4765
      3 C           1.8930    0.1301    0.6472 C.ar    1  UNL1        0.1670
      4 C           2.8514   -0.7715    0.1746 C.ar    1  UNL1        0.1618
      5 O           4.1617   -0.5081    0.5324 O.3     1  UNL1       -0.4914
      6 C           5.2783   -1.2645    0.1791 C.3     1  UNL1        0.0790
      7 C           2.4461   -1.8413   -0.5993 C.ar    1  UNL1       -0.0160
      8 C           1.1294   -2.0809   -0.9420 C.ar    1  UNL1       -0.0546
      9 C           0.1853   -1.1919   -0.4758 C.ar    1  UNL1       -0.0383
     10 C           0.5965   -0.1466    0.2825 C.ar    1  UNL1        0.0116
     11 C          -0.3432    0.8673    0.8335 C.3     1  UNL1        0.0488
     12 C          -1.0378    0.3946    2.0866 C.3     1  UNL1       -0.0263
     13 C          -2.0448   -0.6618    1.8229 C.3     1  UNL1       -0.0002
     14 N          -2.9033   -0.4061    0.6968 N.3     1  UNL1       -0.3018
     15 C          -3.8312   -1.4601    0.4955 C.3     1  UNL1       -0.0125
     16 C          -2.0843   -0.1791   -0.5047 C.3     1  UNL1        0.0179
     17 C          -1.2496   -1.3728   -0.7963 C.3     1  UNL1       -0.0113
     18 C          -1.3614    1.1019   -0.2228 C.3     1  UNL1       -0.0111
     19 C          -0.8123    1.7922   -1.4475 C.3     1  UNL1       -0.0410
     20 C          -0.3302    3.1466   -0.9374 C.3     1  UNL1        0.0099
     21 C           0.8368    2.8714   -0.0461 C.2     1  UNL1        0.1744
     22 O           1.9215    3.3985   -0.3245 O.2     1  UNL1       -0.2934
     23 H           0.3795    2.5897    2.0028 H       1  UNL1        0.0823
     24 H           5.6066   -1.8581    1.0822 H       1  UNL1        0.0660
     25 H           6.1481   -0.5746    0.0025 H       1  UNL1        0.0660
     26 H           5.1452   -1.9179   -0.6853 H       1  UNL1        0.0660
     27 H           3.2207   -2.5364   -0.9587 H       1  UNL1        0.0655
     28 H           0.8410   -2.9320   -1.5529 H       1  UNL1        0.0622
     29 H          -0.2699   -0.0165    2.7711 H       1  UNL1        0.0287
     30 H          -1.4369    1.2972    2.5826 H       1  UNL1        0.0287
     31 H          -2.7343   -0.6794    2.7168 H       1  UNL1        0.0427
     32 H          -1.6100   -1.6642    1.7817 H       1  UNL1        0.0427
     33 H          -4.8456   -1.1399    0.8169 H       1  UNL1        0.0391
     34 H          -3.5512   -2.4197    0.9768 H       1  UNL1        0.0391
     35 H          -3.9238   -1.6916   -0.6050 H       1  UNL1        0.0391
     36 H          -2.7803   -0.0174   -1.3544 H       1  UNL1        0.0469
     37 H          -1.6175   -2.2196   -0.1809 H       1  UNL1        0.0329
     38 H          -1.3497   -1.6966   -1.8401 H       1  UNL1        0.0329
     39 H          -2.1221    1.7975    0.1958 H       1  UNL1        0.0326
     40 H           0.0490    1.3044   -1.9043 H       1  UNL1        0.0273
     41 H          -1.6778    1.9169   -2.1416 H       1  UNL1        0.0273
     42 H          -0.0639    3.8449   -1.7525 H       1  UNL1        0.0343
     43 H          -1.1466    3.5308   -0.2884 H       1  UNL1        0.0343
@<TRIPOS>BOND
     1     1     2    1
     2     2     3    1
     3     3     4   ar
     4     4     5    1
     5     5     6    1
     6     4     7   ar
     7     7     8   ar
     8     8     9   ar
     9     9    10   ar
    10    10    11    1
    11    11    12    1
    12    12    13    1
    13    13    14    1
    14    14    15    1
    15    14    16    1
    16    16    17    1
    17    16    18    1
    18    18    19    1
    19    19    20    1
    20    20    21    1
    21    21    22    2
    22    11     1    1
    23    18    11    1
    24    21     1    1
    25    10     3   ar
    26    17     9    1
    27     1    23    1
    28     6    24    1
    29     6    25    1
    30     6    26    1
    31     7    27    1
    32     8    28    1
    33    12    29    1
    34    12    30    1
    35    13    31    1
    36    13    32    1
    37    15    33    1
    38    15    34    1
    39    15    35    1
    40    16    36    1
    41    17    37    1
    42    17    38    1
    43    18    39    1
    44    19    40    1
    45    19    41    1
    46    20    42    1
    47    20    43    1
