
     RDKit          3D

 43 47  0  0  0  0  0  0  0  0999 V2000
    0.6086    1.9822    1.1131 C   0  0  2  0  0  0  0  0  0  0  0  0
    1.8288    1.2825    1.4116 O   0  0  0  0  0  0  0  0  0  0  0  0
    1.8930    0.1301    0.6472 C   0  0  0  0  0  0  0  0  0  0  0  0
    2.8514   -0.7715    0.1746 C   0  0  0  0  0  0  0  0  0  0  0  0
    4.1617   -0.5081    0.5324 O   0  0  0  0  0  0  0  0  0  0  0  0
    5.2783   -1.2645    0.1791 C   0  0  0  0  0  0  0  0  0  0  0  0
    2.4461   -1.8413   -0.5993 C   0  0  0  0  0  0  0  0  0  0  0  0
    1.1294   -2.0809   -0.9420 C   0  0  0  0  0  0  0  0  0  0  0  0
    0.1853   -1.1919   -0.4758 C   0  0  0  0  0  0  0  0  0  0  0  0
    0.5965   -0.1466    0.2825 C   0  0  0  0  0  0  0  0  0  0  0  0
   -0.3432    0.8673    0.8335 C   0  0  1  0  0  0  0  0  0  0  0  0
   -1.0378    0.3946    2.0866 C   0  0  0  0  0  0  0  0  0  0  0  0
   -2.0448   -0.6618    1.8229 C   0  0  0  0  0  0  0  0  0  0  0  0
   -2.9033   -0.4061    0.6968 N   0  0  0  0  0  0  0  0  0  0  0  0
   -3.8312   -1.4601    0.4955 C   0  0  0  0  0  0  0  0  0  0  0  0
   -2.0843   -0.1791   -0.5047 C   0  0  2  0  0  0  0  0  0  0  0  0
   -1.2496   -1.3728   -0.7963 C   0  0  0  0  0  0  0  0  0  0  0  0
   -1.3614    1.1019   -0.2228 C   0  0  2  0  0  0  0  0  0  0  0  0
   -0.8123    1.7922   -1.4475 C   0  0  0  0  0  0  0  0  0  0  0  0
   -0.3302    3.1466   -0.9374 C   0  0  0  0  0  0  0  0  0  0  0  0
    0.8368    2.8714   -0.0461 C   0  0  0  0  0  0  0  0  0  0  0  0
    1.9215    3.3985   -0.3245 O   0  0  0  0  0  0  0  0  0  0  0  0
    0.3795    2.5897    2.0028 H   0  0  0  0  0  0  0  0  0  0  0  0
    5.6066   -1.8581    1.0822 H   0  0  0  0  0  0  0  0  0  0  0  0
    6.1481   -0.5746    0.0025 H   0  0  0  0  0  0  0  0  0  0  0  0
    5.1452   -1.9179   -0.6853 H   0  0  0  0  0  0  0  0  0  0  0  0
    3.2207   -2.5364   -0.9587 H   0  0  0  0  0  0  0  0  0  0  0  0
    0.8410   -2.9320   -1.5529 H   0  0  0  0  0  0  0  0  0  0  0  0
   -0.2699   -0.0165    2.7711 H   0  0  0  0  0  0  0  0  0  0  0  0
   -1.4369    1.2972    2.5826 H   0  0  0  0  0  0  0  0  0  0  0  0
   -2.7343   -0.6794    2.7168 H   0  0  0  0  0  0  0  0  0  0  0  0
   -1.6100   -1.6642    1.7817 H   0  0  0  0  0  0  0  0  0  0  0  0
   -4.8456   -1.1399    0.8169 H   0  0  0  0  0  0  0  0  0  0  0  0
   -3.5512   -2.4197    0.9768 H   0  0  0  0  0  0  0  0  0  0  0  0
   -3.9238   -1.6916   -0.6050 H   0  0  0  0  0  0  0  0  0  0  0  0
   -2.7803   -0.0174   -1.3544 H   0  0  0  0  0  0  0  0  0  0  0  0
   -1.6175   -2.2196   -0.1809 H   0  0  0  0  0  0  0  0  0  0  0  0
   -1.3497   -1.6966   -1.8401 H   0  0  0  0  0  0  0  0  0  0  0  0
   -2.1221    1.7975    0.1958 H   0  0  0  0  0  0  0  0  0  0  0  0
    0.0490    1.3044   -1.9043 H   0  0  0  0  0  0  0  0  0  0  0  0
   -1.6778    1.9169   -2.1416 H   0  0  0  0  0  0  0  0  0  0  0  0
   -0.0639    3.8449   -1.7525 H   0  0  0  0  0  0  0  0  0  0  0  0
   -1.1466    3.5308   -0.2884 H   0  0  0  0  0  0  0  0  0  0  0  0
  1  2  1  0
  2  3  1  0
  3  4  2  0
  4  5  1  0
  5  6  1  0
  4  7  1  0
  7  8  2  0
  8  9  1  0
  9 10  2  0
 10 11  1  0
 11 12  1  1
 12 13  1  0
 13 14  1  0
 14 15  1  0
 14 16  1  0
 16 17  1  0
 16 18  1  0
 18 19  1  0
 19 20  1  0
 20 21  1  0
 21 22  2  0
 11  1  1  0
 18 11  1  0
 21  1  1  0
 10  3  1  0
 17  9  1  0
  1 23  1  1
  6 24  1  0
  6 25  1  0
  6 26  1  0
  7 27  1  0
  8 28  1  0
 12 29  1  0
 12 30  1  0
 13 31  1  0
 13 32  1  0
 15 33  1  0
 15 34  1  0
 15 35  1  0
 16 36  1  6
 17 37  1  0
 17 38  1  0
 18 39  1  1
 19 40  1  0
 19 41  1  0
 20 42  1  0
 20 43  1  0
M  END
$$$$
