@<TRIPOS>MOLECULE
*****
 44 45 0 0 0
SMALL
GASTEIGER

@<TRIPOS>ATOM
      1 C          -9.7930    1.0737   -0.1650 C.3     1  UNL1        0.0820
      2 O          -8.4029    1.0234    0.1709 O.3     1  UNL1       -0.4645
      3 C          -7.7061   -0.1610    0.2445 C.2     1  UNL1        0.3389
      4 O          -8.2742   -1.2545    0.0162 O.2     1  UNL1       -0.2450
      5 C          -6.2903   -0.1871    0.5887 C.ar    1  UNL1        0.0590
      6 C          -5.5818   -1.3646    0.6657 C.ar    1  UNL1       -0.0474
      7 C          -4.2414   -1.4289    0.9883 C.ar    1  UNL1       -0.0545
      8 C          -3.5605   -0.2591    1.2505 C.ar    1  UNL1       -0.0078
      9 C          -2.1238   -0.3290    1.5962 C.3     1  UNL1        0.1429
     10 O          -1.3934   -0.2425    0.3922 O.2     1  UNL1       -0.3890
     11 N           0.0004   -0.2797    0.3812 N.2     1  UNL1       -0.0922
     12 C           0.6638    0.2106   -0.6095 C.2     1  UNL1        0.0736
     13 C           2.1086    0.1978   -0.6707 C.ar    1  UNL1       -0.0038
     14 C           2.8424   -0.3512    0.3507 C.ar    1  UNL1       -0.0525
     15 C           4.2427   -0.3631    0.2904 C.ar    1  UNL1       -0.0540
     16 C           4.9406    0.1618   -0.7696 C.ar    1  UNL1       -0.0248
     17 C           6.3911    0.1684   -0.8689 C.2     1  UNL1       -0.0496
     18 C           7.2328   -0.3095    0.0081 C.2     1  UNL1        0.0027
     19 C           8.6802   -0.2954   -0.1056 C.2     1  UNL1        0.2593
     20 O           9.3524   -0.7970    0.8273 O.2     1  UNL1       -0.2687
     21 N           9.3624    0.2490   -1.2024 N.am    1  UNL1       -0.1940
     22 O          10.7338    0.2501   -1.2864 O.3     1  UNL1       -0.2949
     23 C           4.1571    0.7108   -1.7882 C.ar    1  UNL1       -0.0540
     24 C           2.7824    0.7290   -1.7417 C.ar    1  UNL1       -0.0525
     25 C          -4.2374    0.9477    1.1836 C.ar    1  UNL1       -0.0545
     26 C          -5.5795    0.9759    0.8576 C.ar    1  UNL1       -0.0474
     27 H          -9.8736    1.6549   -1.1153 H       1  UNL1        0.0661
     28 H         -10.2896    1.6208    0.6516 H       1  UNL1        0.0661
     29 H         -10.2109    0.0775   -0.3626 H       1  UNL1        0.0661
     30 H          -6.1162   -2.2980    0.4587 H       1  UNL1        0.0626
     31 H          -3.6984   -2.3775    1.0436 H       1  UNL1        0.0622
     32 H          -1.8722    0.5705    2.2003 H       1  UNL1        0.0775
     33 H          -1.8792   -1.2599    2.1651 H       1  UNL1        0.0775
     34 H           0.1217    0.6511   -1.4319 H       1  UNL1        0.0869
     35 H           2.3184   -0.7704    1.1954 H       1  UNL1        0.0624
     36 H           4.8000   -0.8075    1.1194 H       1  UNL1        0.0624
     37 H           6.8208    0.6157   -1.7623 H       1  UNL1        0.0625
     38 H           6.7722   -0.7572    0.9041 H       1  UNL1        0.0670
     39 H           8.8144    0.6676   -1.9819 H       1  UNL1        0.1825
     40 H          11.0195   -0.5103   -0.6938 H       1  UNL1        0.2414
     41 H           4.6436    1.1388   -2.6477 H       1  UNL1        0.0624
     42 H           2.1721    1.1552   -2.5322 H       1  UNL1        0.0624
     43 H          -3.7168    1.8856    1.3876 H       1  UNL1        0.0622
     44 H          -6.1325    1.9001    0.7979 H       1  UNL1        0.0626
@<TRIPOS>BOND
     1     1     2    1
     2     2     3    1
     3     3     4    2
     4     3     5    1
     5     5     6   ar
     6     6     7   ar
     7     7     8   ar
     8     8     9    1
     9     9    10    1
    10    10    11    1
    11    11    12    2
    12    12    13    1
    13    13    14   ar
    14    14    15   ar
    15    15    16   ar
    16    16    17    1
    17    17    18    2
    18    18    19    1
    19    19    20    2
    20    19    21   am
    21    21    22    1
    22    16    23   ar
    23    23    24   ar
    24     8    25   ar
    25    25    26   ar
    26    26     5   ar
    27    24    13   ar
    28     1    27    1
    29     1    28    1
    30     1    29    1
    31     6    30    1
    32     7    31    1
    33     9    32    1
    34     9    33    1
    35    12    34    1
    36    14    35    1
    37    15    36    1
    38    17    37    1
    39    18    38    1
    40    21    39    1
    41    22    40    1
    42    23    41    1
    43    24    42    1
    44    25    43    1
    45    26    44    1
