
     RDKit          3D

 44 45  0  0  0  0  0  0  0  0999 V2000
   -9.7930    1.0737   -0.1650 C   0  0  0  0  0  0  0  0  0  0  0  0
   -8.4029    1.0234    0.1709 O   0  0  0  0  0  0  0  0  0  0  0  0
   -7.7061   -0.1610    0.2445 C   0  0  0  0  0  0  0  0  0  0  0  0
   -8.2742   -1.2545    0.0162 O   0  0  0  0  0  0  0  0  0  0  0  0
   -6.2903   -0.1871    0.5887 C   0  0  0  0  0  0  0  0  0  0  0  0
   -5.5818   -1.3646    0.6657 C   0  0  0  0  0  0  0  0  0  0  0  0
   -4.2414   -1.4289    0.9883 C   0  0  0  0  0  0  0  0  0  0  0  0
   -3.5605   -0.2591    1.2505 C   0  0  0  0  0  0  0  0  0  0  0  0
   -2.1238   -0.3290    1.5962 C   0  0  0  0  0  0  0  0  0  0  0  0
   -1.3934   -0.2425    0.3922 O   0  0  0  0  0  0  0  0  0  0  0  0
    0.0004   -0.2797    0.3812 N   0  0  0  0  0  0  0  0  0  0  0  0
    0.6638    0.2106   -0.6095 C   0  0  0  0  0  0  0  0  0  0  0  0
    2.1086    0.1978   -0.6707 C   0  0  0  0  0  0  0  0  0  0  0  0
    2.8424   -0.3512    0.3507 C   0  0  0  0  0  0  0  0  0  0  0  0
    4.2427   -0.3631    0.2904 C   0  0  0  0  0  0  0  0  0  0  0  0
    4.9406    0.1618   -0.7696 C   0  0  0  0  0  0  0  0  0  0  0  0
    6.3911    0.1684   -0.8689 C   0  0  0  0  0  0  0  0  0  0  0  0
    7.2328   -0.3095    0.0081 C   0  0  0  0  0  0  0  0  0  0  0  0
    8.6802   -0.2954   -0.1056 C   0  0  0  0  0  0  0  0  0  0  0  0
    9.3524   -0.7970    0.8273 O   0  0  0  0  0  0  0  0  0  0  0  0
    9.3624    0.2490   -1.2024 N   0  0  0  0  0  0  0  0  0  0  0  0
   10.7338    0.2501   -1.2864 O   0  0  0  0  0  0  0  0  0  0  0  0
    4.1571    0.7108   -1.7882 C   0  0  0  0  0  0  0  0  0  0  0  0
    2.7824    0.7290   -1.7417 C   0  0  0  0  0  0  0  0  0  0  0  0
   -4.2374    0.9477    1.1836 C   0  0  0  0  0  0  0  0  0  0  0  0
   -5.5795    0.9759    0.8576 C   0  0  0  0  0  0  0  0  0  0  0  0
   -9.8736    1.6549   -1.1153 H   0  0  0  0  0  0  0  0  0  0  0  0
  -10.2896    1.6208    0.6516 H   0  0  0  0  0  0  0  0  0  0  0  0
  -10.2109    0.0775   -0.3626 H   0  0  0  0  0  0  0  0  0  0  0  0
   -6.1162   -2.2980    0.4587 H   0  0  0  0  0  0  0  0  0  0  0  0
   -3.6984   -2.3775    1.0436 H   0  0  0  0  0  0  0  0  0  0  0  0
   -1.8722    0.5705    2.2003 H   0  0  0  0  0  0  0  0  0  0  0  0
   -1.8792   -1.2599    2.1651 H   0  0  0  0  0  0  0  0  0  0  0  0
    0.1217    0.6511   -1.4319 H   0  0  0  0  0  0  0  0  0  0  0  0
    2.3184   -0.7704    1.1954 H   0  0  0  0  0  0  0  0  0  0  0  0
    4.8000   -0.8075    1.1194 H   0  0  0  0  0  0  0  0  0  0  0  0
    6.8208    0.6157   -1.7623 H   0  0  0  0  0  0  0  0  0  0  0  0
    6.7722   -0.7572    0.9041 H   0  0  0  0  0  0  0  0  0  0  0  0
    8.8144    0.6676   -1.9819 H   0  0  0  0  0  0  0  0  0  0  0  0
   11.0195   -0.5103   -0.6938 H   0  0  0  0  0  0  0  0  0  0  0  0
    4.6436    1.1388   -2.6477 H   0  0  0  0  0  0  0  0  0  0  0  0
    2.1721    1.1552   -2.5322 H   0  0  0  0  0  0  0  0  0  0  0  0
   -3.7168    1.8856    1.3876 H   0  0  0  0  0  0  0  0  0  0  0  0
   -6.1325    1.9001    0.7979 H   0  0  0  0  0  0  0  0  0  0  0  0
  1  2  1  0
  2  3  1  0
  3  4  2  0
  3  5  1  0
  5  6  2  0
  6  7  1  0
  7  8  2  0
  8  9  1  0
  9 10  1  0
 10 11  1  0
 11 12  2  0
 12 13  1  0
 13 14  2  0
 14 15  1  0
 15 16  2  0
 16 17  1  0
 17 18  2  0
 18 19  1  0
 19 20  2  0
 19 21  1  0
 21 22  1  0
 16 23  1  0
 23 24  2  0
  8 25  1  0
 25 26  2  0
 26  5  1  0
 24 13  1  0
  1 27  1  0
  1 28  1  0
  1 29  1  0
  6 30  1  0
  7 31  1  0
  9 32  1  0
  9 33  1  0
 12 34  1  0
 14 35  1  0
 15 36  1  0
 17 37  1  0
 18 38  1  0
 21 39  1  0
 22 40  1  0
 23 41  1  0
 24 42  1  0
 25 43  1  0
 26 44  1  0
M  END
$$$$
