@<TRIPOS>MOLECULE
*****
 77 81 0 0 0
SMALL
GASTEIGER

@<TRIPOS>ATOM
      1 C          -6.0559    1.8902    0.1088 C.3     1  UNL1        0.1423
      2 C          -4.6856    2.1113    0.6045 C.3     1  UNL1        0.0222
      3 C          -3.9029    0.9354    0.0681 C.3     1  UNL1        0.1025
      4 O          -2.8750    1.3220   -0.7912 O.3     1  UNL1       -0.2802
      5 P          -1.3674    0.7642   -0.3532 P.3     1  UNL1        0.4837
      6 O          -0.2490    1.4919   -1.4119 O.3     1  UNL1       -0.3022
      7 O          -0.9627    1.2435    1.0413 O.2     1  UNL1       -0.2269
      8 O          -1.2532   -0.9025   -0.3790 O.3     1  UNL1       -0.1860
      9 P           0.3115   -1.4594   -0.5414 P.3     1  UNL1        0.4835
     10 O           0.7731   -2.2895    0.8568 O.3     1  UNL1       -0.3022
     11 O           0.3256   -2.4702   -1.6803 O.2     1  UNL1       -0.2269
     12 O           1.4121   -0.2135   -0.8470 O.3     1  UNL1       -0.2837
     13 C           2.6454   -0.7303   -1.2391 C.3     1  UNL1        0.0879
     14 C           3.5712    0.4338   -1.4963 C.3     1  UNL1        0.1142
     15 O           3.7778    1.2410   -0.4136 O.3     1  UNL1       -0.3456
     16 C           5.1130    1.5965   -0.3367 C.3     1  UNL1        0.1667
     17 N           5.6832    0.8616    0.7829 N.ar    1  UNL1       -0.2855
     18 C           5.0233    0.1682    1.7468 C.ar    1  UNL1        0.1004
     19 N           5.8992   -0.3742    2.6089 N.ar    1  UNL1       -0.2306
     20 C           7.1329   -0.0258    2.1945 C.ar    1  UNL1        0.1473
     21 C           8.3514   -0.3471    2.7593 C.ar    1  UNL1        0.1472
     22 N           8.4077   -1.1486    3.9368 N.pl3   1  UNL1       -0.3413
     23 N           9.4622    0.1316    2.1447 N.ar    1  UNL1       -0.2188
     24 C           9.3443    0.8902    1.0250 C.ar    1  UNL1        0.1205
     25 N           8.1467    1.2098    0.4644 N.ar    1  UNL1       -0.2159
     26 C           7.0171    0.7546    1.0430 C.ar    1  UNL1        0.1674
     27 C           5.7674    1.1864   -1.6312 C.3     1  UNL1        0.1294
     28 O           5.5340    2.1911   -2.5758 O.3     1  UNL1       -0.3846
     29 C           4.9268   -0.0225   -1.9921 C.3     1  UNL1        0.1283
     30 O           4.9657   -0.3267   -3.3304 O.3     1  UNL1       -0.2780
     31 P           5.5186   -1.9036   -3.4976 P.3     1  UNL1        0.4728
     32 O           4.6316   -2.9156   -2.4948 O.3     1  UNL1       -0.3026
     33 O           5.4519   -2.4084   -5.1121 O.3     1  UNL1       -0.3026
     34 O           6.9638   -1.9390   -3.0358 O.2     1  UNL1       -0.2275
     35 C          -4.8878    0.1564   -0.7372 C.3     1  UNL1        0.1117
     36 C          -4.9643   -1.3022   -0.2832 C.3     1  UNL1        0.0878
     37 O          -5.8312   -2.0368   -1.0489 O.3     1  UNL1       -0.2841
     38 P          -5.8530   -3.6235   -0.4825 P.3     1  UNL1        0.4724
     39 O          -7.0158   -3.8176    0.7276 O.3     1  UNL1       -0.3026
     40 O          -6.2471   -4.6635   -1.7621 O.3     1  UNL1       -0.3026
     41 O          -4.5234   -3.9950    0.0798 O.2     1  UNL1       -0.2275
     42 O          -6.1256    0.7437   -0.6499 O.3     1  UNL1       -0.3483
     43 N          -7.1121    1.9070    1.0841 N.ar    1  UNL1       -0.2724
     44 C          -8.2898    2.5661    0.8870 C.ar    1  UNL1        0.0169
     45 C          -9.3291    2.6115    1.7887 C.ar    1  UNL1        0.0163
     46 C          -9.1628    1.9310    2.9947 C.ar    1  UNL1        0.2182
     47 O         -10.2214    1.9828    3.9020 O.3     1  UNL1       -0.4923
     48 N          -7.9907    1.2652    3.2102 N.ar    1  UNL1       -0.1577
     49 C          -7.0375    1.2780    2.2743 C.ar    1  UNL1        0.3535
     50 O          -6.0204    0.6431    2.5760 O.2     1  UNL1       -0.2443
     51 H          -6.2985    2.7290   -0.6094 H       1  UNL1        0.0840
     52 H          -4.2045    3.0273    0.1716 H       1  UNL1        0.0335
     53 H          -4.5694    2.2511    1.6974 H       1  UNL1        0.0335
     54 H          -3.4475    0.3281    0.8656 H       1  UNL1        0.0630
     55 H          -0.1190    0.9565   -2.2118 H       1  UNL1        0.2220
     56 H          -0.0233   -2.8234    1.1337 H       1  UNL1        0.2220
     57 H           2.4761   -1.2268   -2.2314 H       1  UNL1        0.0592
     58 H           3.0519   -1.4741   -0.5471 H       1  UNL1        0.0592
     59 H           3.1310    1.0448   -2.3115 H       1  UNL1        0.0647
     60 H           5.1563    2.6970   -0.1772 H       1  UNL1        0.0866
     61 H           3.9379    0.1114    1.7454 H       1  UNL1        0.1030
     62 H           8.7167   -0.9416    4.9151 H       1  UNL1        0.1438
     63 H           8.0694   -2.1333    3.7679 H       1  UNL1        0.1438
     64 H          10.2811    1.2181    0.6177 H       1  UNL1        0.1048
     65 H           6.8394    0.9616   -1.5169 H       1  UNL1        0.0666
     66 H           4.6757    2.6497   -2.3842 H       1  UNL1        0.2101
     67 H           5.2638   -0.8767   -1.3486 H       1  UNL1        0.0656
     68 H           5.1219   -3.0850   -1.6502 H       1  UNL1        0.2220
     69 H           5.9248   -1.7105   -5.6502 H       1  UNL1        0.2220
     70 H          -4.6318    0.1147   -1.8210 H       1  UNL1        0.0646
     71 H          -3.9390   -1.7309   -0.2175 H       1  UNL1        0.0592
     72 H          -5.3598   -1.3107    0.7567 H       1  UNL1        0.0592
     73 H          -7.6022   -3.0123    0.8219 H       1  UNL1        0.2220
     74 H          -7.1472   -4.4268   -2.1257 H       1  UNL1        0.2220
     75 H          -8.4117    3.0974   -0.0618 H       1  UNL1        0.0813
     76 H         -10.2286    3.1603    1.5469 H       1  UNL1        0.0685
     77 H         -10.8572    1.2094    4.0376 H       1  UNL1        0.2937
@<TRIPOS>BOND
     1     1     2    1
     2     2     3    1
     3     3     4    1
     4     4     5    1
     5     5     6    1
     6     5     7    2
     7     5     8    1
     8     8     9    1
     9     9    10    1
    10     9    11    2
    11     9    12    1
    12    12    13    1
    13    13    14    1
    14    14    15    1
    15    15    16    1
    16    16    17    1
    17    17    18   ar
    18    18    19   ar
    19    19    20   ar
    20    20    21   ar
    21    21    22    1
    22    21    23   ar
    23    23    24   ar
    24    24    25   ar
    25    25    26   ar
    26    16    27    1
    27    27    28    1
    28    27    29    1
    29    29    30    1
    30    30    31    1
    31    31    32    1
    32    31    33    1
    33    31    34    2
    34     3    35    1
    35    35    36    1
    36    36    37    1
    37    37    38    1
    38    38    39    1
    39    38    40    1
    40    38    41    2
    41    35    42    1
    42     1    43    1
    43    43    44   ar
    44    44    45   ar
    45    45    46   ar
    46    46    47    1
    47    46    48   ar
    48    48    49   ar
    49    49    50    2
    50    42     1    1
    51    49    43   ar
    52    29    14    1
    53    26    17   ar
    54    26    20   ar
    55     1    51    1
    56     2    52    1
    57     2    53    1
    58     3    54    1
    59     6    55    1
    60    10    56    1
    61    13    57    1
    62    13    58    1
    63    14    59    1
    64    16    60    1
    65    18    61    1
    66    22    62    1
    67    22    63    1
    68    24    64    1
    69    27    65    1
    70    28    66    1
    71    29    67    1
    72    32    68    1
    73    33    69    1
    74    35    70    1
    75    36    71    1
    76    36    72    1
    77    39    73    1
    78    40    74    1
    79    44    75    1
    80    45    76    1
    81    47    77    1
