
     RDKit          3D

 77 81  0  0  0  0  0  0  0  0999 V2000
   -6.0559    1.8902    0.1088 C   0  0  1  0  0  0  0  0  0  0  0  0
   -4.6856    2.1113    0.6045 C   0  0  0  0  0  0  0  0  0  0  0  0
   -3.9029    0.9354    0.0681 C   0  0  2  0  0  0  0  0  0  0  0  0
   -2.8750    1.3220   -0.7912 O   0  0  0  0  0  0  0  0  0  0  0  0
   -1.3674    0.7642   -0.3532 P   0  0  0  0  0  0  0  0  0  0  0  0
   -0.2490    1.4919   -1.4119 O   0  0  0  0  0  0  0  0  0  0  0  0
   -0.9627    1.2435    1.0413 O   0  0  0  0  0  0  0  0  0  0  0  0
   -1.2532   -0.9025   -0.3790 O   0  0  0  0  0  0  0  0  0  0  0  0
    0.3115   -1.4594   -0.5414 P   0  0  0  0  0  0  0  0  0  0  0  0
    0.7731   -2.2895    0.8568 O   0  0  0  0  0  0  0  0  0  0  0  0
    0.3256   -2.4702   -1.6803 O   0  0  0  0  0  0  0  0  0  0  0  0
    1.4121   -0.2135   -0.8470 O   0  0  0  0  0  0  0  0  0  0  0  0
    2.6454   -0.7303   -1.2391 C   0  0  0  0  0  0  0  0  0  0  0  0
    3.5712    0.4338   -1.4963 C   0  0  1  0  0  0  0  0  0  0  0  0
    3.7778    1.2410   -0.4136 O   0  0  0  0  0  0  0  0  0  0  0  0
    5.1130    1.5965   -0.3367 C   0  0  1  0  0  0  0  0  0  0  0  0
    5.6832    0.8616    0.7829 N   0  0  0  0  0  0  0  0  0  0  0  0
    5.0233    0.1682    1.7468 C   0  0  0  0  0  0  0  0  0  0  0  0
    5.8992   -0.3742    2.6089 N   0  0  0  0  0  0  0  0  0  0  0  0
    7.1329   -0.0258    2.1945 C   0  0  0  0  0  0  0  0  0  0  0  0
    8.3514   -0.3471    2.7593 C   0  0  0  0  0  0  0  0  0  0  0  0
    8.4077   -1.1486    3.9368 N   0  0  0  0  0  0  0  0  0  0  0  0
    9.4622    0.1316    2.1447 N   0  0  0  0  0  0  0  0  0  0  0  0
    9.3443    0.8902    1.0250 C   0  0  0  0  0  0  0  0  0  0  0  0
    8.1467    1.2098    0.4644 N   0  0  0  0  0  0  0  0  0  0  0  0
    7.0171    0.7546    1.0430 C   0  0  0  0  0  0  0  0  0  0  0  0
    5.7674    1.1864   -1.6312 C   0  0  2  0  0  0  0  0  0  0  0  0
    5.5340    2.1911   -2.5758 O   0  0  0  0  0  0  0  0  0  0  0  0
    4.9268   -0.0225   -1.9921 C   0  0  2  0  0  0  0  0  0  0  0  0
    4.9657   -0.3267   -3.3304 O   0  0  0  0  0  0  0  0  0  0  0  0
    5.5186   -1.9036   -3.4976 P   0  0  0  0  0  0  0  0  0  0  0  0
    4.6316   -2.9156   -2.4948 O   0  0  0  0  0  0  0  0  0  0  0  0
    5.4519   -2.4084   -5.1121 O   0  0  0  0  0  0  0  0  0  0  0  0
    6.9638   -1.9390   -3.0358 O   0  0  0  0  0  0  0  0  0  0  0  0
   -4.8878    0.1564   -0.7372 C   0  0  1  0  0  0  0  0  0  0  0  0
   -4.9643   -1.3022   -0.2832 C   0  0  0  0  0  0  0  0  0  0  0  0
   -5.8312   -2.0368   -1.0489 O   0  0  0  0  0  0  0  0  0  0  0  0
   -5.8530   -3.6235   -0.4825 P   0  0  0  0  0  0  0  0  0  0  0  0
   -7.0158   -3.8176    0.7276 O   0  0  0  0  0  0  0  0  0  0  0  0
   -6.2471   -4.6635   -1.7621 O   0  0  0  0  0  0  0  0  0  0  0  0
   -4.5234   -3.9950    0.0798 O   0  0  0  0  0  0  0  0  0  0  0  0
   -6.1256    0.7437   -0.6499 O   0  0  0  0  0  0  0  0  0  0  0  0
   -7.1121    1.9070    1.0841 N   0  0  0  0  0  0  0  0  0  0  0  0
   -8.2898    2.5661    0.8870 C   0  0  0  0  0  0  0  0  0  0  0  0
   -9.3291    2.6115    1.7887 C   0  0  0  0  0  0  0  0  0  0  0  0
   -9.1628    1.9310    2.9947 C   0  0  0  0  0  0  0  0  0  0  0  0
  -10.2214    1.9828    3.9020 O   0  0  0  0  0  0  0  0  0  0  0  0
   -7.9907    1.2652    3.2102 N   0  0  0  0  0  0  0  0  0  0  0  0
   -7.0375    1.2780    2.2743 C   0  0  0  0  0  0  0  0  0  0  0  0
   -6.0204    0.6431    2.5760 O   0  0  0  0  0  0  0  0  0  0  0  0
   -6.2985    2.7290   -0.6094 H   0  0  0  0  0  0  0  0  0  0  0  0
   -4.2045    3.0273    0.1716 H   0  0  0  0  0  0  0  0  0  0  0  0
   -4.5694    2.2511    1.6974 H   0  0  0  0  0  0  0  0  0  0  0  0
   -3.4475    0.3281    0.8656 H   0  0  0  0  0  0  0  0  0  0  0  0
   -0.1190    0.9565   -2.2118 H   0  0  0  0  0  0  0  0  0  0  0  0
   -0.0233   -2.8234    1.1337 H   0  0  0  0  0  0  0  0  0  0  0  0
    2.4761   -1.2268   -2.2314 H   0  0  0  0  0  0  0  0  0  0  0  0
    3.0519   -1.4741   -0.5471 H   0  0  0  0  0  0  0  0  0  0  0  0
    3.1310    1.0448   -2.3115 H   0  0  0  0  0  0  0  0  0  0  0  0
    5.1563    2.6970   -0.1772 H   0  0  0  0  0  0  0  0  0  0  0  0
    3.9379    0.1114    1.7454 H   0  0  0  0  0  0  0  0  0  0  0  0
    8.7167   -0.9416    4.9151 H   0  0  0  0  0  0  0  0  0  0  0  0
    8.0694   -2.1333    3.7679 H   0  0  0  0  0  0  0  0  0  0  0  0
   10.2811    1.2181    0.6177 H   0  0  0  0  0  0  0  0  0  0  0  0
    6.8394    0.9616   -1.5169 H   0  0  0  0  0  0  0  0  0  0  0  0
    4.6757    2.6497   -2.3842 H   0  0  0  0  0  0  0  0  0  0  0  0
    5.2638   -0.8767   -1.3486 H   0  0  0  0  0  0  0  0  0  0  0  0
    5.1219   -3.0850   -1.6502 H   0  0  0  0  0  0  0  0  0  0  0  0
    5.9248   -1.7105   -5.6502 H   0  0  0  0  0  0  0  0  0  0  0  0
   -4.6318    0.1147   -1.8210 H   0  0  0  0  0  0  0  0  0  0  0  0
   -3.9390   -1.7309   -0.2175 H   0  0  0  0  0  0  0  0  0  0  0  0
   -5.3598   -1.3107    0.7567 H   0  0  0  0  0  0  0  0  0  0  0  0
   -7.6022   -3.0123    0.8219 H   0  0  0  0  0  0  0  0  0  0  0  0
   -7.1472   -4.4268   -2.1257 H   0  0  0  0  0  0  0  0  0  0  0  0
   -8.4117    3.0974   -0.0618 H   0  0  0  0  0  0  0  0  0  0  0  0
  -10.2286    3.1603    1.5469 H   0  0  0  0  0  0  0  0  0  0  0  0
  -10.8572    1.2094    4.0376 H   0  0  0  0  0  0  0  0  0  0  0  0
  1  2  1  0
  2  3  1  0
  3  4  1  0
  4  5  1  0
  5  6  1  0
  5  7  2  0
  5  8  1  0
  8  9  1  0
  9 10  1  0
  9 11  2  0
  9 12  1  0
 12 13  1  0
 13 14  1  0
 14 15  1  0
 15 16  1  0
 16 17  1  0
 17 18  1  0
 18 19  2  0
 19 20  1  0
 20 21  2  0
 21 22  1  0
 21 23  1  0
 23 24  2  0
 24 25  1  0
 25 26  2  0
 16 27  1  0
 27 28  1  0
 27 29  1  0
 29 30  1  0
 30 31  1  0
 31 32  1  0
 31 33  1  0
 31 34  2  0
  3 35  1  0
 35 36  1  0
 36 37  1  0
 37 38  1  0
 38 39  1  0
 38 40  1  0
 38 41  2  0
 35 42  1  0
  1 43  1  0
 43 44  1  0
 44 45  2  0
 45 46  1  0
 46 47  1  0
 46 48  2  0
 48 49  1  0
 49 50  2  0
 42  1  1  0
 49 43  1  0
 29 14  1  0
 26 17  1  0
 26 20  1  0
  1 51  1  6
  2 52  1  0
  2 53  1  0
  3 54  1  1
  6 55  1  0
 10 56  1  0
 13 57  1  0
 13 58  1  0
 14 59  1  6
 16 60  1  1
 18 61  1  0
 22 62  1  0
 22 63  1  0
 24 64  1  0
 27 65  1  1
 28 66  1  0
 29 67  1  1
 32 68  1  0
 33 69  1  0
 35 70  1  6
 36 71  1  0
 36 72  1  0
 39 73  1  0
 40 74  1  0
 44 75  1  0
 45 76  1  0
 47 77  1  0
M  END
$$$$
