@<TRIPOS>MOLECULE
*****
 32 32 0 0 0
SMALL
GASTEIGER

@<TRIPOS>ATOM
      1 C          -1.0144    0.4958    0.3559 C.3     1  UNL1        0.2246
      2 O          -1.0743    1.7940   -0.1976 O.3     1  UNL1       -0.4452
      3 C          -1.4826    2.8722    0.5338 C.2     1  UNL1        0.3050
      4 C          -1.4913    4.1800   -0.1951 C.3     1  UNL1        0.0333
      5 O          -1.8122    2.7104    1.7227 O.2     1  UNL1       -0.2511
      6 C          -1.9628   -0.4418   -0.2539 C.2     1  UNL1        0.3528
      7 O          -2.8437   -0.9973   -0.9377 O.2     1  UNL1       -0.2463
      8 O          -1.8659   -1.7055    0.3149 O.3     1  UNL1       -0.4651
      9 C          -2.6253   -2.8216   -0.0374 C.3     1  UNL1        0.0818
     10 C           0.3831    0.0128    0.4250 C.ar    1  UNL1        0.0177
     11 C           1.1176    0.1363    1.6134 C.ar    1  UNL1       -0.0520
     12 C           2.3944   -0.3244    1.6560 C.ar    1  UNL1       -0.0406
     13 C           3.0565   -0.9216    0.6044 C.ar    1  UNL1        0.0253
     14 N           4.3937   -1.3529    0.8031 N.pl3   1  UNL1       -0.3579
     15 C           2.3555   -1.0533   -0.5722 C.ar    1  UNL1       -0.0267
     16 C           1.0686   -0.5835   -0.5994 C.ar    1  UNL1        0.0678
     17 C           0.4233   -0.7530   -1.8826 C.2     1  UNL1        0.3373
     18 O          -0.4929   -0.7275   -2.8906 O.3     1  UNL1       -0.4771
     19 O           0.9098   -1.2801   -2.9195 O.2     1  UNL1       -0.2451
     20 H          -1.3566    0.6057    1.4292 H       1  UNL1        0.0905
     21 H          -0.4992    4.6313   -0.2920 H       1  UNL1        0.0342
     22 H          -2.1093    4.8742    0.4441 H       1  UNL1        0.0342
     23 H          -2.0533    4.0740   -1.1430 H       1  UNL1        0.0342
     24 H          -3.7028   -2.6361    0.1455 H       1  UNL1        0.0661
     25 H          -2.2503   -3.6625    0.6176 H       1  UNL1        0.0661
     26 H          -2.4365   -3.0979   -1.0745 H       1  UNL1        0.0661
     27 H           0.5997    0.6069    2.4463 H       1  UNL1        0.0622
     28 H           2.8597   -0.1762    2.6183 H       1  UNL1        0.0636
     29 H           4.7621   -2.0406    1.5085 H       1  UNL1        0.1423
     30 H           5.0654   -0.9157    0.1548 H       1  UNL1        0.1423
     31 H           2.8623   -1.5157   -1.3927 H       1  UNL1        0.0644
     32 H          -1.1782    0.0137   -3.0052 H       1  UNL1        0.2954
@<TRIPOS>BOND
     1     1     2    1
     2     2     3    1
     3     3     4    1
     4     3     5    2
     5     1     6    1
     6     6     7    2
     7     6     8    1
     8     8     9    1
     9     1    10    1
    10    10    11   ar
    11    11    12   ar
    12    12    13   ar
    13    13    14    1
    14    13    15   ar
    15    15    16   ar
    16    16    17    1
    17    17    18    1
    18    17    19    2
    19    16    10   ar
    20     1    20    1
    21     4    21    1
    22     4    22    1
    23     4    23    1
    24     9    24    1
    25     9    25    1
    26     9    26    1
    27    11    27    1
    28    12    28    1
    29    14    29    1
    30    14    30    1
    31    15    31    1
    32    18    32    1
