@<TRIPOS>MOLECULE
*****
 111 115 0 0 0
SMALL
GASTEIGER

@<TRIPOS>ATOM
      1 C         -11.2695   -0.6912    1.7516 C.3     1  UNL1       -0.0627
      2 C         -10.3313   -0.3086    0.6149 C.3     1  UNL1       -0.0467
      3 C          -9.4477   -1.4642    0.3205 C.3     1  UNL1       -0.0627
      4 C          -9.7341    1.0251    0.7731 C.3     1  UNL1       -0.0507
      5 C          -8.9167    1.3460    1.9518 C.3     1  UNL1       -0.0526
      6 C          -7.6391    0.6006    2.1083 C.3     1  UNL1       -0.0502
      7 C          -6.6496    0.8298    0.9497 C.3     1  UNL1       -0.0405
      8 C          -6.3762    2.3210    0.9324 C.3     1  UNL1       -0.0621
      9 C          -5.3647    0.0969    1.2656 C.3     1  UNL1       -0.0328
     10 C          -5.6009   -1.3908    1.4150 C.3     1  UNL1       -0.0492
     11 C          -4.4202   -2.0792    0.7645 C.3     1  UNL1       -0.0492
     12 C          -3.4127   -1.0186    0.7236 C.3     1  UNL1       -0.0320
     13 C          -2.3422   -1.1134   -0.2806 C.3     1  UNL1       -0.0307
     14 C          -1.5776   -2.4181   -0.3260 C.3     1  UNL1       -0.0311
     15 C          -0.5730   -2.2280   -1.3916 C.2     1  UNL1       -0.0839
     16 C          -0.0015   -1.0938   -1.6722 C.2     1  UNL1       -0.0648
     17 C           0.9905   -1.0445   -2.7701 C.3     1  UNL1       -0.0048
     18 C           2.3211   -0.4791   -2.2150 C.3     1  UNL1        0.0624
     19 O           3.1365   -0.1725   -3.2367 O.3     1  UNL1       -0.3762
     20 C           4.2741   -0.7086   -3.5788 C.3     1  UNL1        0.0480
     21 C           5.4511   -0.5498   -2.6874 C.3     1  UNL1       -0.0294
     22 C           5.2810   -1.1284   -1.3470 C.3     1  UNL1       -0.0498
     23 C           6.5708   -1.0241   -0.4992 C.3     1  UNL1       -0.0401
     24 C           6.9427    0.4001   -0.3243 C.3     1  UNL1       -0.0006
     25 N           8.1259    0.6113    0.4671 N.3     1  UNL1       -0.2923
     26 C           7.7752    0.2225    1.8217 C.3     1  UNL1        0.0279
     27 C           8.8947    0.5920    2.7381 C.3     1  UNL1        0.0962
     28 O           9.2628    1.9077    2.4941 O.3     1  UNL1       -0.3879
     29 C          10.0404   -0.3618    2.3762 C.3     1  UNL1        0.1095
     30 O           9.5980   -1.6479    2.6225 O.3     1  UNL1       -0.3866
     31 C          10.4231   -0.0962    0.9728 C.3     1  UNL1        0.1011
     32 O          11.1357    1.1085    0.9012 O.3     1  UNL1       -0.3875
     33 C           9.2999   -0.0206   -0.0246 C.3     1  UNL1        0.0621
     34 C           9.8568    0.6930   -1.2330 C.3     1  UNL1        0.0622
     35 O           9.0185    0.7560   -2.3123 O.3     1  UNL1       -0.3934
     36 C           2.0519    0.7602   -1.4132 C.3     1  UNL1       -0.0255
     37 C           1.0464    0.5699   -0.3256 C.3     1  UNL1       -0.0413
     38 C          -0.3061    0.1453   -0.9444 C.3     1  UNL1       -0.0078
     39 C          -0.6697    1.2907   -1.8637 C.3     1  UNL1       -0.0556
     40 C          -1.3082   -0.0784    0.1331 C.3     1  UNL1       -0.0285
     41 C          -1.9210    1.1297    0.7239 C.3     1  UNL1       -0.0486
     42 C          -3.3537    1.3823    0.4632 C.3     1  UNL1       -0.0468
     43 C          -4.2593    0.2069    0.3191 C.3     1  UNL1       -0.0259
     44 C          -4.7320    0.0717   -1.0993 C.3     1  UNL1       -0.0590
     45 H         -12.0662    0.0963    1.8854 H       1  UNL1        0.0232
     46 H         -10.7394   -0.9441    2.6742 H       1  UNL1        0.0232
     47 H         -11.8098   -1.5985    1.4120 H       1  UNL1        0.0232
     48 H         -11.0540   -0.2479   -0.2820 H       1  UNL1        0.0295
     49 H          -9.2256   -2.0222    1.2713 H       1  UNL1        0.0232
     50 H          -8.5165   -1.2263   -0.2186 H       1  UNL1        0.0232
     51 H         -10.0342   -2.1745   -0.3334 H       1  UNL1        0.0232
     52 H          -9.0876    1.1978   -0.1533 H       1  UNL1        0.0268
     53 H         -10.5441    1.8117    0.6106 H       1  UNL1        0.0268
     54 H          -8.8090    2.4563    2.0279 H       1  UNL1        0.0265
     55 H          -9.4898    1.1202    2.9277 H       1  UNL1        0.0265
     56 H          -7.8509   -0.4546    2.2790 H       1  UNL1        0.0268
     57 H          -7.1099    1.0669    2.9855 H       1  UNL1        0.0268
     58 H          -7.0892    0.5679   -0.0160 H       1  UNL1        0.0301
     59 H          -5.9839    2.7302    1.8559 H       1  UNL1        0.0233
     60 H          -5.6669    2.5878    0.1072 H       1  UNL1        0.0233
     61 H          -7.3671    2.8356    0.7404 H       1  UNL1        0.0233
     62 H          -5.0273    0.4316    2.2986 H       1  UNL1        0.0309
     63 H          -5.7310   -1.6904    2.4792 H       1  UNL1        0.0268
     64 H          -6.4919   -1.7542    0.8934 H       1  UNL1        0.0268
     65 H          -4.6638   -2.5783   -0.1803 H       1  UNL1        0.0268
     66 H          -4.0824   -2.8682    1.4946 H       1  UNL1        0.0268
     67 H          -3.0269   -0.8166    1.7382 H       1  UNL1        0.0309
     68 H          -2.6249   -0.8785   -1.3223 H       1  UNL1        0.0309
     69 H          -1.0627   -2.6229    0.6486 H       1  UNL1        0.0310
     70 H          -2.2724   -3.2503   -0.4935 H       1  UNL1        0.0310
     71 H          -0.3086   -3.1260   -1.9727 H       1  UNL1        0.0572
     72 H           0.6718   -0.5196   -3.6694 H       1  UNL1        0.0335
     73 H           1.2430   -2.0798   -3.0983 H       1  UNL1        0.0335
     74 H           2.7143   -1.2969   -1.5971 H       1  UNL1        0.0599
     75 H           4.2211   -1.8403   -3.7757 H       1  UNL1        0.0560
     76 H           4.5568   -0.2542   -4.6152 H       1  UNL1        0.0560
     77 H           5.6660    0.5578   -2.6711 H       1  UNL1        0.0287
     78 H           6.3543   -0.9603   -3.2263 H       1  UNL1        0.0287
     79 H           4.5747   -0.4938   -0.7570 H       1  UNL1        0.0266
     80 H           5.0267   -2.1848   -1.3960 H       1  UNL1        0.0266
     81 H           6.2665   -1.4460    0.4980 H       1  UNL1        0.0278
     82 H           7.2971   -1.6454   -1.0333 H       1  UNL1        0.0278
     83 H           6.0725    0.8819    0.2227 H       1  UNL1        0.0427
     84 H           6.9872    0.9630   -1.2728 H       1  UNL1        0.0427
     85 H           6.8545    0.7414    2.0985 H       1  UNL1        0.0453
     86 H           7.6082   -0.8710    1.9181 H       1  UNL1        0.0453
     87 H           8.5938    0.4358    3.8147 H       1  UNL1        0.0633
     88 H           8.7555    2.3179    1.7307 H       1  UNL1        0.2099
     89 H          10.8864   -0.0735    3.0322 H       1  UNL1        0.0646
     90 H          10.3150   -2.0859    3.1843 H       1  UNL1        0.2100
     91 H          11.1384   -0.8870    0.6358 H       1  UNL1        0.0636
     92 H          11.6955    1.0794    0.0983 H       1  UNL1        0.2100
     93 H           9.1316   -1.0876   -0.3596 H       1  UNL1        0.0511
     94 H          10.1163    1.7649   -0.9828 H       1  UNL1        0.0573
     95 H          10.8309    0.2579   -1.5584 H       1  UNL1        0.0573
     96 H           9.5256    0.8107   -3.1578 H       1  UNL1        0.2095
     97 H           1.7388    1.5799   -2.1292 H       1  UNL1        0.0290
     98 H           2.9867    1.1270   -0.9791 H       1  UNL1        0.0290
     99 H           1.3617   -0.2503    0.3218 H       1  UNL1        0.0274
    100 H           0.8559    1.5172    0.1766 H       1  UNL1        0.0274
    101 H          -0.1114    1.1423   -2.8113 H       1  UNL1        0.0238
    102 H          -0.3046    2.2284   -1.4239 H       1  UNL1        0.0238
    103 H          -1.7405    1.3219   -2.1403 H       1  UNL1        0.0238
    104 H          -0.7335   -0.5943    0.9678 H       1  UNL1        0.0312
    105 H          -1.3522    2.0485    0.3830 H       1  UNL1        0.0268
    106 H          -1.7643    1.1752    1.8453 H       1  UNL1        0.0268
    107 H          -3.4383    2.0070   -0.4468 H       1  UNL1        0.0271
    108 H          -3.7376    2.0227    1.3072 H       1  UNL1        0.0271
    109 H          -3.9629    0.5596   -1.7674 H       1  UNL1        0.0235
    110 H          -5.6674    0.5640   -1.3466 H       1  UNL1        0.0235
    111 H          -4.7886   -0.9830   -1.4360 H       1  UNL1        0.0235
@<TRIPOS>BOND
     1     1     2    1
     2     2     3    1
     3     2     4    1
     4     4     5    1
     5     5     6    1
     6     6     7    1
     7     7     8    1
     8     7     9    1
     9     9    10    1
    10    10    11    1
    11    11    12    1
    12    12    13    1
    13    13    14    1
    14    14    15    1
    15    15    16    2
    16    16    17    1
    17    17    18    1
    18    18    19    1
    19    19    20    1
    20    20    21    1
    21    21    22    1
    22    22    23    1
    23    23    24    1
    24    24    25    1
    25    25    26    1
    26    26    27    1
    27    27    28    1
    28    27    29    1
    29    29    30    1
    30    29    31    1
    31    31    32    1
    32    31    33    1
    33    33    34    1
    34    34    35    1
    35    18    36    1
    36    36    37    1
    37    37    38    1
    38    38    39    1
    39    38    40    1
    40    40    41    1
    41    41    42    1
    42    42    43    1
    43    43    44    1
    44    43     9    1
    45    43    12    1
    46    40    13    1
    47    38    16    1
    48    33    25    1
    49     1    45    1
    50     1    46    1
    51     1    47    1
    52     2    48    1
    53     3    49    1
    54     3    50    1
    55     3    51    1
    56     4    52    1
    57     4    53    1
    58     5    54    1
    59     5    55    1
    60     6    56    1
    61     6    57    1
    62     7    58    1
    63     8    59    1
    64     8    60    1
    65     8    61    1
    66     9    62    1
    67    10    63    1
    68    10    64    1
    69    11    65    1
    70    11    66    1
    71    12    67    1
    72    13    68    1
    73    14    69    1
    74    14    70    1
    75    15    71    1
    76    17    72    1
    77    17    73    1
    78    18    74    1
    79    20    75    1
    80    20    76    1
    81    21    77    1
    82    21    78    1
    83    22    79    1
    84    22    80    1
    85    23    81    1
    86    23    82    1
    87    24    83    1
    88    24    84    1
    89    26    85    1
    90    26    86    1
    91    27    87    1
    92    28    88    1
    93    29    89    1
    94    30    90    1
    95    31    91    1
    96    32    92    1
    97    33    93    1
    98    34    94    1
    99    34    95    1
   100    35    96    1
   101    36    97    1
   102    36    98    1
   103    37    99    1
   104    37   100    1
   105    39   101    1
   106    39   102    1
   107    39   103    1
   108    40   104    1
   109    41   105    1
   110    41   106    1
   111    42   107    1
   112    42   108    1
   113    44   109    1
   114    44   110    1
   115    44   111    1
