
     RDKit          3D

111115  0  0  0  0  0  0  0  0999 V2000
  -11.2695   -0.6912    1.7516 C   0  0  0  0  0  0  0  0  0  0  0  0
  -10.3313   -0.3086    0.6149 C   0  0  0  0  0  0  0  0  0  0  0  0
   -9.4477   -1.4642    0.3205 C   0  0  0  0  0  0  0  0  0  0  0  0
   -9.7341    1.0251    0.7731 C   0  0  0  0  0  0  0  0  0  0  0  0
   -8.9167    1.3460    1.9518 C   0  0  0  0  0  0  0  0  0  0  0  0
   -7.6391    0.6006    2.1083 C   0  0  0  0  0  0  0  0  0  0  0  0
   -6.6496    0.8298    0.9497 C   0  0  1  0  0  0  0  0  0  0  0  0
   -6.3762    2.3210    0.9324 C   0  0  0  0  0  0  0  0  0  0  0  0
   -5.3647    0.0969    1.2656 C   0  0  1  0  0  0  0  0  0  0  0  0
   -5.6009   -1.3908    1.4150 C   0  0  0  0  0  0  0  0  0  0  0  0
   -4.4202   -2.0792    0.7645 C   0  0  0  0  0  0  0  0  0  0  0  0
   -3.4127   -1.0186    0.7236 C   0  0  1  0  0  0  0  0  0  0  0  0
   -2.3422   -1.1134   -0.2806 C   0  0  2  0  0  0  0  0  0  0  0  0
   -1.5776   -2.4181   -0.3260 C   0  0  0  0  0  0  0  0  0  0  0  0
   -0.5730   -2.2280   -1.3916 C   0  0  0  0  0  0  0  0  0  0  0  0
   -0.0015   -1.0938   -1.6722 C   0  0  0  0  0  0  0  0  0  0  0  0
    0.9905   -1.0445   -2.7701 C   0  0  0  0  0  0  0  0  0  0  0  0
    2.3211   -0.4791   -2.2150 C   0  0  1  0  0  0  0  0  0  0  0  0
    3.1365   -0.1725   -3.2367 O   0  0  0  0  0  0  0  0  0  0  0  0
    4.2741   -0.7086   -3.5788 C   0  0  0  0  0  0  0  0  0  0  0  0
    5.4511   -0.5498   -2.6874 C   0  0  0  0  0  0  0  0  0  0  0  0
    5.2810   -1.1284   -1.3470 C   0  0  0  0  0  0  0  0  0  0  0  0
    6.5708   -1.0241   -0.4992 C   0  0  0  0  0  0  0  0  0  0  0  0
    6.9427    0.4001   -0.3243 C   0  0  0  0  0  0  0  0  0  0  0  0
    8.1259    0.6113    0.4671 N   0  0  0  0  0  0  0  0  0  0  0  0
    7.7752    0.2225    1.8217 C   0  0  0  0  0  0  0  0  0  0  0  0
    8.8947    0.5920    2.7381 C   0  0  2  0  0  0  0  0  0  0  0  0
    9.2628    1.9077    2.4941 O   0  0  0  0  0  0  0  0  0  0  0  0
   10.0404   -0.3618    2.3762 C   0  0  1  0  0  0  0  0  0  0  0  0
    9.5980   -1.6479    2.6225 O   0  0  0  0  0  0  0  0  0  0  0  0
   10.4231   -0.0962    0.9728 C   0  0  2  0  0  0  0  0  0  0  0  0
   11.1357    1.1085    0.9012 O   0  0  0  0  0  0  0  0  0  0  0  0
    9.2999   -0.0206   -0.0246 C   0  0  2  0  0  0  0  0  0  0  0  0
    9.8568    0.6930   -1.2330 C   0  0  0  0  0  0  0  0  0  0  0  0
    9.0185    0.7560   -2.3123 O   0  0  0  0  0  0  0  0  0  0  0  0
    2.0519    0.7602   -1.4132 C   0  0  0  0  0  0  0  0  0  0  0  0
    1.0464    0.5699   -0.3256 C   0  0  0  0  0  0  0  0  0  0  0  0
   -0.3061    0.1453   -0.9444 C   0  0  1  0  0  0  0  0  0  0  0  0
   -0.6697    1.2907   -1.8637 C   0  0  0  0  0  0  0  0  0  0  0  0
   -1.3082   -0.0784    0.1331 C   0  0  1  0  0  0  0  0  0  0  0  0
   -1.9210    1.1297    0.7239 C   0  0  0  0  0  0  0  0  0  0  0  0
   -3.3537    1.3823    0.4632 C   0  0  0  0  0  0  0  0  0  0  0  0
   -4.2593    0.2069    0.3191 C   0  0  2  0  0  0  0  0  0  0  0  0
   -4.7320    0.0717   -1.0993 C   0  0  0  0  0  0  0  0  0  0  0  0
  -12.0662    0.0963    1.8854 H   0  0  0  0  0  0  0  0  0  0  0  0
  -10.7394   -0.9441    2.6742 H   0  0  0  0  0  0  0  0  0  0  0  0
  -11.8098   -1.5985    1.4120 H   0  0  0  0  0  0  0  0  0  0  0  0
  -11.0540   -0.2479   -0.2820 H   0  0  0  0  0  0  0  0  0  0  0  0
   -9.2256   -2.0222    1.2713 H   0  0  0  0  0  0  0  0  0  0  0  0
   -8.5165   -1.2263   -0.2186 H   0  0  0  0  0  0  0  0  0  0  0  0
  -10.0342   -2.1745   -0.3334 H   0  0  0  0  0  0  0  0  0  0  0  0
   -9.0876    1.1978   -0.1533 H   0  0  0  0  0  0  0  0  0  0  0  0
  -10.5441    1.8117    0.6106 H   0  0  0  0  0  0  0  0  0  0  0  0
   -8.8090    2.4563    2.0279 H   0  0  0  0  0  0  0  0  0  0  0  0
   -9.4898    1.1202    2.9277 H   0  0  0  0  0  0  0  0  0  0  0  0
   -7.8509   -0.4546    2.2790 H   0  0  0  0  0  0  0  0  0  0  0  0
   -7.1099    1.0669    2.9855 H   0  0  0  0  0  0  0  0  0  0  0  0
   -7.0892    0.5679   -0.0160 H   0  0  0  0  0  0  0  0  0  0  0  0
   -5.9839    2.7302    1.8559 H   0  0  0  0  0  0  0  0  0  0  0  0
   -5.6669    2.5878    0.1072 H   0  0  0  0  0  0  0  0  0  0  0  0
   -7.3671    2.8356    0.7404 H   0  0  0  0  0  0  0  0  0  0  0  0
   -5.0273    0.4316    2.2986 H   0  0  0  0  0  0  0  0  0  0  0  0
   -5.7310   -1.6904    2.4792 H   0  0  0  0  0  0  0  0  0  0  0  0
   -6.4919   -1.7542    0.8934 H   0  0  0  0  0  0  0  0  0  0  0  0
   -4.6638   -2.5783   -0.1803 H   0  0  0  0  0  0  0  0  0  0  0  0
   -4.0824   -2.8682    1.4946 H   0  0  0  0  0  0  0  0  0  0  0  0
   -3.0269   -0.8166    1.7382 H   0  0  0  0  0  0  0  0  0  0  0  0
   -2.6249   -0.8785   -1.3223 H   0  0  0  0  0  0  0  0  0  0  0  0
   -1.0627   -2.6229    0.6486 H   0  0  0  0  0  0  0  0  0  0  0  0
   -2.2724   -3.2503   -0.4935 H   0  0  0  0  0  0  0  0  0  0  0  0
   -0.3086   -3.1260   -1.9727 H   0  0  0  0  0  0  0  0  0  0  0  0
    0.6718   -0.5196   -3.6694 H   0  0  0  0  0  0  0  0  0  0  0  0
    1.2430   -2.0798   -3.0983 H   0  0  0  0  0  0  0  0  0  0  0  0
    2.7143   -1.2969   -1.5971 H   0  0  0  0  0  0  0  0  0  0  0  0
    4.2211   -1.8403   -3.7757 H   0  0  0  0  0  0  0  0  0  0  0  0
    4.5568   -0.2542   -4.6152 H   0  0  0  0  0  0  0  0  0  0  0  0
    5.6660    0.5578   -2.6711 H   0  0  0  0  0  0  0  0  0  0  0  0
    6.3543   -0.9603   -3.2263 H   0  0  0  0  0  0  0  0  0  0  0  0
    4.5747   -0.4938   -0.7570 H   0  0  0  0  0  0  0  0  0  0  0  0
    5.0267   -2.1848   -1.3960 H   0  0  0  0  0  0  0  0  0  0  0  0
    6.2665   -1.4460    0.4980 H   0  0  0  0  0  0  0  0  0  0  0  0
    7.2971   -1.6454   -1.0333 H   0  0  0  0  0  0  0  0  0  0  0  0
    6.0725    0.8819    0.2227 H   0  0  0  0  0  0  0  0  0  0  0  0
    6.9872    0.9630   -1.2728 H   0  0  0  0  0  0  0  0  0  0  0  0
    6.8545    0.7414    2.0985 H   0  0  0  0  0  0  0  0  0  0  0  0
    7.6082   -0.8710    1.9181 H   0  0  0  0  0  0  0  0  0  0  0  0
    8.5938    0.4358    3.8147 H   0  0  0  0  0  0  0  0  0  0  0  0
    8.7555    2.3179    1.7307 H   0  0  0  0  0  0  0  0  0  0  0  0
   10.8864   -0.0735    3.0322 H   0  0  0  0  0  0  0  0  0  0  0  0
   10.3150   -2.0859    3.1843 H   0  0  0  0  0  0  0  0  0  0  0  0
   11.1384   -0.8870    0.6358 H   0  0  0  0  0  0  0  0  0  0  0  0
   11.6955    1.0794    0.0983 H   0  0  0  0  0  0  0  0  0  0  0  0
    9.1316   -1.0876   -0.3596 H   0  0  0  0  0  0  0  0  0  0  0  0
   10.1163    1.7649   -0.9828 H   0  0  0  0  0  0  0  0  0  0  0  0
   10.8309    0.2579   -1.5584 H   0  0  0  0  0  0  0  0  0  0  0  0
    9.5256    0.8107   -3.1578 H   0  0  0  0  0  0  0  0  0  0  0  0
    1.7388    1.5799   -2.1292 H   0  0  0  0  0  0  0  0  0  0  0  0
    2.9867    1.1270   -0.9791 H   0  0  0  0  0  0  0  0  0  0  0  0
    1.3617   -0.2503    0.3218 H   0  0  0  0  0  0  0  0  0  0  0  0
    0.8559    1.5172    0.1766 H   0  0  0  0  0  0  0  0  0  0  0  0
   -0.1114    1.1423   -2.8113 H   0  0  0  0  0  0  0  0  0  0  0  0
   -0.3046    2.2284   -1.4239 H   0  0  0  0  0  0  0  0  0  0  0  0
   -1.7405    1.3219   -2.1403 H   0  0  0  0  0  0  0  0  0  0  0  0
   -0.7335   -0.5943    0.9678 H   0  0  0  0  0  0  0  0  0  0  0  0
   -1.3522    2.0485    0.3830 H   0  0  0  0  0  0  0  0  0  0  0  0
   -1.7643    1.1752    1.8453 H   0  0  0  0  0  0  0  0  0  0  0  0
   -3.4383    2.0070   -0.4468 H   0  0  0  0  0  0  0  0  0  0  0  0
   -3.7376    2.0227    1.3072 H   0  0  0  0  0  0  0  0  0  0  0  0
   -3.9629    0.5596   -1.7674 H   0  0  0  0  0  0  0  0  0  0  0  0
   -5.6674    0.5640   -1.3466 H   0  0  0  0  0  0  0  0  0  0  0  0
   -4.7886   -0.9830   -1.4360 H   0  0  0  0  0  0  0  0  0  0  0  0
  1  2  1  0
  2  3  1  0
  2  4  1  0
  4  5  1  0
  5  6  1  0
  6  7  1  0
  7  8  1  0
  7  9  1  0
  9 10  1  0
 10 11  1  0
 11 12  1  0
 12 13  1  0
 13 14  1  0
 14 15  1  0
 15 16  2  0
 16 17  1  0
 17 18  1  0
 18 19  1  0
 19 20  1  0
 20 21  1  0
 21 22  1  0
 22 23  1  0
 23 24  1  0
 24 25  1  0
 25 26  1  0
 26 27  1  0
 27 28  1  0
 27 29  1  0
 29 30  1  0
 29 31  1  0
 31 32  1  0
 31 33  1  0
 33 34  1  0
 34 35  1  0
 18 36  1  0
 36 37  1  0
 37 38  1  0
 38 39  1  6
 38 40  1  0
 40 41  1  0
 41 42  1  0
 42 43  1  0
 43 44  1  6
 43  9  1  0
 43 12  1  0
 40 13  1  0
 38 16  1  0
 33 25  1  0
  1 45  1  0
  1 46  1  0
  1 47  1  0
  2 48  1  0
  3 49  1  0
  3 50  1  0
  3 51  1  0
  4 52  1  0
  4 53  1  0
  5 54  1  0
  5 55  1  0
  6 56  1  0
  6 57  1  0
  7 58  1  6
  8 59  1  0
  8 60  1  0
  8 61  1  0
  9 62  1  1
 10 63  1  0
 10 64  1  0
 11 65  1  0
 11 66  1  0
 12 67  1  1
 13 68  1  6
 14 69  1  0
 14 70  1  0
 15 71  1  0
 17 72  1  0
 17 73  1  0
 18 74  1  1
 20 75  1  0
 20 76  1  0
 21 77  1  0
 21 78  1  0
 22 79  1  0
 22 80  1  0
 23 81  1  0
 23 82  1  0
 24 83  1  0
 24 84  1  0
 26 85  1  0
 26 86  1  0
 27 87  1  1
 28 88  1  0
 29 89  1  1
 30 90  1  0
 31 91  1  6
 32 92  1  0
 33 93  1  6
 34 94  1  0
 34 95  1  0
 35 96  1  0
 36 97  1  0
 36 98  1  0
 37 99  1  0
 37100  1  0
 39101  1  0
 39102  1  0
 39103  1  0
 40104  1  1
 41105  1  0
 41106  1  0
 42107  1  0
 42108  1  0
 44109  1  0
 44110  1  0
 44111  1  0
M  END
$$$$
