@<TRIPOS>MOLECULE
*****
 53 55 0 0 0
SMALL
GASTEIGER

@<TRIPOS>ATOM
      1 C           5.8471    3.8643    0.3367 C.3     1  UNL1       -0.0652
      2 C           5.0100    2.6167    0.4728 C.3     1  UNL1       -0.0545
      3 C           5.0665    1.8818   -0.8565 C.3     1  UNL1       -0.0376
      4 C           4.2603    0.6252   -0.8149 C.3     1  UNL1        0.0118
      5 N           2.8775    0.8711   -0.5309 N.pl3   1  UNL1       -0.3134
      6 C           1.9438   -0.2207   -0.4504 C.ar    1  UNL1        0.2169
      7 N           2.3818   -1.4616   -0.6425 N.ar    1  UNL1       -0.2222
      8 C           1.5656   -2.4964   -0.5769 C.ar    1  UNL1        0.0437
      9 C           0.1896   -2.3052   -0.2971 C.ar    1  UNL1        0.0597
     10 C          -0.5771   -3.5207   -0.0984 C.ar    1  UNL1        0.0935
     11 C          -1.8102   -3.7811    0.4135 C.ar    1  UNL1        0.0317
     12 N          -2.0461   -5.1450    0.4631 N.ar    1  UNL1       -0.3393
     13 C          -3.2556   -5.7844    0.9492 C.3     1  UNL1        0.0127
     14 C          -0.9462   -5.7210   -0.0213 C.ar    1  UNL1        0.0964
     15 N          -0.0756   -4.7708   -0.3540 N.ar    1  UNL1       -0.2356
     16 C          -0.2667   -1.0348   -0.1043 C.ar    1  UNL1        0.1333
     17 N          -1.6367   -0.7266    0.0404 N.pl3   1  UNL1       -0.3256
     18 C          -2.0643    0.6309    0.3754 C.3     1  UNL1        0.0221
     19 C          -1.6354    1.6237   -0.6535 C.3     1  UNL1       -0.0322
     20 C          -2.7890    2.4607   -1.1669 C.3     1  UNL1       -0.0252
     21 C          -3.6030    3.0584   -0.0284 C.3     1  UNL1        0.0554
     22 O          -2.9566    4.0982    0.5990 O.3     1  UNL1       -0.3918
     23 C          -4.0391    2.0032    0.9530 C.3     1  UNL1       -0.0252
     24 C          -3.5634    0.6389    0.4971 C.3     1  UNL1       -0.0322
     25 N           0.6500   -0.0201   -0.1883 N.ar    1  UNL1       -0.1991
     26 H           5.7913    4.1865   -0.7214 H       1  UNL1        0.0230
     27 H           6.9114    3.5946    0.5800 H       1  UNL1        0.0230
     28 H           5.4883    4.6902    0.9777 H       1  UNL1        0.0230
     29 H           3.9792    2.9362    0.6974 H       1  UNL1        0.0263
     30 H           5.4122    1.9232    1.2403 H       1  UNL1        0.0263
     31 H           6.1349    1.6043   -1.0175 H       1  UNL1        0.0280
     32 H           4.7067    2.5605   -1.6475 H       1  UNL1        0.0280
     33 H           4.3249    0.1525   -1.8257 H       1  UNL1        0.0462
     34 H           4.7259   -0.0742   -0.0798 H       1  UNL1        0.0462
     35 H           2.5089    1.8316   -0.3759 H       1  UNL1        0.1489
     36 H           1.9798   -3.4786   -0.7427 H       1  UNL1        0.0838
     37 H          -2.5561   -3.1250    0.7871 H       1  UNL1        0.0831
     38 H          -3.4767   -6.7107    0.3614 H       1  UNL1        0.0456
     39 H          -3.1034   -6.0713    2.0156 H       1  UNL1        0.0456
     40 H          -4.0873   -5.0420    0.8835 H       1  UNL1        0.0456
     41 H          -0.7949   -6.7775   -0.1231 H       1  UNL1        0.1029
     42 H          -2.3792   -1.3961   -0.1264 H       1  UNL1        0.1478
     43 H          -1.6651    0.9419    1.3650 H       1  UNL1        0.0498
     44 H          -0.8974    2.3385   -0.2293 H       1  UNL1        0.0284
     45 H          -1.1569    1.1675   -1.5347 H       1  UNL1        0.0284
     46 H          -2.4048    3.3231   -1.7492 H       1  UNL1        0.0291
     47 H          -3.4596    1.8831   -1.8133 H       1  UNL1        0.0291
     48 H          -4.5293    3.4699   -0.5095 H       1  UNL1        0.0593
     49 H          -3.3499    4.2324    1.4966 H       1  UNL1        0.2098
     50 H          -5.1480    1.9407    1.0547 H       1  UNL1        0.0291
     51 H          -3.6408    2.2233    1.9639 H       1  UNL1        0.0291
     52 H          -3.9866    0.4152   -0.4994 H       1  UNL1        0.0284
     53 H          -3.8541   -0.1246    1.2563 H       1  UNL1        0.0284
@<TRIPOS>BOND
     1     1     2    1
     2     2     3    1
     3     3     4    1
     4     4     5    1
     5     5     6    1
     6     6     7   ar
     7     7     8   ar
     8     8     9   ar
     9     9    10    1
    10    10    11   ar
    11    11    12   ar
    12    12    13    1
    13    12    14   ar
    14    14    15   ar
    15     9    16   ar
    16    16    17    1
    17    17    18    1
    18    18    19    1
    19    19    20    1
    20    20    21    1
    21    21    22    1
    22    21    23    1
    23    23    24    1
    24    16    25   ar
    25    25     6   ar
    26    15    10   ar
    27    24    18    1
    28     1    26    1
    29     1    27    1
    30     1    28    1
    31     2    29    1
    32     2    30    1
    33     3    31    1
    34     3    32    1
    35     4    33    1
    36     4    34    1
    37     5    35    1
    38     8    36    1
    39    11    37    1
    40    13    38    1
    41    13    39    1
    42    13    40    1
    43    14    41    1
    44    17    42    1
    45    18    43    1
    46    19    44    1
    47    19    45    1
    48    20    46    1
    49    20    47    1
    50    21    48    1
    51    22    49    1
    52    23    50    1
    53    23    51    1
    54    24    52    1
    55    24    53    1
