
     RDKit          3D

 48 52  0  0  0  0  0  0  0  0999 V2000
   -3.7702   -2.3643   -2.5890 C   0  0  0  0  0  0  0  0  0  0  0  0
   -3.2594   -2.5086   -1.1801 C   0  0  0  0  0  0  0  0  0  0  0  0
   -3.9361   -3.3022   -0.2768 C   0  0  0  0  0  0  0  0  0  0  0  0
   -3.4625   -3.4302    1.0136 C   0  0  0  0  0  0  0  0  0  0  0  0
   -2.3212   -2.7525    1.3490 C   0  0  0  0  0  0  0  0  0  0  0  0
   -1.6457   -1.9597    0.4455 C   0  0  0  0  0  0  0  0  0  0  0  0
   -0.4416   -1.2778    0.8929 C   0  0  0  0  0  0  0  0  0  0  0  0
    0.7116   -1.7752    1.3540 N   0  0  0  0  0  0  0  0  0  0  0  0
    1.5688   -0.7764    1.6575 C   0  0  0  0  0  0  0  0  0  0  0  0
    2.9252   -0.9406    2.2002 C   0  0  0  0  0  0  0  0  0  0  0  0
    3.8557   -1.0850    1.1386 N   0  0  0  0  0  0  0  0  0  0  0  0
    4.3307   -0.0243    0.3673 C   0  0  0  0  0  0  0  0  0  0  0  0
    4.0057    1.2671    0.5844 C   0  0  0  0  0  0  0  0  0  0  0  0
    4.5380    2.2979   -0.2056 C   0  0  0  0  0  0  0  0  0  0  0  0
    5.4116    2.0430   -1.2318 C   0  0  0  0  0  0  0  0  0  0  0  0
    5.7516    0.7285   -1.4624 C   0  0  0  0  0  0  0  0  0  0  0  0
    5.2272   -0.2621   -0.6884 C   0  0  0  0  0  0  0  0  0  0  0  0
    5.5702   -1.5499   -0.9265 F   0  0  0  0  0  0  0  0  0  0  0  0
    0.9399    0.3513    1.3816 N   0  0  0  0  0  0  0  0  0  0  0  0
   -0.3142    0.0926    0.9031 C   0  0  0  0  0  0  0  0  0  0  0  0
   -1.2675    1.1217    0.5047 C   0  0  0  0  0  0  0  0  0  0  0  0
   -2.4824    1.2658    1.1738 C   0  0  0  0  0  0  0  0  0  0  0  0
   -3.3826    2.2408    0.7934 C   0  0  0  0  0  0  0  0  0  0  0  0
   -3.1067    3.0931   -0.2515 C   0  0  0  0  0  0  0  0  0  0  0  0
   -3.7653    4.1206   -0.8468 N   0  0  0  0  0  0  0  0  0  0  0  0
   -3.0045    4.5945   -1.8350 C   0  0  0  0  0  0  0  0  0  0  0  0
   -1.8797    3.8592   -1.8470 N   0  0  0  0  0  0  0  0  0  0  0  0
   -1.9351    2.9481   -0.8905 N   0  0  0  0  0  0  0  0  0  0  0  0
   -1.0457    2.0040   -0.5341 C   0  0  0  0  0  0  0  0  0  0  0  0
   -2.1392   -1.8609   -0.8015 N   0  0  0  0  0  0  0  0  0  0  0  0
   -4.3401   -3.2793   -2.8553 H   0  0  0  0  0  0  0  0  0  0  0  0
   -2.8941   -2.3476   -3.2897 H   0  0  0  0  0  0  0  0  0  0  0  0
   -4.4346   -1.5074   -2.7038 H   0  0  0  0  0  0  0  0  0  0  0  0
   -4.8371   -3.8277   -0.5681 H   0  0  0  0  0  0  0  0  0  0  0  0
   -3.9714   -4.0499    1.7570 H   0  0  0  0  0  0  0  0  0  0  0  0
   -1.9649   -2.8716    2.3839 H   0  0  0  0  0  0  0  0  0  0  0  0
    0.8927   -2.7981    1.4534 H   0  0  0  0  0  0  0  0  0  0  0  0
    2.9444   -1.7891    2.9270 H   0  0  0  0  0  0  0  0  0  0  0  0
    3.1444    0.0148    2.7742 H   0  0  0  0  0  0  0  0  0  0  0  0
    4.2004   -2.0548    0.9308 H   0  0  0  0  0  0  0  0  0  0  0  0
    3.3370    1.5266    1.3923 H   0  0  0  0  0  0  0  0  0  0  0  0
    4.2503    3.3154    0.0028 H   0  0  0  0  0  0  0  0  0  0  0  0
    5.8420    2.8102   -1.8612 H   0  0  0  0  0  0  0  0  0  0  0  0
    6.4433    0.4800   -2.2681 H   0  0  0  0  0  0  0  0  0  0  0  0
   -2.6671    0.5834    1.9861 H   0  0  0  0  0  0  0  0  0  0  0  0
   -4.3293    2.3419    1.3260 H   0  0  0  0  0  0  0  0  0  0  0  0
   -3.1887    5.3989   -2.5233 H   0  0  0  0  0  0  0  0  0  0  0  0
   -0.1035    1.8960   -1.0567 H   0  0  0  0  0  0  0  0  0  0  0  0
  1  2  1  0
  2  3  2  0
  3  4  1  0
  4  5  2  0
  5  6  1  0
  6  7  1  0
  7  8  1  0
  8  9  1  0
  9 10  1  0
 10 11  1  0
 11 12  1  0
 12 13  2  0
 13 14  1  0
 14 15  2  0
 15 16  1  0
 16 17  2  0
 17 18  1  0
  9 19  2  0
 19 20  1  0
 20 21  1  0
 21 22  1  0
 22 23  2  0
 23 24  1  0
 24 25  2  0
 25 26  1  0
 26 27  2  0
 27 28  1  0
 28 29  1  0
  6 30  2  0
 30  2  1  0
 20  7  2  0
 29 21  2  0
 17 12  1  0
 28 24  1  0
  1 31  1  0
  1 32  1  0
  1 33  1  0
  3 34  1  0
  4 35  1  0
  5 36  1  0
  8 37  1  0
 10 38  1  0
 10 39  1  0
 11 40  1  0
 13 41  1  0
 14 42  1  0
 15 43  1  0
 16 44  1  0
 22 45  1  0
 23 46  1  0
 26 47  1  0
 29 48  1  0
M  END
$$$$
