@<TRIPOS>MOLECULE
*****
 48 52 0 0 0
SMALL
GASTEIGER

@<TRIPOS>ATOM
      1 C          -3.7702   -2.3643   -2.5890 C.3     1  UNL1       -0.0223
      2 C          -3.2594   -2.5086   -1.1801 C.ar    1  UNL1        0.0390
      3 C          -3.9361   -3.3022   -0.2768 C.ar    1  UNL1       -0.0406
      4 C          -3.4625   -3.4302    1.0136 C.ar    1  UNL1       -0.0580
      5 C          -2.3212   -2.7525    1.3490 C.ar    1  UNL1       -0.0342
      6 C          -1.6457   -1.9597    0.4455 C.ar    1  UNL1        0.0895
      7 C          -0.4416   -1.2778    0.8929 C.ar    1  UNL1        0.0926
      8 N           0.7116   -1.7752    1.3540 N.ar    1  UNL1       -0.3389
      9 C           1.5688   -0.7764    1.6575 C.ar    1  UNL1        0.1254
     10 C           2.9252   -0.9406    2.2002 C.3     1  UNL1        0.0673
     11 N           3.8557   -1.0850    1.1386 N.pl3   1  UNL1       -0.3345
     12 C           4.3307   -0.0243    0.3673 C.ar    1  UNL1        0.0631
     13 C           4.0057    1.2671    0.5844 C.ar    1  UNL1       -0.0380
     14 C           4.5380    2.2979   -0.2056 C.ar    1  UNL1       -0.0598
     15 C           5.4116    2.0430   -1.2318 C.ar    1  UNL1       -0.0589
     16 C           5.7516    0.7285   -1.4624 C.ar    1  UNL1       -0.0246
     17 C           5.2272   -0.2621   -0.6884 C.ar    1  UNL1        0.1441
     18 F           5.5702   -1.5499   -0.9265 F       1  UNL1       -0.2036
     19 N           0.9399    0.3513    1.3816 N.ar    1  UNL1       -0.2302
     20 C          -0.3142    0.0926    0.9031 C.ar    1  UNL1        0.0998
     21 C          -1.2675    1.1217    0.5047 C.ar    1  UNL1        0.0208
     22 C          -2.4824    1.2658    1.1738 C.ar    1  UNL1       -0.0475
     23 C          -3.3826    2.2408    0.7934 C.ar    1  UNL1       -0.0167
     24 C          -3.1067    3.0931   -0.2515 C.ar    1  UNL1        0.1557
     25 N          -3.7653    4.1206   -0.8468 N.ar    1  UNL1       -0.2149
     26 C          -3.0045    4.5945   -1.8350 C.ar    1  UNL1        0.1390
     27 N          -1.8797    3.8592   -1.8470 N.ar    1  UNL1       -0.1535
     28 N          -1.9351    2.9481   -0.8905 N.ar    1  UNL1       -0.2198
     29 C          -1.0457    2.0040   -0.5341 C.ar    1  UNL1        0.0407
     30 N          -2.1392   -1.8609   -0.8015 N.ar    1  UNL1       -0.2503
     31 H          -4.3401   -3.2793   -2.8553 H       1  UNL1        0.0292
     32 H          -2.8941   -2.3476   -3.2897 H       1  UNL1        0.0292
     33 H          -4.4346   -1.5074   -2.7038 H       1  UNL1        0.0292
     34 H          -4.8371   -3.8277   -0.5681 H       1  UNL1        0.0635
     35 H          -3.9714   -4.0499    1.7570 H       1  UNL1        0.0619
     36 H          -1.9649   -2.8716    2.3839 H       1  UNL1        0.0639
     37 H           0.8927   -2.7981    1.4534 H       1  UNL1        0.1672
     38 H           2.9444   -1.7891    2.9270 H       1  UNL1        0.0541
     39 H           3.1444    0.0148    2.7742 H       1  UNL1        0.0541
     40 H           4.2004   -2.0548    0.9308 H       1  UNL1        0.1466
     41 H           3.3370    1.5266    1.3923 H       1  UNL1        0.0637
     42 H           4.2503    3.3154    0.0028 H       1  UNL1        0.0618
     43 H           5.8420    2.8102   -1.8612 H       1  UNL1        0.0618
     44 H           6.4433    0.4800   -2.2681 H       1  UNL1        0.0647
     45 H          -2.6671    0.5834    1.9861 H       1  UNL1        0.0626
     46 H          -4.3293    2.3419    1.3260 H       1  UNL1        0.0655
     47 H          -3.1887    5.3989   -2.5233 H       1  UNL1        0.1066
     48 H          -0.1035    1.8960   -1.0567 H       1  UNL1        0.0837
@<TRIPOS>BOND
     1     1     2    1
     2     2     3   ar
     3     3     4   ar
     4     4     5   ar
     5     5     6   ar
     6     6     7    1
     7     7     8   ar
     8     8     9   ar
     9     9    10    1
    10    10    11    1
    11    11    12    1
    12    12    13   ar
    13    13    14   ar
    14    14    15   ar
    15    15    16   ar
    16    16    17   ar
    17    17    18    1
    18     9    19   ar
    19    19    20   ar
    20    20    21    1
    21    21    22   ar
    22    22    23   ar
    23    23    24   ar
    24    24    25   ar
    25    25    26   ar
    26    26    27   ar
    27    27    28   ar
    28    28    29   ar
    29     6    30   ar
    30    30     2   ar
    31    20     7   ar
    32    29    21   ar
    33    17    12   ar
    34    28    24   ar
    35     1    31    1
    36     1    32    1
    37     1    33    1
    38     3    34    1
    39     4    35    1
    40     5    36    1
    41     8    37    1
    42    10    38    1
    43    10    39    1
    44    11    40    1
    45    13    41    1
    46    14    42    1
    47    15    43    1
    48    16    44    1
    49    22    45    1
    50    23    46    1
    51    26    47    1
    52    29    48    1
