@<TRIPOS>MOLECULE
*****
 37 40 0 0 0
SMALL
GASTEIGER

@<TRIPOS>ATOM
      1 C          -1.2036   -0.7987    0.0977 C.3     1  UNL1        0.0401
      2 C          -0.1571   -1.7503   -0.3587 C.3     1  UNL1       -0.0072
      3 C           1.1189   -1.1558   -0.7726 C.ar    1  UNL1       -0.0341
      4 C           1.4593    0.1746   -0.7767 C.ar    1  UNL1        0.0308
      5 C           2.6931    0.6029   -1.1880 C.ar    1  UNL1        0.1664
      6 O           3.1366    1.9048   -1.2322 O.3     1  UNL1       -0.5029
      7 C           3.6585   -0.2841   -1.6200 C.ar    1  UNL1        0.1589
      8 O           4.9414    0.0311   -2.0594 O.3     1  UNL1       -0.5033
      9 C           3.3068   -1.6403   -1.6142 C.ar    1  UNL1       -0.0162
     10 C           2.0626   -2.0750   -1.1997 C.ar    1  UNL1       -0.0543
     11 C           0.4688    1.1310   -0.3315 C.ar    1  UNL1       -0.0091
     12 C           0.6950    2.4784   -0.2906 C.ar    1  UNL1       -0.0536
     13 C          -0.2446    3.3902    0.1341 C.ar    1  UNL1       -0.0609
     14 C          -1.4675    2.8483    0.5288 C.ar    1  UNL1       -0.0582
     15 C          -1.7143    1.4900    0.4944 C.ar    1  UNL1       -0.0409
     16 C          -3.0464    0.9341    0.9276 C.3     1  UNL1       -0.0145
     17 C          -2.7427   -0.2139    1.8561 C.3     1  UNL1        0.0032
     18 N          -1.7522   -1.1133    1.3940 N.3     1  UNL1       -0.2978
     19 C          -2.1312   -2.4937    1.5127 C.3     1  UNL1       -0.0122
     20 C          -0.7332    0.5887    0.0556 C.ar    1  UNL1       -0.0189
     21 H          -2.0726   -0.8482   -0.6139 H       1  UNL1        0.0515
     22 H           0.0907   -2.4930    0.4370 H       1  UNL1        0.0332
     23 H          -0.5915   -2.3767   -1.1921 H       1  UNL1        0.0332
     24 H           3.8860    2.1554   -0.5981 H       1  UNL1        0.2923
     25 H           5.3068    0.9725   -1.9901 H       1  UNL1        0.2923
     26 H           4.0400   -2.3699   -1.9474 H       1  UNL1        0.0655
     27 H           1.8854   -3.1505   -1.2321 H       1  UNL1        0.0622
     28 H           1.6002    2.9549   -0.5758 H       1  UNL1        0.0624
     29 H          -0.1286    4.4543    0.1891 H       1  UNL1        0.0618
     30 H          -2.2404    3.5409    0.8730 H       1  UNL1        0.0620
     31 H          -3.5363    1.7168    1.5478 H       1  UNL1        0.0326
     32 H          -3.6651    0.6248    0.0857 H       1  UNL1        0.0326
     33 H          -2.5026    0.1521    2.8806 H       1  UNL1        0.0430
     34 H          -3.7041   -0.7866    1.9872 H       1  UNL1        0.0430
     35 H          -1.6101   -2.9856    2.3531 H       1  UNL1        0.0391
     36 H          -1.8686   -3.0405    0.5906 H       1  UNL1        0.0391
     37 H          -3.2374   -2.5697    1.6480 H       1  UNL1        0.0391
@<TRIPOS>BOND
     1     1     2    1
     2     2     3    1
     3     3     4   ar
     4     4     5   ar
     5     5     6    1
     6     5     7   ar
     7     7     8    1
     8     7     9   ar
     9     9    10   ar
    10     4    11    1
    11    11    12   ar
    12    12    13   ar
    13    13    14   ar
    14    14    15   ar
    15    15    16    1
    16    16    17    1
    17    17    18    1
    18    18    19    1
    19    15    20   ar
    20    18     1    1
    21    20     1    1
    22    10     3   ar
    23    20    11   ar
    24     1    21    1
    25     2    22    1
    26     2    23    1
    27     6    24    1
    28     8    25    1
    29     9    26    1
    30    10    27    1
    31    12    28    1
    32    13    29    1
    33    14    30    1
    34    16    31    1
    35    16    32    1
    36    17    33    1
    37    17    34    1
    38    19    35    1
    39    19    36    1
    40    19    37    1
