
     RDKit          3D

 73 76  0  0  0  0  0  0  0  0999 V2000
   -8.5636   -2.6886    1.3567 C   0  0  0  0  0  0  0  0  0  0  0  0
   -9.5067   -2.3217    0.2594 C   0  0  0  0  0  0  0  0  0  0  0  0
   -9.1906   -1.1339   -0.4494 N   0  0  0  0  0  0  0  0  0  0  0  0
   -8.0351   -1.1401   -1.2612 C   0  0  0  0  0  0  0  0  0  0  0  0
   -6.9158   -0.2452   -0.8773 C   0  0  0  0  0  0  0  0  0  0  0  0
   -7.2602    0.9695   -0.2167 N   0  0  0  0  0  0  0  0  0  0  0  0
   -6.4404    2.0771   -0.6638 C   0  0  0  0  0  0  0  0  0  0  0  0
   -5.0116    1.8235   -0.4128 C   0  0  0  0  0  0  0  0  0  0  0  0
   -4.1470    1.4657   -1.4266 C   0  0  0  0  0  0  0  0  0  0  0  0
   -2.7866    1.2315   -1.1601 C   0  0  0  0  0  0  0  0  0  0  0  0
   -2.2508    1.3417    0.0926 C   0  0  0  0  0  0  0  0  0  0  0  0
   -0.9036    1.1286    0.4542 N   0  0  0  0  0  0  0  0  0  0  0  0
    0.1523    0.7594   -0.4065 C   0  0  0  0  0  0  0  0  0  0  0  0
   -0.0801    0.5917   -1.6220 O   0  0  0  0  0  0  0  0  0  0  0  0
    1.5534    0.5682    0.1363 C   0  0  0  0  0  0  0  0  0  0  0  0
    2.4054    0.2023   -0.9533 N   0  0  0  0  0  0  0  0  0  0  0  0
    3.7874   -0.0265   -0.7268 C   0  0  0  0  0  0  0  0  0  0  0  0
    4.6507   -0.3842   -1.7566 C   0  0  0  0  0  0  0  0  0  0  0  0
    5.9965   -0.6086   -1.5575 C   0  0  0  0  0  0  0  0  0  0  0  0
    6.5391   -0.4840   -0.3118 C   0  0  0  0  0  0  0  0  0  0  0  0
    7.9724   -0.7259   -0.1208 C   0  0  0  0  0  0  0  0  0  0  0  0
    8.8869   -0.4409   -1.1160 C   0  0  0  0  0  0  0  0  0  0  0  0
   10.2344   -0.6797   -0.9103 C   0  0  0  0  0  0  0  0  0  0  0  0
   10.7170   -1.2048    0.2798 C   0  0  0  0  0  0  0  0  0  0  0  0
   12.1053   -1.4450    0.4767 N   0  0  0  0  0  0  0  0  0  0  0  0
   13.0103   -0.5167    1.0070 C   0  0  0  0  0  0  0  0  0  0  0  0
   14.4613   -0.7663    1.2133 C   0  0  0  0  0  0  0  0  0  0  0  0
   12.5846    0.6210    1.3410 O   0  0  0  0  0  0  0  0  0  0  0  0
    9.7976   -1.4700    1.2265 N   0  0  0  0  0  0  0  0  0  0  0  0
    8.4810   -1.2491    1.0568 C   0  0  0  0  0  0  0  0  0  0  0  0
    5.7061   -0.1314    0.7230 C   0  0  0  0  0  0  0  0  0  0  0  0
    4.3557    0.0952    0.5310 C   0  0  0  0  0  0  0  0  0  0  0  0
   -3.1534    1.7061    1.0987 C   0  0  0  0  0  0  0  0  0  0  0  0
   -4.4888    1.9401    0.8597 C   0  0  0  0  0  0  0  0  0  0  0  0
   -5.4163    2.3265    1.9661 C   0  0  0  0  0  0  0  0  0  0  0  0
   -4.6595    2.3867    3.1459 F   0  0  0  0  0  0  0  0  0  0  0  0
   -6.3551    1.3274    2.2162 F   0  0  0  0  0  0  0  0  0  0  0  0
   -5.9757    3.5547    1.7993 F   0  0  0  0  0  0  0  0  0  0  0  0
   -8.6699    1.2319   -0.4158 C   0  0  0  0  0  0  0  0  0  0  0  0
   -9.4228    0.0948    0.2657 C   0  0  0  0  0  0  0  0  0  0  0  0
   -8.2242   -1.7996    1.9469 H   0  0  0  0  0  0  0  0  0  0  0  0
   -9.1540   -3.2998    2.1010 H   0  0  0  0  0  0  0  0  0  0  0  0
   -7.7340   -3.3387    1.0414 H   0  0  0  0  0  0  0  0  0  0  0  0
   -9.5237   -3.1625   -0.4656 H   0  0  0  0  0  0  0  0  0  0  0  0
  -10.5306   -2.2204    0.6762 H   0  0  0  0  0  0  0  0  0  0  0  0
   -8.3600   -0.9664   -2.3274 H   0  0  0  0  0  0  0  0  0  0  0  0
   -7.6423   -2.1997   -1.2823 H   0  0  0  0  0  0  0  0  0  0  0  0
   -6.3983    0.0481   -1.8395 H   0  0  0  0  0  0  0  0  0  0  0  0
   -6.1247   -0.8269   -0.3318 H   0  0  0  0  0  0  0  0  0  0  0  0
   -6.5852    2.1478   -1.7819 H   0  0  0  0  0  0  0  0  0  0  0  0
   -6.8057    3.0475   -0.2757 H   0  0  0  0  0  0  0  0  0  0  0  0
   -4.4904    1.3595   -2.4365 H   0  0  0  0  0  0  0  0  0  0  0  0
   -2.1703    0.9587   -1.9835 H   0  0  0  0  0  0  0  0  0  0  0  0
   -0.6234    1.2532    1.4839 H   0  0  0  0  0  0  0  0  0  0  0  0
    1.8427    1.5068    0.6354 H   0  0  0  0  0  0  0  0  0  0  0  0
    1.5734   -0.2318    0.8965 H   0  0  0  0  0  0  0  0  0  0  0  0
    2.0317    0.1011   -1.9088 H   0  0  0  0  0  0  0  0  0  0  0  0
    4.2203   -0.4826   -2.7466 H   0  0  0  0  0  0  0  0  0  0  0  0
    6.6594   -0.8896   -2.3829 H   0  0  0  0  0  0  0  0  0  0  0  0
    8.5150   -0.0298   -2.0497 H   0  0  0  0  0  0  0  0  0  0  0  0
   10.9443   -0.4549   -1.6917 H   0  0  0  0  0  0  0  0  0  0  0  0
   12.4667   -2.3825    0.2035 H   0  0  0  0  0  0  0  0  0  0  0  0
   14.7290   -0.8992    2.2677 H   0  0  0  0  0  0  0  0  0  0  0  0
   14.9811    0.1555    0.8243 H   0  0  0  0  0  0  0  0  0  0  0  0
   14.8331   -1.5951    0.5843 H   0  0  0  0  0  0  0  0  0  0  0  0
    7.7527   -1.4685    1.8286 H   0  0  0  0  0  0  0  0  0  0  0  0
    6.1310   -0.0304    1.7155 H   0  0  0  0  0  0  0  0  0  0  0  0
    3.6934    0.3738    1.3429 H   0  0  0  0  0  0  0  0  0  0  0  0
   -2.7846    1.8100    2.1200 H   0  0  0  0  0  0  0  0  0  0  0  0
   -8.9886    2.2030    0.0058 H   0  0  0  0  0  0  0  0  0  0  0  0
   -8.8948    1.1777   -1.5025 H   0  0  0  0  0  0  0  0  0  0  0  0
   -9.0091    0.0057    1.2932 H   0  0  0  0  0  0  0  0  0  0  0  0
  -10.4937    0.3489    0.3628 H   0  0  0  0  0  0  0  0  0  0  0  0
  1  2  1  0
  2  3  1  0
  3  4  1  0
  4  5  1  0
  5  6  1  0
  6  7  1  0
  7  8  1  0
  8  9  2  0
  9 10  1  0
 10 11  2  0
 11 12  1  0
 12 13  1  0
 13 14  2  0
 13 15  1  0
 15 16  1  0
 16 17  1  0
 17 18  2  0
 18 19  1  0
 19 20  2  0
 20 21  1  0
 21 22  2  0
 22 23  1  0
 23 24  2  0
 24 25  1  0
 25 26  1  0
 26 27  1  0
 26 28  2  0
 24 29  1  0
 29 30  2  0
 20 31  1  0
 31 32  2  0
 11 33  1  0
 33 34  2  0
 34 35  1  0
 35 36  1  0
 35 37  1  0
 35 38  1  0
  6 39  1  0
 39 40  1  0
 40  3  1  0
 34  8  1  0
 32 17  1  0
 30 21  1  0
  1 41  1  0
  1 42  1  0
  1 43  1  0
  2 44  1  0
  2 45  1  0
  4 46  1  0
  4 47  1  0
  5 48  1  0
  5 49  1  0
  7 50  1  0
  7 51  1  0
  9 52  1  0
 10 53  1  0
 12 54  1  0
 15 55  1  0
 15 56  1  0
 16 57  1  0
 18 58  1  0
 19 59  1  0
 22 60  1  0
 23 61  1  0
 25 62  1  0
 27 63  1  0
 27 64  1  0
 27 65  1  0
 30 66  1  0
 31 67  1  0
 32 68  1  0
 33 69  1  0
 39 70  1  0
 39 71  1  0
 40 72  1  0
 40 73  1  0
M  END
$$$$
