@<TRIPOS>MOLECULE
*****
 73 76 0 0 0
SMALL
GASTEIGER

@<TRIPOS>ATOM
      1 C          -8.5636   -2.6886    1.3567 C.3     1  UNL1       -0.0524
      2 C          -9.5067   -2.3217    0.2594 C.3     1  UNL1       -0.0039
      3 N          -9.1906   -1.1339   -0.4494 N.3     1  UNL1       -0.3002
      4 C          -8.0351   -1.1401   -1.2612 C.3     1  UNL1        0.0117
      5 C          -6.9158   -0.2452   -0.8773 C.3     1  UNL1        0.0120
      6 N          -7.2602    0.9695   -0.2167 N.3     1  UNL1       -0.2957
      7 C          -6.4404    2.0771   -0.6638 C.3     1  UNL1        0.0247
      8 C          -5.0116    1.8235   -0.4128 C.ar    1  UNL1       -0.0216
      9 C          -4.1470    1.4657   -1.4266 C.ar    1  UNL1       -0.0551
     10 C          -2.7866    1.2315   -1.1601 C.ar    1  UNL1       -0.0402
     11 C          -2.2508    1.3417    0.0926 C.ar    1  UNL1        0.0340
     12 N          -0.9036    1.1286    0.4542 N.am    1  UNL1       -0.2842
     13 C           0.1523    0.7594   -0.4065 C.2     1  UNL1        0.2343
     14 O          -0.0801    0.5917   -1.6220 O.2     1  UNL1       -0.2738
     15 C           1.5534    0.5682    0.1363 C.3     1  UNL1        0.0861
     16 N           2.4054    0.2023   -0.9533 N.pl3   1  UNL1       -0.3354
     17 C           3.7874   -0.0265   -0.7268 C.ar    1  UNL1        0.0275
     18 C           4.6507   -0.3842   -1.7566 C.ar    1  UNL1       -0.0403
     19 C           5.9965   -0.6086   -1.5575 C.ar    1  UNL1       -0.0522
     20 C           6.5391   -0.4840   -0.3118 C.ar    1  UNL1       -0.0163
     21 C           7.9724   -0.7259   -0.1208 C.ar    1  UNL1        0.0004
     22 C           8.8869   -0.4409   -1.1160 C.ar    1  UNL1       -0.0493
     23 C          10.2344   -0.6797   -0.9103 C.ar    1  UNL1       -0.0209
     24 C          10.7170   -1.2048    0.2798 C.ar    1  UNL1        0.1249
     25 N          12.1053   -1.4450    0.4767 N.am    1  UNL1       -0.2706
     26 C          13.0103   -0.5167    1.0070 C.2     1  UNL1        0.2152
     27 C          14.4613   -0.7663    1.2133 C.3     1  UNL1        0.0125
     28 O          12.5846    0.6210    1.3410 O.2     1  UNL1       -0.2757
     29 N           9.7976   -1.4700    1.2265 N.ar    1  UNL1       -0.2395
     30 C           8.4810   -1.2491    1.0568 C.ar    1  UNL1        0.0374
     31 C           5.7061   -0.1314    0.7230 C.ar    1  UNL1       -0.0522
     32 C           4.3557    0.0952    0.5310 C.ar    1  UNL1       -0.0403
     33 C          -3.1534    1.7061    1.0987 C.ar    1  UNL1       -0.0285
     34 C          -4.4888    1.9401    0.8597 C.ar    1  UNL1        0.0609
     35 C          -5.4163    2.3265    1.9661 C.3     1  UNL1        0.4178
     36 F          -4.6595    2.3867    3.1459 F       1  UNL1       -0.1659
     37 F          -6.3551    1.3274    2.2162 F       1  UNL1       -0.1659
     38 F          -5.9757    3.5547    1.7993 F       1  UNL1       -0.1659
     39 C          -8.6699    1.2319   -0.4158 C.3     1  UNL1        0.0120
     40 C          -9.4228    0.0948    0.2657 C.3     1  UNL1        0.0117
     41 H          -8.2242   -1.7996    1.9469 H       1  UNL1        0.0242
     42 H          -9.1540   -3.2998    2.1010 H       1  UNL1        0.0242
     43 H          -7.7340   -3.3387    1.0414 H       1  UNL1        0.0242
     44 H          -9.5237   -3.1625   -0.4656 H       1  UNL1        0.0424
     45 H         -10.5306   -2.2204    0.6762 H       1  UNL1        0.0424
     46 H          -8.3600   -0.9664   -2.3274 H       1  UNL1        0.0439
     47 H          -7.6423   -2.1997   -1.2823 H       1  UNL1        0.0439
     48 H          -6.3983    0.0481   -1.8395 H       1  UNL1        0.0439
     49 H          -6.1247   -0.8269   -0.3318 H       1  UNL1        0.0439
     50 H          -6.5852    2.1478   -1.7819 H       1  UNL1        0.0476
     51 H          -6.8057    3.0475   -0.2757 H       1  UNL1        0.0476
     52 H          -4.4904    1.3595   -2.4365 H       1  UNL1        0.0621
     53 H          -2.1703    0.9587   -1.9835 H       1  UNL1        0.0636
     54 H          -0.6234    1.2532    1.4839 H       1  UNL1        0.1549
     55 H           1.8427    1.5068    0.6354 H       1  UNL1        0.0557
     56 H           1.5734   -0.2318    0.8965 H       1  UNL1        0.0557
     57 H           2.0317    0.1011   -1.9088 H       1  UNL1        0.1466
     58 H           4.2203   -0.4826   -2.7466 H       1  UNL1        0.0636
     59 H           6.6594   -0.8896   -2.3829 H       1  UNL1        0.0624
     60 H           8.5150   -0.0298   -2.0497 H       1  UNL1        0.0625
     61 H          10.9443   -0.4549   -1.6917 H       1  UNL1        0.0652
     62 H          12.4667   -2.3825    0.2035 H       1  UNL1        0.1562
     63 H          14.7290   -0.8992    2.2677 H       1  UNL1        0.0323
     64 H          14.9811    0.1555    0.8243 H       1  UNL1        0.0323
     65 H          14.8331   -1.5951    0.5843 H       1  UNL1        0.0323
     66 H           7.7527   -1.4685    1.8286 H       1  UNL1        0.0836
     67 H           6.1310   -0.0304    1.7155 H       1  UNL1        0.0624
     68 H           3.6934    0.3738    1.3429 H       1  UNL1        0.0636
     69 H          -2.7846    1.8100    2.1200 H       1  UNL1        0.0642
     70 H          -8.9886    2.2030    0.0058 H       1  UNL1        0.0439
     71 H          -8.8948    1.1777   -1.5025 H       1  UNL1        0.0439
     72 H          -9.0091    0.0057    1.2932 H       1  UNL1        0.0439
     73 H         -10.4937    0.3489    0.3628 H       1  UNL1        0.0439
@<TRIPOS>BOND
     1     1     2    1
     2     2     3    1
     3     3     4    1
     4     4     5    1
     5     5     6    1
     6     6     7    1
     7     7     8    1
     8     8     9   ar
     9     9    10   ar
    10    10    11   ar
    11    11    12    1
    12    12    13   am
    13    13    14    2
    14    13    15    1
    15    15    16    1
    16    16    17    1
    17    17    18   ar
    18    18    19   ar
    19    19    20   ar
    20    20    21    1
    21    21    22   ar
    22    22    23   ar
    23    23    24   ar
    24    24    25    1
    25    25    26   am
    26    26    27    1
    27    26    28    2
    28    24    29   ar
    29    29    30   ar
    30    20    31   ar
    31    31    32   ar
    32    11    33   ar
    33    33    34   ar
    34    34    35    1
    35    35    36    1
    36    35    37    1
    37    35    38    1
    38     6    39    1
    39    39    40    1
    40    40     3    1
    41    34     8   ar
    42    32    17   ar
    43    30    21   ar
    44     1    41    1
    45     1    42    1
    46     1    43    1
    47     2    44    1
    48     2    45    1
    49     4    46    1
    50     4    47    1
    51     5    48    1
    52     5    49    1
    53     7    50    1
    54     7    51    1
    55     9    52    1
    56    10    53    1
    57    12    54    1
    58    15    55    1
    59    15    56    1
    60    16    57    1
    61    18    58    1
    62    19    59    1
    63    22    60    1
    64    23    61    1
    65    25    62    1
    66    27    63    1
    67    27    64    1
    68    27    65    1
    69    30    66    1
    70    31    67    1
    71    32    68    1
    72    33    69    1
    73    39    70    1
    74    39    71    1
    75    40    72    1
    76    40    73    1
