
     RDKit          3D

 43 45  0  0  0  0  0  0  0  0999 V2000
    0.3417    2.8710   -1.3058 C   0  0  0  0  0  0  0  0  0  0  0  0
    1.1129    2.0105   -0.3457 C   0  0  2  0  0  0  0  0  0  0  0  0
    2.3388    1.5338   -1.0414 C   0  0  0  0  0  0  0  0  0  0  0  0
    2.9104    0.2568   -0.5144 C   0  0  0  0  0  0  0  0  0  0  0  0
    1.9199   -0.7413   -0.2670 N   0  0  0  0  0  0  0  0  0  0  0  0
    2.3213   -2.0290    0.1761 C   0  0  0  0  0  0  0  0  0  0  0  0
    1.4324   -2.8890    0.3863 O   0  0  0  0  0  0  0  0  0  0  0  0
    3.7304   -2.4076    0.4025 C   0  0  0  0  0  0  0  0  0  0  0  0
    4.0048   -2.4075    1.8456 C   0  0  0  0  0  0  0  0  0  0  0  0
    4.2369   -2.4166    2.9814 N   0  0  0  0  0  0  0  0  0  0  0  0
    0.5392   -0.4101   -0.4751 C   0  0  0  0  0  0  0  0  0  0  0  0
    0.2672    0.9084    0.2620 C   0  0  2  0  0  0  0  0  0  0  0  0
   -1.1372    1.2390    0.2401 N   0  0  0  0  0  0  0  0  0  0  0  0
   -1.6163    2.5015    0.7769 C   0  0  0  0  0  0  0  0  0  0  0  0
   -2.1217    0.3626   -0.2616 C   0  0  0  0  0  0  0  0  0  0  0  0
   -2.6843    0.5559   -1.4599 N   0  0  0  0  0  0  0  0  0  0  0  0
   -3.6219   -0.2737   -1.9835 C   0  0  0  0  0  0  0  0  0  0  0  0
   -4.0321   -1.3669   -1.2780 N   0  0  0  0  0  0  0  0  0  0  0  0
   -3.5029   -1.6129   -0.0676 C   0  0  0  0  0  0  0  0  0  0  0  0
   -3.7468   -2.6014    0.8086 N   0  0  0  0  0  0  0  0  0  0  0  0
   -2.9745   -2.4258    1.9072 C   0  0  0  0  0  0  0  0  0  0  0  0
   -2.2398   -1.2984    1.6926 C   0  0  0  0  0  0  0  0  0  0  0  0
   -2.5490   -0.7531    0.4446 C   0  0  0  0  0  0  0  0  0  0  0  0
    0.9880    3.1856   -2.1767 H   0  0  0  0  0  0  0  0  0  0  0  0
   -0.5722    2.4118   -1.6883 H   0  0  0  0  0  0  0  0  0  0  0  0
    0.0441    3.8498   -0.8354 H   0  0  0  0  0  0  0  0  0  0  0  0
    1.4316    2.6748    0.4995 H   0  0  0  0  0  0  0  0  0  0  0  0
    3.1352    2.3226   -0.9226 H   0  0  0  0  0  0  0  0  0  0  0  0
    2.1511    1.5015   -2.1435 H   0  0  0  0  0  0  0  0  0  0  0  0
    3.5447    0.3804    0.3684 H   0  0  0  0  0  0  0  0  0  0  0  0
    3.5795   -0.1514   -1.3295 H   0  0  0  0  0  0  0  0  0  0  0  0
    4.3629   -1.6937   -0.1477 H   0  0  0  0  0  0  0  0  0  0  0  0
    3.8735   -3.4622    0.0388 H   0  0  0  0  0  0  0  0  0  0  0  0
    0.2988   -0.2440   -1.5482 H   0  0  0  0  0  0  0  0  0  0  0  0
   -0.0638   -1.2173   -0.0941 H   0  0  0  0  0  0  0  0  0  0  0  0
    0.5541    0.7346    1.3126 H   0  0  0  0  0  0  0  0  0  0  0  0
   -2.3931    2.3076    1.5674 H   0  0  0  0  0  0  0  0  0  0  0  0
   -0.8140    3.0854    1.2718 H   0  0  0  0  0  0  0  0  0  0  0  0
   -2.1462    3.0829   -0.0057 H   0  0  0  0  0  0  0  0  0  0  0  0
   -4.0696   -0.1013   -2.9608 H   0  0  0  0  0  0  0  0  0  0  0  0
   -4.4089   -3.4141    0.7346 H   0  0  0  0  0  0  0  0  0  0  0  0
   -2.9198   -3.0366    2.8027 H   0  0  0  0  0  0  0  0  0  0  0  0
   -1.5054   -0.8228    2.3328 H   0  0  0  0  0  0  0  0  0  0  0  0
  1  2  1  0
  2  3  1  0
  3  4  1  0
  4  5  1  0
  5  6  1  0
  6  7  2  0
  6  8  1  0
  8  9  1  0
  9 10  3  0
  5 11  1  0
 11 12  1  0
 12 13  1  0
 13 14  1  0
 13 15  1  0
 15 16  2  0
 16 17  1  0
 17 18  2  0
 18 19  1  0
 19 20  1  0
 20 21  1  0
 21 22  2  0
 22 23  1  0
 12  2  1  0
 23 15  1  0
 23 19  2  0
  1 24  1  0
  1 25  1  0
  1 26  1  0
  2 27  1  1
  3 28  1  0
  3 29  1  0
  4 30  1  0
  4 31  1  0
  8 32  1  0
  8 33  1  0
 11 34  1  0
 11 35  1  0
 12 36  1  1
 14 37  1  0
 14 38  1  0
 14 39  1  0
 17 40  1  0
 20 41  1  0
 21 42  1  0
 22 43  1  0
M  END
$$$$
