@<TRIPOS>MOLECULE
*****
 43 45 0 0 0
SMALL
GASTEIGER

@<TRIPOS>ATOM
      1 C           0.3417    2.8710   -1.3058 C.3     1  UNL1       -0.0606
      2 C           1.1129    2.0105   -0.3457 C.3     1  UNL1       -0.0224
      3 C           2.3388    1.5338   -1.0414 C.3     1  UNL1       -0.0328
      4 C           2.9104    0.2568   -0.5144 C.3     1  UNL1        0.0151
      5 N           1.9199   -0.7413   -0.2670 N.am    1  UNL1       -0.2989
      6 C           2.3213   -2.0290    0.1761 C.2     1  UNL1        0.2295
      7 O           1.4324   -2.8890    0.3863 O.2     1  UNL1       -0.2745
      8 C           3.7304   -2.4076    0.4025 C.3     1  UNL1        0.1112
      9 C           4.0048   -2.4075    1.8456 C.1     1  UNL1        0.0719
     10 N           4.2369   -2.4166    2.9814 N.1     1  UNL1       -0.1961
     11 C           0.5392   -0.4101   -0.4751 C.3     1  UNL1        0.0335
     12 C           0.2672    0.9084    0.2620 C.3     1  UNL1        0.0429
     13 N          -1.1372    1.2390    0.2401 N.pl3   1  UNL1       -0.3128
     14 C          -1.6163    2.5015    0.7769 C.3     1  UNL1        0.0024
     15 C          -2.1217    0.3626   -0.2616 C.ar    1  UNL1        0.1338
     16 N          -2.6843    0.5559   -1.4599 N.ar    1  UNL1       -0.2200
     17 C          -3.6219   -0.2737   -1.9835 C.ar    1  UNL1        0.1204
     18 N          -4.0321   -1.3669   -1.2780 N.ar    1  UNL1       -0.2178
     19 C          -3.5029   -1.6129   -0.0676 C.ar    1  UNL1        0.1432
     20 N          -3.7468   -2.6014    0.8086 N.ar    1  UNL1       -0.3457
     21 C          -2.9745   -2.4258    1.9072 C.ar    1  UNL1        0.0042
     22 C          -2.2398   -1.2984    1.6926 C.ar    1  UNL1       -0.0318
     23 C          -2.5490   -0.7531    0.4446 C.ar    1  UNL1        0.0585
     24 H           0.9880    3.1856   -2.1767 H       1  UNL1        0.0233
     25 H          -0.5722    2.4118   -1.6883 H       1  UNL1        0.0233
     26 H           0.0441    3.8498   -0.8354 H       1  UNL1        0.0233
     27 H           1.4316    2.6748    0.4995 H       1  UNL1        0.0317
     28 H           3.1352    2.3226   -0.9226 H       1  UNL1        0.0284
     29 H           2.1511    1.5015   -2.1435 H       1  UNL1        0.0284
     30 H           3.5447    0.3804    0.3684 H       1  UNL1        0.0465
     31 H           3.5795   -0.1514   -1.3295 H       1  UNL1        0.0465
     32 H           4.3629   -1.6937   -0.1477 H       1  UNL1        0.0513
     33 H           3.8735   -3.4622    0.0388 H       1  UNL1        0.0513
     34 H           0.2988   -0.2440   -1.5482 H       1  UNL1        0.0483
     35 H          -0.0638   -1.2173   -0.0941 H       1  UNL1        0.0483
     36 H           0.5541    0.7346    1.3126 H       1  UNL1        0.0518
     37 H          -2.3931    2.3076    1.5674 H       1  UNL1        0.0428
     38 H          -0.8140    3.0854    1.2718 H       1  UNL1        0.0428
     39 H          -2.1462    3.0829   -0.0057 H       1  UNL1        0.0428
     40 H          -4.0696   -0.1013   -2.9608 H       1  UNL1        0.1048
     41 H          -4.4089   -3.4141    0.7346 H       1  UNL1        0.1668
     42 H          -2.9198   -3.0366    2.8027 H       1  UNL1        0.0807
     43 H          -1.5054   -0.8228    2.3328 H       1  UNL1        0.0640
@<TRIPOS>BOND
     1     1     2    1
     2     2     3    1
     3     3     4    1
     4     4     5    1
     5     5     6   am
     6     6     7    2
     7     6     8    1
     8     8     9    1
     9     9    10    3
    10     5    11    1
    11    11    12    1
    12    12    13    1
    13    13    14    1
    14    13    15    1
    15    15    16   ar
    16    16    17   ar
    17    17    18   ar
    18    18    19   ar
    19    19    20   ar
    20    20    21   ar
    21    21    22   ar
    22    22    23   ar
    23    12     2    1
    24    23    15   ar
    25    23    19   ar
    26     1    24    1
    27     1    25    1
    28     1    26    1
    29     2    27    1
    30     3    28    1
    31     3    29    1
    32     4    30    1
    33     4    31    1
    34     8    32    1
    35     8    33    1
    36    11    34    1
    37    11    35    1
    38    12    36    1
    39    14    37    1
    40    14    38    1
    41    14    39    1
    42    17    40    1
    43    20    41    1
    44    21    42    1
    45    22    43    1
