
     RDKit          3D

 22 23  0  0  0  0  0  0  0  0999 V2000
   -3.8272    0.8800    0.1297 N   0  0  0  0  0  0  0  0  0  0  0  0
   -2.9599   -0.4568    0.7850 S   0  0  0  0  0  0  0  0  0  0  0  0
   -2.5045   -0.0856    2.1292 O   0  0  0  0  0  0  0  0  0  0  0  0
   -3.8779   -1.6276    0.8577 O   0  0  0  0  0  0  0  0  0  0  0  0
   -1.6013   -0.9057   -0.2535 C   0  0  0  0  0  0  0  0  0  0  0  0
   -0.5709    0.1542   -0.4004 C   0  0  0  0  0  0  0  0  0  0  0  0
   -0.6747    1.4836   -0.5947 N   0  0  0  0  0  0  0  0  0  0  0  0
    0.4713    2.0659   -0.5857 O   0  0  0  0  0  0  0  0  0  0  0  0
    1.4719    1.2655   -0.4004 C   0  0  0  0  0  0  0  0  0  0  0  0
    2.8371    1.2829   -0.3082 C   0  0  0  0  0  0  0  0  0  0  0  0
    3.5906    0.1508   -0.1085 C   0  0  0  0  0  0  0  0  0  0  0  0
    2.9960   -1.0877    0.0127 C   0  0  0  0  0  0  0  0  0  0  0  0
    1.5879   -1.1030   -0.0723 C   0  0  0  0  0  0  0  0  0  0  0  0
    0.8189    0.0617   -0.2780 C   0  0  0  0  0  0  0  0  0  0  0  0
   -3.9255    0.8067   -0.9059 H   0  0  0  0  0  0  0  0  0  0  0  0
   -3.5940    1.8041    0.4850 H   0  0  0  0  0  0  0  0  0  0  0  0
   -1.8467   -1.3217   -1.2179 H   0  0  0  0  0  0  0  0  0  0  0  0
   -1.0617   -1.7272    0.3306 H   0  0  0  0  0  0  0  0  0  0  0  0
    3.3099    2.2328   -0.3914 H   0  0  0  0  0  0  0  0  0  0  0  0
    4.6764    0.1980   -0.0234 H   0  0  0  0  0  0  0  0  0  0  0  0
    3.5671   -1.9983    0.1602 H   0  0  0  0  0  0  0  0  0  0  0  0
    1.1172   -2.0726    0.0459 H   0  0  0  0  0  0  0  0  0  0  0  0
  1  2  1  0
  2  3  2  0
  2  4  2  0
  2  5  1  0
  5  6  1  0
  6  7  2  0
  7  8  1  0
  8  9  1  0
  9 10  2  0
 10 11  1  0
 11 12  2  0
 12 13  1  0
 13 14  2  0
 14  6  1  0
 14  9  1  0
  1 15  1  0
  1 16  1  0
  5 17  1  0
  5 18  1  0
 10 19  1  0
 11 20  1  0
 12 21  1  0
 13 22  1  0
M  END
$$$$
