
     RDKit          3D

 62 66  0  0  0  0  0  0  0  0999 V2000
    8.9179    0.5214    2.2583 C   0  0  0  0  0  0  0  0  0  0  0  0
    7.9564   -0.3490    1.5141 C   0  0  0  0  0  0  0  0  0  0  0  0
    7.6159    0.1883    0.2391 N   0  0  0  0  0  0  0  0  0  0  0  0
    6.8225    1.3589    0.2203 C   0  0  0  0  0  0  0  0  0  0  0  0
    5.3319    1.1518    0.2607 C   0  0  0  0  0  0  0  0  0  0  0  0
    5.0134   -0.0731   -0.4527 N   0  0  0  0  0  0  0  0  0  0  0  0
    3.8319   -0.7683   -0.2208 C   0  0  0  0  0  0  0  0  0  0  0  0
    2.6909   -0.8426   -0.7787 N   0  0  0  0  0  0  0  0  0  0  0  0
    1.6801   -1.5222   -0.4631 C   0  0  0  0  0  0  0  0  0  0  0  0
    0.3237   -1.5593   -1.1843 C   0  0  0  0  0  0  0  0  0  0  0  0
   -0.4952   -0.6431   -0.5143 O   0  0  0  0  0  0  0  0  0  0  0  0
   -1.8094   -0.4221   -0.9430 C   0  0  0  0  0  0  0  0  0  0  0  0
   -2.3642   -1.0480   -2.0238 C   0  0  0  0  0  0  0  0  0  0  0  0
   -3.6682   -0.7689   -2.3746 C   0  0  0  0  0  0  0  0  0  0  0  0
   -4.2672   -1.3526   -3.4284 N   0  0  0  0  0  0  0  0  0  0  0  0
   -5.5325   -1.1068   -3.8008 C   0  0  0  0  0  0  0  0  0  0  0  0
   -6.2540   -0.2158   -3.0713 N   0  0  0  0  0  0  0  0  0  0  0  0
   -5.7516    0.4170   -2.0070 C   0  0  0  0  0  0  0  0  0  0  0  0
   -6.4355    1.3470   -1.1851 N   0  0  0  0  0  0  0  0  0  0  0  0
   -7.0027    0.8450    0.0339 C   0  0  0  0  0  0  0  0  0  0  0  0
   -7.3810   -0.4852    0.1499 C   0  0  0  0  0  0  0  0  0  0  0  0
   -7.8890   -0.9605    1.3493 C   0  0  0  0  0  0  0  0  0  0  0  0
   -8.0441   -0.1613    2.4580 C   0  0  0  0  0  0  0  0  0  0  0  0
   -8.6897   -0.7936    3.9663 Cl  0  0  0  0  0  0  0  0  0  0  0  0
   -7.6693    1.1692    2.3495 C   0  0  0  0  0  0  0  0  0  0  0  0
   -7.8276    2.2299    3.7194 Cl  0  0  0  0  0  0  0  0  0  0  0  0
   -7.1597    1.6461    1.1518 C   0  0  0  0  0  0  0  0  0  0  0  0
   -4.4350    0.1267   -1.6639 C   0  0  0  0  0  0  0  0  0  0  0  0
   -3.8691    0.7616   -0.5641 C   0  0  0  0  0  0  0  0  0  0  0  0
   -2.5594    0.4749   -0.2211 C   0  0  0  0  0  0  0  0  0  0  0  0
   -2.0394    1.1342    0.8907 O   0  0  0  0  0  0  0  0  0  0  0  0
   -2.8296    2.0539    1.6371 C   0  0  0  0  0  0  0  0  0  0  0  0
    1.7755   -2.3593    0.6952 C   0  0  0  0  0  0  0  0  0  0  0  0
    3.5445   -1.9556    1.1777 S   0  0  0  0  0  0  0  0  0  0  0  0
    6.0114   -0.5170   -1.4390 C   0  0  0  0  0  0  0  0  0  0  0  0
    7.2613   -0.8504   -0.6683 C   0  0  0  0  0  0  0  0  0  0  0  0
    9.1069    0.0588    3.2626 H   0  0  0  0  0  0  0  0  0  0  0  0
    9.8752    0.5211    1.6637 H   0  0  0  0  0  0  0  0  0  0  0  0
    8.5507    1.5517    2.3655 H   0  0  0  0  0  0  0  0  0  0  0  0
    8.4599   -1.3563    1.3700 H   0  0  0  0  0  0  0  0  0  0  0  0
    7.0165   -0.5188    2.0779 H   0  0  0  0  0  0  0  0  0  0  0  0
    7.0551    1.9602   -0.6907 H   0  0  0  0  0  0  0  0  0  0  0  0
    7.0767    1.9855    1.0973 H   0  0  0  0  0  0  0  0  0  0  0  0
    4.9302    1.1583    1.2852 H   0  0  0  0  0  0  0  0  0  0  0  0
    4.8298    1.9600   -0.3063 H   0  0  0  0  0  0  0  0  0  0  0  0
    0.4802   -1.2693   -2.2663 H   0  0  0  0  0  0  0  0  0  0  0  0
   -0.0606   -2.5846   -1.1906 H   0  0  0  0  0  0  0  0  0  0  0  0
   -1.7681   -1.7544   -2.5830 H   0  0  0  0  0  0  0  0  0  0  0  0
   -5.9913   -1.5994   -4.6691 H   0  0  0  0  0  0  0  0  0  0  0  0
   -6.5399    2.3328   -1.4197 H   0  0  0  0  0  0  0  0  0  0  0  0
   -7.2593   -1.1190   -0.7324 H   0  0  0  0  0  0  0  0  0  0  0  0
   -8.1864   -1.9948    1.4447 H   0  0  0  0  0  0  0  0  0  0  0  0
   -6.8669    2.6874    1.0687 H   0  0  0  0  0  0  0  0  0  0  0  0
   -4.4735    1.4660   -0.0094 H   0  0  0  0  0  0  0  0  0  0  0  0
   -3.0336    2.9821    1.0844 H   0  0  0  0  0  0  0  0  0  0  0  0
   -3.8096    1.5728    1.8986 H   0  0  0  0  0  0  0  0  0  0  0  0
   -2.2972    2.3177    2.5732 H   0  0  0  0  0  0  0  0  0  0  0  0
    1.1780   -2.9855    1.1753 H   0  0  0  0  0  0  0  0  0  0  0  0
    5.5801   -1.4079   -1.9389 H   0  0  0  0  0  0  0  0  0  0  0  0
    6.2195    0.2953   -2.1891 H   0  0  0  0  0  0  0  0  0  0  0  0
    7.0275   -1.7806   -0.0943 H   0  0  0  0  0  0  0  0  0  0  0  0
    8.0963   -1.1506   -1.3443 H   0  0  0  0  0  0  0  0  0  0  0  0
  1  2  1  0
  2  3  1  0
  3  4  1  0
  4  5  1  0
  5  6  1  0
  6  7  1  0
  7  8  2  0
  8  9  1  0
  9 10  1  0
 10 11  1  0
 11 12  1  0
 12 13  2  0
 13 14  1  0
 14 15  2  0
 15 16  1  0
 16 17  2  0
 17 18  1  0
 18 19  1  0
 19 20  1  0
 20 21  2  0
 21 22  1  0
 22 23  2  0
 23 24  1  0
 23 25  1  0
 25 26  1  0
 25 27  2  0
 18 28  2  0
 28 29  1  0
 29 30  2  0
 30 31  1  0
 31 32  1  0
  9 33  2  0
 33 34  1  0
  6 35  1  0
 35 36  1  0
 36  3  1  0
 34  7  1  0
 30 12  1  0
 28 14  1  0
 27 20  1  0
  1 37  1  0
  1 38  1  0
  1 39  1  0
  2 40  1  0
  2 41  1  0
  4 42  1  0
  4 43  1  0
  5 44  1  0
  5 45  1  0
 10 46  1  0
 10 47  1  0
 13 48  1  0
 16 49  1  0
 19 50  1  0
 21 51  1  0
 22 52  1  0
 27 53  1  0
 29 54  1  0
 32 55  1  0
 32 56  1  0
 32 57  1  0
 33 58  1  0
 35 59  1  0
 35 60  1  0
 36 61  1  0
 36 62  1  0
M  END
$$$$
