@<TRIPOS>MOLECULE
*****
 62 66 0 0 0
SMALL
GASTEIGER

@<TRIPOS>ATOM
      1 C           8.9179    0.5214    2.2583 C.3     1  UNL1       -0.0524
      2 C           7.9564   -0.3490    1.5141 C.3     1  UNL1       -0.0038
      3 N           7.6159    0.1883    0.2391 N.3     1  UNL1       -0.2996
      4 C           6.8225    1.3589    0.2203 C.3     1  UNL1        0.0147
      5 C           5.3319    1.1518    0.2607 C.3     1  UNL1        0.0268
      6 N           5.0134   -0.0731   -0.4527 N.pl3   1  UNL1       -0.3072
      7 C           3.8319   -0.7683   -0.2208 C.ar    1  UNL1        0.1611
      8 N           2.6909   -0.8426   -0.7787 N.ar    1  UNL1       -0.2263
      9 C           1.6801   -1.5222   -0.4631 C.ar    1  UNL1        0.0877
     10 C           0.3237   -1.5593   -1.1843 C.3     1  UNL1        0.1321
     11 O          -0.4952   -0.6431   -0.5143 O.3     1  UNL1       -0.4821
     12 C          -1.8094   -0.4221   -0.9430 C.ar    1  UNL1        0.1645
     13 C          -2.3642   -1.0480   -2.0238 C.ar    1  UNL1        0.0099
     14 C          -3.6682   -0.7689   -2.3746 C.ar    1  UNL1        0.0797
     15 N          -4.2672   -1.3526   -3.4284 N.ar    1  UNL1       -0.2352
     16 C          -5.5325   -1.1068   -3.8008 C.ar    1  UNL1        0.1187
     17 N          -6.2540   -0.2158   -3.0713 N.ar    1  UNL1       -0.2200
     18 C          -5.7516    0.4170   -2.0070 C.ar    1  UNL1        0.1340
     19 N          -6.4355    1.3470   -1.1851 N.pl3   1  UNL1       -0.2988
     20 C          -7.0027    0.8450    0.0339 C.ar    1  UNL1        0.0339
     21 C          -7.3810   -0.4852    0.1499 C.ar    1  UNL1       -0.0390
     22 C          -7.8890   -0.9605    1.3493 C.ar    1  UNL1       -0.0402
     23 C          -8.0441   -0.1613    2.4580 C.ar    1  UNL1        0.0594
     24 CL         -8.6897   -0.7936    3.9663 Cl      1  UNL1       -0.0820
     25 C          -7.6693    1.1692    2.3495 C.ar    1  UNL1        0.0610
     26 CL         -7.8276    2.2299    3.7194 Cl      1  UNL1       -0.0820
     27 C          -7.1597    1.6461    1.1518 C.ar    1  UNL1       -0.0207
     28 C          -4.4350    0.1267   -1.6639 C.ar    1  UNL1        0.0441
     29 C          -3.8691    0.7616   -0.5641 C.ar    1  UNL1       -0.0038
     30 C          -2.5594    0.4749   -0.2211 C.ar    1  UNL1        0.1623
     31 O          -2.0394    1.1342    0.8907 O.3     1  UNL1       -0.4914
     32 C          -2.8296    2.0539    1.6371 C.3     1  UNL1        0.0790
     33 C           1.7755   -2.3593    0.6952 C.ar    1  UNL1        0.0035
     34 S           3.5445   -1.9556    1.1777 S.2     1  UNL1       -0.0603
     35 C           6.0114   -0.5170   -1.4390 C.3     1  UNL1        0.0268
     36 C           7.2613   -0.8504   -0.6683 C.3     1  UNL1        0.0147
     37 H           9.1069    0.0588    3.2626 H       1  UNL1        0.0242
     38 H           9.8752    0.5211    1.6637 H       1  UNL1        0.0242
     39 H           8.5507    1.5517    2.3655 H       1  UNL1        0.0242
     40 H           8.4599   -1.3563    1.3700 H       1  UNL1        0.0424
     41 H           7.0165   -0.5188    2.0779 H       1  UNL1        0.0424
     42 H           7.0551    1.9602   -0.6907 H       1  UNL1        0.0442
     43 H           7.0767    1.9855    1.0973 H       1  UNL1        0.0442
     44 H           4.9302    1.1583    1.2852 H       1  UNL1        0.0477
     45 H           4.8298    1.9600   -0.3063 H       1  UNL1        0.0477
     46 H           0.4802   -1.2693   -2.2663 H       1  UNL1        0.0763
     47 H          -0.0606   -2.5846   -1.1906 H       1  UNL1        0.0763
     48 H          -1.7681   -1.7544   -2.5830 H       1  UNL1        0.0677
     49 H          -5.9913   -1.5994   -4.6691 H       1  UNL1        0.1048
     50 H          -6.5399    2.3328   -1.4197 H       1  UNL1        0.1536
     51 H          -7.2593   -1.1190   -0.7324 H       1  UNL1        0.0636
     52 H          -8.1864   -1.9948    1.4447 H       1  UNL1        0.0633
     53 H          -6.8669    2.6874    1.0687 H       1  UNL1        0.0651
     54 H          -4.4735    1.4660   -0.0094 H       1  UNL1        0.0663
     55 H          -3.0336    2.9821    1.0844 H       1  UNL1        0.0660
     56 H          -3.8096    1.5728    1.8986 H       1  UNL1        0.0660
     57 H          -2.2972    2.3177    2.5732 H       1  UNL1        0.0660
     58 H           1.1780   -2.9855    1.1753 H       1  UNL1        0.0713
     59 H           5.5801   -1.4079   -1.9389 H       1  UNL1        0.0477
     60 H           6.2195    0.2953   -2.1891 H       1  UNL1        0.0477
     61 H           7.0275   -1.7806   -0.0943 H       1  UNL1        0.0442
     62 H           8.0963   -1.1506   -1.3443 H       1  UNL1        0.0442
@<TRIPOS>BOND
     1     1     2    1
     2     2     3    1
     3     3     4    1
     4     4     5    1
     5     5     6    1
     6     6     7    1
     7     7     8   ar
     8     8     9   ar
     9     9    10    1
    10    10    11    1
    11    11    12    1
    12    12    13   ar
    13    13    14   ar
    14    14    15   ar
    15    15    16   ar
    16    16    17   ar
    17    17    18   ar
    18    18    19    1
    19    19    20    1
    20    20    21   ar
    21    21    22   ar
    22    22    23   ar
    23    23    24    1
    24    23    25   ar
    25    25    26    1
    26    25    27   ar
    27    18    28   ar
    28    28    29   ar
    29    29    30   ar
    30    30    31    1
    31    31    32    1
    32     9    33   ar
    33    33    34   ar
    34     6    35    1
    35    35    36    1
    36    36     3    1
    37    34     7   ar
    38    30    12   ar
    39    28    14   ar
    40    27    20   ar
    41     1    37    1
    42     1    38    1
    43     1    39    1
    44     2    40    1
    45     2    41    1
    46     4    42    1
    47     4    43    1
    48     5    44    1
    49     5    45    1
    50    10    46    1
    51    10    47    1
    52    13    48    1
    53    16    49    1
    54    19    50    1
    55    21    51    1
    56    22    52    1
    57    27    53    1
    58    29    54    1
    59    32    55    1
    60    32    56    1
    61    32    57    1
    62    33    58    1
    63    35    59    1
    64    35    60    1
    65    36    61    1
    66    36    62    1
