
     RDKit          3D

 52 56  0  0  0  0  0  0  0  0999 V2000
   -3.1543   -3.3415   -0.6725 C   0  0  0  0  0  0  0  0  0  0  0  0
   -3.1480   -1.8952   -0.5701 N   0  0  0  0  0  0  0  0  0  0  0  0
   -2.2500   -1.1198   -1.1583 C   0  0  0  0  0  0  0  0  0  0  0  0
   -2.4252    0.2297   -0.9371 C   0  0  0  0  0  0  0  0  0  0  0  0
   -3.5668    0.2288   -0.1184 C   0  0  0  0  0  0  0  0  0  0  0  0
   -4.3301    1.1953    0.5100 C   0  0  0  0  0  0  0  0  0  0  0  0
   -5.4320    0.8877    1.2881 C   0  0  0  0  0  0  0  0  0  0  0  0
   -5.7825   -0.4274    1.4434 C   0  0  0  0  0  0  0  0  0  0  0  0
   -5.0723   -1.4336    0.8510 C   0  0  0  0  0  0  0  0  0  0  0  0
   -3.9798   -1.0676    0.0847 C   0  0  0  0  0  0  0  0  0  0  0  0
   -1.7696    1.4823   -1.2691 C   0  0  0  0  0  0  0  0  0  0  0  0
   -0.5080    1.8856   -1.1297 C   0  0  0  0  0  0  0  0  0  0  0  0
   -0.3967    3.2585   -1.6388 C   0  0  0  0  0  0  0  0  0  0  0  0
    0.6326    4.0190   -1.6929 O   0  0  0  0  0  0  0  0  0  0  0  0
   -1.6763    3.6878   -2.1080 N   0  0  0  0  0  0  0  0  0  0  0  0
   -2.5524    2.5804   -1.8831 C   0  0  0  0  0  0  0  0  0  0  0  0
   -3.7583    2.7405   -2.2303 O   0  0  0  0  0  0  0  0  0  0  0  0
    0.5924    1.1121   -0.5842 C   0  0  0  0  0  0  0  0  0  0  0  0
    1.1644   -0.1244   -0.7661 C   0  0  0  0  0  0  0  0  0  0  0  0
    2.1801   -0.3674    0.0784 N   0  0  0  0  0  0  0  0  0  0  0  0
    2.9929   -1.5413    0.1817 C   0  0  0  0  0  0  0  0  0  0  0  0
    4.2315   -1.5533   -0.6383 C   0  0  0  0  0  0  0  0  0  0  0  0
    5.0037   -2.8564   -0.4299 C   0  0  0  0  0  0  0  0  0  0  0  0
    6.2010   -2.8304   -1.2472 N   0  0  0  0  0  0  0  0  0  0  0  0
    2.3121    0.7377    0.8674 C   0  0  0  0  0  0  0  0  0  0  0  0
    1.3381    1.6607    0.4698 C   0  0  0  0  0  0  0  0  0  0  0  0
    1.3496    2.8161    1.1833 C   0  0  0  0  0  0  0  0  0  0  0  0
    2.2087    3.1276    2.2175 C   0  0  0  0  0  0  0  0  0  0  0  0
    3.1485    2.1719    2.5606 C   0  0  0  0  0  0  0  0  0  0  0  0
    3.2095    0.9713    1.8913 C   0  0  0  0  0  0  0  0  0  0  0  0
   -2.8860   -3.6725   -1.7030 H   0  0  0  0  0  0  0  0  0  0  0  0
   -2.5115   -3.8151    0.0908 H   0  0  0  0  0  0  0  0  0  0  0  0
   -4.1936   -3.7229   -0.4576 H   0  0  0  0  0  0  0  0  0  0  0  0
   -1.4306   -1.4443   -1.7780 H   0  0  0  0  0  0  0  0  0  0  0  0
   -4.0717    2.2216    0.4075 H   0  0  0  0  0  0  0  0  0  0  0  0
   -5.9781    1.7176    1.7472 H   0  0  0  0  0  0  0  0  0  0  0  0
   -6.6361   -0.6744    2.0449 H   0  0  0  0  0  0  0  0  0  0  0  0
   -5.3559   -2.4664    0.9781 H   0  0  0  0  0  0  0  0  0  0  0  0
   -1.8594    4.6329   -2.5175 H   0  0  0  0  0  0  0  0  0  0  0  0
    0.7907   -0.7749   -1.5273 H   0  0  0  0  0  0  0  0  0  0  0  0
    3.2511   -1.8105    1.2412 H   0  0  0  0  0  0  0  0  0  0  0  0
    2.3771   -2.4300   -0.1591 H   0  0  0  0  0  0  0  0  0  0  0  0
    4.9089   -0.7447   -0.2791 H   0  0  0  0  0  0  0  0  0  0  0  0
    4.0577   -1.5048   -1.7226 H   0  0  0  0  0  0  0  0  0  0  0  0
    5.3292   -2.8840    0.6241 H   0  0  0  0  0  0  0  0  0  0  0  0
    4.3524   -3.7058   -0.7034 H   0  0  0  0  0  0  0  0  0  0  0  0
    6.1639   -3.5258   -2.0108 H   0  0  0  0  0  0  0  0  0  0  0  0
    6.3104   -1.8771   -1.6582 H   0  0  0  0  0  0  0  0  0  0  0  0
    0.6411    3.5939    0.9710 H   0  0  0  0  0  0  0  0  0  0  0  0
    2.1810    4.0514    2.7519 H   0  0  0  0  0  0  0  0  0  0  0  0
    3.8575    2.3497    3.3672 H   0  0  0  0  0  0  0  0  0  0  0  0
    3.9389    0.2516    2.1735 H   0  0  0  0  0  0  0  0  0  0  0  0
  1  2  1  0
  2  3  1  0
  3  4  2  0
  4  5  1  0
  5  6  2  0
  6  7  1  0
  7  8  2  0
  8  9  1  0
  9 10  2  0
  4 11  1  0
 11 12  2  0
 12 13  1  0
 13 14  2  0
 13 15  1  0
 15 16  1  0
 16 17  2  0
 12 18  1  0
 18 19  2  0
 19 20  1  0
 20 21  1  0
 21 22  1  0
 22 23  1  0
 23 24  1  0
 20 25  1  0
 25 26  2  0
 26 27  1  0
 27 28  2  0
 28 29  1  0
 29 30  2  0
 10  2  1  0
 16 11  1  0
 26 18  1  0
 10  5  1  0
 30 25  1  0
  1 31  1  0
  1 32  1  0
  1 33  1  0
  3 34  1  0
  6 35  1  0
  7 36  1  0
  8 37  1  0
  9 38  1  0
 15 39  1  0
 19 40  1  0
 21 41  1  0
 21 42  1  0
 22 43  1  0
 22 44  1  0
 23 45  1  0
 23 46  1  0
 24 47  1  0
 24 48  1  0
 27 49  1  0
 28 50  1  0
 29 51  1  0
 30 52  1  0
M  END
$$$$
