@<TRIPOS>MOLECULE
*****
 52 56 0 0 0
SMALL
GASTEIGER

@<TRIPOS>ATOM
      1 C          -3.1543   -3.3415   -0.6725 C.3     1  UNL1        0.0119
      2 N          -3.1480   -1.8952   -0.5701 N.ar    1  UNL1       -0.3491
      3 C          -2.2500   -1.1198   -1.1583 C.ar    1  UNL1        0.0133
      4 C          -2.4252    0.2297   -0.9371 C.ar    1  UNL1        0.0131
      5 C          -3.5668    0.2288   -0.1184 C.ar    1  UNL1        0.0077
      6 C          -4.3301    1.1953    0.5100 C.ar    1  UNL1       -0.0520
      7 C          -5.4320    0.8877    1.2881 C.ar    1  UNL1       -0.0611
      8 C          -5.7825   -0.4274    1.4434 C.ar    1  UNL1       -0.0598
      9 C          -5.0723   -1.4336    0.8510 C.ar    1  UNL1       -0.0376
     10 C          -3.9798   -1.0676    0.0847 C.ar    1  UNL1        0.0494
     11 C          -1.7696    1.4823   -1.2691 C.2     1  UNL1        0.0590
     12 C          -0.5080    1.8856   -1.1297 C.2     1  UNL1        0.0590
     13 C          -0.3967    3.2585   -1.6388 C.2     1  UNL1        0.2519
     14 O           0.6326    4.0190   -1.6929 O.2     1  UNL1       -0.2697
     15 N          -1.6763    3.6878   -2.1080 N.am    1  UNL1       -0.2483
     16 C          -2.5524    2.5804   -1.8831 C.2     1  UNL1        0.2519
     17 O          -3.7583    2.7405   -2.2303 O.2     1  UNL1       -0.2697
     18 C           0.5924    1.1121   -0.5842 C.ar    1  UNL1        0.0131
     19 C           1.1644   -0.1244   -0.7661 C.ar    1  UNL1        0.0136
     20 N           2.1801   -0.3674    0.0784 N.ar    1  UNL1       -0.3460
     21 C           2.9929   -1.5413    0.1817 C.3     1  UNL1        0.0245
     22 C           4.2315   -1.5533   -0.6383 C.3     1  UNL1       -0.0226
     23 C           5.0037   -2.8564   -0.4299 C.3     1  UNL1       -0.0053
     24 N           6.2010   -2.8304   -1.2472 N.3     1  UNL1       -0.3299
     25 C           2.3121    0.7377    0.8674 C.ar    1  UNL1        0.0497
     26 C           1.3381    1.6607    0.4698 C.ar    1  UNL1        0.0077
     27 C           1.3496    2.8161    1.1833 C.ar    1  UNL1       -0.0520
     28 C           2.2087    3.1276    2.2175 C.ar    1  UNL1       -0.0611
     29 C           3.1485    2.1719    2.5606 C.ar    1  UNL1       -0.0598
     30 C           3.2095    0.9713    1.8913 C.ar    1  UNL1       -0.0376
     31 H          -2.8860   -3.6725   -1.7030 H       1  UNL1        0.0456
     32 H          -2.5115   -3.8151    0.0908 H       1  UNL1        0.0456
     33 H          -4.1936   -3.7229   -0.4576 H       1  UNL1        0.0456
     34 H          -1.4306   -1.4443   -1.7780 H       1  UNL1        0.0815
     35 H          -4.0717    2.2216    0.4075 H       1  UNL1        0.0624
     36 H          -5.9781    1.7176    1.7472 H       1  UNL1        0.0618
     37 H          -6.6361   -0.6744    2.0449 H       1  UNL1        0.0618
     38 H          -5.3559   -2.4664    0.9781 H       1  UNL1        0.0638
     39 H          -1.8594    4.6329   -2.5175 H       1  UNL1        0.1581
     40 H           0.7907   -0.7749   -1.5273 H       1  UNL1        0.0815
     41 H           3.2511   -1.8105    1.2412 H       1  UNL1        0.0492
     42 H           2.3771   -2.4300   -0.1591 H       1  UNL1        0.0492
     43 H           4.9089   -0.7447   -0.2791 H       1  UNL1        0.0295
     44 H           4.0577   -1.5048   -1.7226 H       1  UNL1        0.0295
     45 H           5.3292   -2.8840    0.6241 H       1  UNL1        0.0422
     46 H           4.3524   -3.7058   -0.7034 H       1  UNL1        0.0422
     47 H           6.1639   -3.5258   -2.0108 H       1  UNL1        0.1182
     48 H           6.3104   -1.8771   -1.6582 H       1  UNL1        0.1182
     49 H           0.6411    3.5939    0.9710 H       1  UNL1        0.0624
     50 H           2.1810    4.0514    2.7519 H       1  UNL1        0.0618
     51 H           3.8575    2.3497    3.3672 H       1  UNL1        0.0618
     52 H           3.9389    0.2516    2.1735 H       1  UNL1        0.0638
@<TRIPOS>BOND
     1     1     2    1
     2     2     3   ar
     3     3     4   ar
     4     4     5   ar
     5     5     6   ar
     6     6     7   ar
     7     7     8   ar
     8     8     9   ar
     9     9    10   ar
    10     4    11    1
    11    11    12    2
    12    12    13    1
    13    13    14    2
    14    13    15   am
    15    15    16   am
    16    16    17    2
    17    12    18    1
    18    18    19   ar
    19    19    20   ar
    20    20    21    1
    21    21    22    1
    22    22    23    1
    23    23    24    1
    24    20    25   ar
    25    25    26   ar
    26    26    27   ar
    27    27    28   ar
    28    28    29   ar
    29    29    30   ar
    30    10     2   ar
    31    16    11    1
    32    26    18   ar
    33    10     5   ar
    34    30    25   ar
    35     1    31    1
    36     1    32    1
    37     1    33    1
    38     3    34    1
    39     6    35    1
    40     7    36    1
    41     8    37    1
    42     9    38    1
    43    15    39    1
    44    19    40    1
    45    21    41    1
    46    21    42    1
    47    22    43    1
    48    22    44    1
    49    23    45    1
    50    23    46    1
    51    24    47    1
    52    24    48    1
    53    27    49    1
    54    28    50    1
    55    29    51    1
    56    30    52    1
