@<TRIPOS>MOLECULE
*****
 56 60 0 0 0
SMALL
GASTEIGER

@<TRIPOS>ATOM
      1 O          -2.6896   -2.6780    2.7667 O.2     1  UNL1       -0.2705
      2 C          -2.7644   -1.8925    1.7857 C.2     1  UNL1        0.2411
      3 C          -4.1459   -1.6481    1.3158 C.2     1  UNL1        0.0011
      4 C          -4.3695   -0.8627    0.3153 C.2     1  UNL1       -0.0469
      5 C          -5.6601   -0.5281   -0.2699 C.ar    1  UNL1        0.0146
      6 CA         -6.8634   -1.1388   -0.2763 C.ar    1  UNL1        0.1325
      7 C          -7.2228   -2.4791    0.1289 C.2     1  UNL1        0.3539
      8 O          -6.4254   -3.3238    0.5667 O.2     1  UNL1       -0.2435
      9 OXT        -8.5729   -2.9180    0.0426 O.3     1  UNL1       -0.4761
     10 N          -7.8156   -0.3010   -0.8327 N.ar    1  UNL1       -0.3486
     11 C          -7.2355    0.8505   -1.1943 C.ar    1  UNL1        0.0476
     12 C          -7.7457    1.9918   -1.7870 C.ar    1  UNL1       -0.0378
     13 C          -6.8750    3.0580   -2.0505 C.ar    1  UNL1       -0.0598
     14 C          -5.5453    2.9554   -1.7208 C.ar    1  UNL1       -0.0611
     15 C          -5.0862    1.7836   -1.1262 C.ar    1  UNL1       -0.0520
     16 C          -5.9152    0.7358   -0.8615 C.ar    1  UNL1        0.0076
     17 N          -1.6187   -1.3317    1.2304 N.am    1  UNL1       -0.2820
     18 C          -0.2880   -1.5546    1.6674 C.ar    1  UNL1        0.0342
     19 C           0.0401   -2.3673    2.7127 C.ar    1  UNL1       -0.0404
     20 C           1.3784   -2.5396    3.0879 C.ar    1  UNL1       -0.0595
     21 C           2.3527   -1.8705    2.3779 C.ar    1  UNL1       -0.0545
     22 C           2.0242   -1.0500    1.3229 C.ar    1  UNL1       -0.0232
     23 C           3.0365   -0.3232    0.5461 C.2     1  UNL1       -0.0525
     24 C           4.3212   -0.3569    0.7434 C.2     1  UNL1       -0.0357
     25 C           5.3239    0.3688   -0.0333 C.ar    1  UNL1        0.0646
     26 C           5.0207    1.1821   -1.0763 C.ar    1  UNL1       -0.0357
     27 C           5.9740    1.8780   -1.8220 C.ar    1  UNL1       -0.0506
     28 C           7.2924    1.7105   -1.4550 C.ar    1  UNL1        0.0005
     29 C           8.3206    2.3472   -2.1185 C.ar    1  UNL1       -0.0512
     30 C           9.6240    2.1564   -1.7245 C.ar    1  UNL1       -0.0427
     31 C           9.9341    1.3309   -0.6655 C.ar    1  UNL1        0.0430
     32 CL         11.6237    1.1181   -0.1975 Cl      1  UNL1       -0.0835
     33 C           8.9271    0.6834    0.0139 C.ar    1  UNL1       -0.0174
     34 C           7.6109    0.8881   -0.3989 C.ar    1  UNL1        0.0730
     35 N           6.6297    0.2411    0.2829 N.ar    1  UNL1       -0.2472
     36 C           0.7099   -0.8884    0.9638 C.ar    1  UNL1       -0.0333
     37 H          -4.9713   -2.0780    1.8511 H       1  UNL1        0.0670
     38 H          -3.4982   -0.3676   -0.2043 H       1  UNL1        0.0626
     39 HXT        -8.8436   -3.7073    0.6287 H       1  UNL1        0.2955
     40 H          -8.8213   -0.5087   -0.9597 H       1  UNL1        0.1661
     41 H          -8.7781    2.0993   -2.0547 H       1  UNL1        0.0638
     42 H          -7.2603    3.9707   -2.5195 H       1  UNL1        0.0618
     43 H          -4.8864    3.7740   -1.9252 H       1  UNL1        0.0618
     44 H          -4.0253    1.7337   -0.8766 H       1  UNL1        0.0624
     45 H          -1.7812   -0.6764    0.4003 H       1  UNL1        0.1551
     46 H          -0.6749   -2.9118    3.2999 H       1  UNL1        0.0636
     47 H           1.6827   -3.1637    3.8971 H       1  UNL1        0.0618
     48 H           3.4116   -1.9934    2.6582 H       1  UNL1        0.0623
     49 H           2.6817    0.2973   -0.2647 H       1  UNL1        0.0624
     50 H           4.6900   -0.9866    1.5671 H       1  UNL1        0.0639
     51 H           3.9892    1.3161   -1.3670 H       1  UNL1        0.0639
     52 H           5.7385    2.5166   -2.6407 H       1  UNL1        0.0625
     53 H           8.0395    2.9957   -2.9549 H       1  UNL1        0.0625
     54 H          10.4274    2.6735   -2.2670 H       1  UNL1        0.0632
     55 H           9.1432    0.0204    0.8603 H       1  UNL1        0.0653
     56 H           0.4318   -0.2311    0.1168 H       1  UNL1        0.0642
@<TRIPOS>BOND
     1     1     2    2
     2     2     3    1
     3     3     4    2
     4     4     5    1
     5     5     6   ar
     6     6     7    1
     7     7     8    2
     8     7     9    1
     9     6    10   ar
    10    10    11   ar
    11    11    12   ar
    12    12    13   ar
    13    13    14   ar
    14    14    15   ar
    15    15    16   ar
    16     2    17   am
    17    17    18    1
    18    18    19   ar
    19    19    20   ar
    20    20    21   ar
    21    21    22   ar
    22    22    23    1
    23    23    24    2
    24    24    25    1
    25    25    26   ar
    26    26    27   ar
    27    27    28   ar
    28    28    29   ar
    29    29    30   ar
    30    30    31   ar
    31    31    32    1
    32    31    33   ar
    33    33    34   ar
    34    34    35   ar
    35    22    36   ar
    36    16     5   ar
    37    36    18   ar
    38    16    11   ar
    39    35    25   ar
    40    34    28   ar
    41     3    37    1
    42     4    38    1
    43     9    39    1
    44    10    40    1
    45    12    41    1
    46    13    42    1
    47    14    43    1
    48    15    44    1
    49    17    45    1
    50    19    46    1
    51    20    47    1
    52    21    48    1
    53    23    49    1
    54    24    50    1
    55    26    51    1
    56    27    52    1
    57    29    53    1
    58    30    54    1
    59    33    55    1
    60    36    56    1
