
     RDKit          3D

 56 60  0  0  0  0  0  0  0  0999 V2000
   -2.6896   -2.6780    2.7667 O   0  0  0  0  0  0  0  0  0  0  0  0
   -2.7644   -1.8925    1.7857 C   0  0  0  0  0  0  0  0  0  0  0  0
   -4.1459   -1.6481    1.3158 C   0  0  0  0  0  0  0  0  0  0  0  0
   -4.3695   -0.8627    0.3153 C   0  0  0  0  0  0  0  0  0  0  0  0
   -5.6601   -0.5281   -0.2699 C   0  0  0  0  0  0  0  0  0  0  0  0
   -6.8634   -1.1388   -0.2763 C   0  0  0  0  0  0  0  0  0  0  0  0
   -7.2228   -2.4791    0.1289 C   0  0  0  0  0  0  0  0  0  0  0  0
   -6.4254   -3.3238    0.5667 O   0  0  0  0  0  0  0  0  0  0  0  0
   -8.5729   -2.9180    0.0426 O   0  0  0  0  0  0  0  0  0  0  0  0
   -7.8156   -0.3010   -0.8327 N   0  0  0  0  0  0  0  0  0  0  0  0
   -7.2355    0.8505   -1.1943 C   0  0  0  0  0  0  0  0  0  0  0  0
   -7.7457    1.9918   -1.7870 C   0  0  0  0  0  0  0  0  0  0  0  0
   -6.8750    3.0580   -2.0505 C   0  0  0  0  0  0  0  0  0  0  0  0
   -5.5453    2.9554   -1.7208 C   0  0  0  0  0  0  0  0  0  0  0  0
   -5.0862    1.7836   -1.1262 C   0  0  0  0  0  0  0  0  0  0  0  0
   -5.9152    0.7358   -0.8615 C   0  0  0  0  0  0  0  0  0  0  0  0
   -1.6187   -1.3317    1.2304 N   0  0  0  0  0  0  0  0  0  0  0  0
   -0.2880   -1.5546    1.6674 C   0  0  0  0  0  0  0  0  0  0  0  0
    0.0401   -2.3673    2.7127 C   0  0  0  0  0  0  0  0  0  0  0  0
    1.3784   -2.5396    3.0879 C   0  0  0  0  0  0  0  0  0  0  0  0
    2.3527   -1.8705    2.3779 C   0  0  0  0  0  0  0  0  0  0  0  0
    2.0242   -1.0500    1.3229 C   0  0  0  0  0  0  0  0  0  0  0  0
    3.0365   -0.3232    0.5461 C   0  0  0  0  0  0  0  0  0  0  0  0
    4.3212   -0.3569    0.7434 C   0  0  0  0  0  0  0  0  0  0  0  0
    5.3239    0.3688   -0.0333 C   0  0  0  0  0  0  0  0  0  0  0  0
    5.0207    1.1821   -1.0763 C   0  0  0  0  0  0  0  0  0  0  0  0
    5.9740    1.8780   -1.8220 C   0  0  0  0  0  0  0  0  0  0  0  0
    7.2924    1.7105   -1.4550 C   0  0  0  0  0  0  0  0  0  0  0  0
    8.3206    2.3472   -2.1185 C   0  0  0  0  0  0  0  0  0  0  0  0
    9.6240    2.1564   -1.7245 C   0  0  0  0  0  0  0  0  0  0  0  0
    9.9341    1.3309   -0.6655 C   0  0  0  0  0  0  0  0  0  0  0  0
   11.6237    1.1181   -0.1975 Cl  0  0  0  0  0  0  0  0  0  0  0  0
    8.9271    0.6834    0.0139 C   0  0  0  0  0  0  0  0  0  0  0  0
    7.6109    0.8881   -0.3989 C   0  0  0  0  0  0  0  0  0  0  0  0
    6.6297    0.2411    0.2829 N   0  0  0  0  0  0  0  0  0  0  0  0
    0.7099   -0.8884    0.9638 C   0  0  0  0  0  0  0  0  0  0  0  0
   -4.9713   -2.0780    1.8511 H   0  0  0  0  0  0  0  0  0  0  0  0
   -3.4982   -0.3676   -0.2043 H   0  0  0  0  0  0  0  0  0  0  0  0
   -8.8436   -3.7073    0.6287 H   0  0  0  0  0  0  0  0  0  0  0  0
   -8.8213   -0.5087   -0.9597 H   0  0  0  0  0  0  0  0  0  0  0  0
   -8.7781    2.0993   -2.0547 H   0  0  0  0  0  0  0  0  0  0  0  0
   -7.2603    3.9707   -2.5195 H   0  0  0  0  0  0  0  0  0  0  0  0
   -4.8864    3.7740   -1.9252 H   0  0  0  0  0  0  0  0  0  0  0  0
   -4.0253    1.7337   -0.8766 H   0  0  0  0  0  0  0  0  0  0  0  0
   -1.7812   -0.6764    0.4003 H   0  0  0  0  0  0  0  0  0  0  0  0
   -0.6749   -2.9118    3.2999 H   0  0  0  0  0  0  0  0  0  0  0  0
    1.6827   -3.1637    3.8971 H   0  0  0  0  0  0  0  0  0  0  0  0
    3.4116   -1.9934    2.6582 H   0  0  0  0  0  0  0  0  0  0  0  0
    2.6817    0.2973   -0.2647 H   0  0  0  0  0  0  0  0  0  0  0  0
    4.6900   -0.9866    1.5671 H   0  0  0  0  0  0  0  0  0  0  0  0
    3.9892    1.3161   -1.3670 H   0  0  0  0  0  0  0  0  0  0  0  0
    5.7385    2.5166   -2.6407 H   0  0  0  0  0  0  0  0  0  0  0  0
    8.0395    2.9957   -2.9549 H   0  0  0  0  0  0  0  0  0  0  0  0
   10.4274    2.6735   -2.2670 H   0  0  0  0  0  0  0  0  0  0  0  0
    9.1432    0.0204    0.8603 H   0  0  0  0  0  0  0  0  0  0  0  0
    0.4318   -0.2311    0.1168 H   0  0  0  0  0  0  0  0  0  0  0  0
  1  2  2  0
  2  3  1  0
  3  4  2  0
  4  5  1  0
  5  6  2  0
  6  7  1  0
  7  8  2  0
  7  9  1  0
  6 10  1  0
 10 11  1  0
 11 12  2  0
 12 13  1  0
 13 14  2  0
 14 15  1  0
 15 16  2  0
  2 17  1  0
 17 18  1  0
 18 19  2  0
 19 20  1  0
 20 21  2  0
 21 22  1  0
 22 23  1  0
 23 24  2  0
 24 25  1  0
 25 26  2  0
 26 27  1  0
 27 28  2  0
 28 29  1  0
 29 30  2  0
 30 31  1  0
 31 32  1  0
 31 33  2  0
 33 34  1  0
 34 35  2  0
 22 36  2  0
 16  5  1  0
 36 18  1  0
 16 11  1  0
 35 25  1  0
 34 28  1  0
  3 37  1  0
  4 38  1  0
  9 39  1  0
 10 40  1  0
 12 41  1  0
 13 42  1  0
 14 43  1  0
 15 44  1  0
 17 45  1  0
 19 46  1  0
 20 47  1  0
 21 48  1  0
 23 49  1  0
 24 50  1  0
 26 51  1  0
 27 52  1  0
 29 53  1  0
 30 54  1  0
 33 55  1  0
 36 56  1  0
M  END
$$$$
