@<TRIPOS>MOLECULE
*****
 56 61 0 0 0
SMALL
GASTEIGER

@<TRIPOS>ATOM
      1 N          -0.9204    1.0732    3.3346 N.pl3   1  UNL1       -0.3134
      2 C          -0.9507    0.2916    2.1250 C.2     1  UNL1        0.2763
      3 N          -0.7123    0.8196    1.0035 N.2     1  UNL1       -0.2205
      4 C          -0.7136    0.1358   -0.2799 C.3     1  UNL1        0.1264
      5 C          -0.6664   -1.3889   -0.1236 C.3     1  UNL1        0.0155
      6 C          -1.2787   -1.9143    1.1175 C.3     1  UNL1        0.0953
      7 O          -1.2473   -1.0510    2.2215 O.2     1  UNL1       -0.4658
      8 C           0.5188    0.4725   -1.0255 C.ar    1  UNL1        0.0287
      9 C           1.7699    0.2530   -0.4073 C.ar    1  UNL1       -0.0312
     10 C           2.9540    0.5295   -1.0312 C.ar    1  UNL1        0.0343
     11 N           4.2455    0.3361   -0.4907 N.am    1  UNL1       -0.2802
     12 C           4.5578   -0.1982    0.7797 C.2     1  UNL1        0.2666
     13 O           3.6657   -0.5540    1.5479 O.2     1  UNL1       -0.2682
     14 C           5.9633   -0.3448    1.2208 C.ar    1  UNL1        0.1258
     15 C           6.2744   -0.8713    2.4581 C.ar    1  UNL1       -0.0285
     16 C           7.5864   -1.0141    2.8802 C.ar    1  UNL1       -0.0228
     17 C           8.6252   -0.6272    2.0609 C.ar    1  UNL1        0.1414
     18 F           9.9316   -0.7336    2.3994 F       1  UNL1       -0.2039
     19 C           8.2746   -0.0988    0.8167 C.ar    1  UNL1        0.0636
     20 N           6.9831    0.0269    0.4351 N.ar    1  UNL1       -0.2475
     21 C           2.8766    1.0390   -2.3071 C.ar    1  UNL1       -0.0370
     22 C           1.6957    1.2733   -2.9583 C.ar    1  UNL1       -0.0172
     23 C           0.5118    0.9728   -2.2740 C.ar    1  UNL1        0.1345
     24 O          -0.6714    1.2187   -2.9499 O.3     1  UNL1       -0.4524
     25 C          -1.8926    0.9362   -2.3074 C.ar    1  UNL1        0.1693
     26 C          -3.0860    1.1892   -2.9943 C.ar    1  UNL1        0.1663
     27 F          -2.9533    1.6951   -4.2531 F       1  UNL1       -0.2016
     28 C          -4.3228    0.9491   -2.4508 C.ar    1  UNL1       -0.0150
     29 C          -4.3527    0.4372   -1.1722 C.ar    1  UNL1       -0.0144
     30 C          -5.6348    0.1536   -0.5199 C.ar    1  UNL1       -0.0121
     31 C          -6.7179    0.9345   -0.8165 C.ar    1  UNL1       -0.0357
     32 C          -7.9211    0.6464   -0.1890 C.ar    1  UNL1        0.0312
     33 N          -7.9785   -0.3796    0.6793 N.ar    1  UNL1       -0.2276
     34 C          -6.9168   -1.1495    0.9738 C.ar    1  UNL1        0.2138
     35 F          -6.9802   -2.1765    1.8438 F       1  UNL1       -0.1839
     36 C          -5.6976   -0.8877    0.3629 C.ar    1  UNL1        0.0004
     37 C          -3.1916    0.1845   -0.4883 C.ar    1  UNL1       -0.0445
     38 C          -1.9309    0.4294   -1.0437 C.ar    1  UNL1        0.0304
     39 H          -1.7451    1.6893    3.5475 H       1  UNL1        0.1466
     40 H          -0.1001    1.0190    3.9684 H       1  UNL1        0.1466
     41 H           0.3925   -1.7636   -0.2523 H       1  UNL1        0.0328
     42 H          -1.2217   -1.8304   -0.9928 H       1  UNL1        0.0328
     43 H          -0.6597   -2.8151    1.4343 H       1  UNL1        0.0698
     44 H          -2.3057   -2.3598    0.9706 H       1  UNL1        0.0698
     45 H           1.7454   -0.1451    0.5881 H       1  UNL1        0.0641
     46 H           5.1043    0.6101   -1.0711 H       1  UNL1        0.1552
     47 H           5.4569   -1.1759    3.1027 H       1  UNL1        0.0641
     48 H           7.8475   -1.4244    3.8452 H       1  UNL1        0.0647
     49 H           9.0985    0.2007    0.1837 H       1  UNL1        0.0859
     50 H           3.7782    1.2754   -2.8480 H       1  UNL1        0.0637
     51 H           1.6668    1.6761   -3.9655 H       1  UNL1        0.0655
     52 H          -5.1982    1.1603   -3.0195 H       1  UNL1        0.0653
     53 H          -6.7166    1.7638   -1.5036 H       1  UNL1        0.0639
     54 H          -8.8199    1.2280   -0.3800 H       1  UNL1        0.0831
     55 H          -4.8192   -1.5030    0.5882 H       1  UNL1        0.0668
     56 H          -3.2000   -0.2127    0.5199 H       1  UNL1        0.0628
@<TRIPOS>BOND
     1     1     2    1
     2     2     3    2
     3     3     4    1
     4     4     5    1
     5     5     6    1
     6     6     7    1
     7     4     8    1
     8     8     9   ar
     9     9    10   ar
    10    10    11    1
    11    11    12   am
    12    12    13    2
    13    12    14    1
    14    14    15   ar
    15    15    16   ar
    16    16    17   ar
    17    17    18    1
    18    17    19   ar
    19    19    20   ar
    20    10    21   ar
    21    21    22   ar
    22    22    23   ar
    23    23    24    1
    24    24    25    1
    25    25    26   ar
    26    26    27    1
    27    26    28   ar
    28    28    29   ar
    29    29    30    1
    30    30    31   ar
    31    31    32   ar
    32    32    33   ar
    33    33    34   ar
    34    34    35    1
    35    34    36   ar
    36    29    37   ar
    37    37    38   ar
    38     7     2    1
    39    23     8   ar
    40    38    25   ar
    41    38     4    1
    42    20    14   ar
    43    36    30   ar
    44     1    39    1
    45     1    40    1
    46     5    41    1
    47     5    42    1
    48     6    43    1
    49     6    44    1
    50     9    45    1
    51    11    46    1
    52    15    47    1
    53    16    48    1
    54    19    49    1
    55    21    50    1
    56    22    51    1
    57    28    52    1
    58    31    53    1
    59    32    54    1
    60    36    55    1
    61    37    56    1
