
     RDKit          3D

 56 59  0  0  0  0  0  0  0  0999 V2000
    9.4761    0.4097    1.9949 C   0  0  0  0  0  0  0  0  0  0  0  0
    8.7832    1.0359    0.9375 O   0  0  0  0  0  0  0  0  0  0  0  0
    7.4889    0.6245    0.6201 C   0  0  0  0  0  0  0  0  0  0  0  0
    6.8278    1.2460   -0.4137 C   0  0  0  0  0  0  0  0  0  0  0  0
    5.5631    0.8265   -0.7060 N   0  0  0  0  0  0  0  0  0  0  0  0
    4.9773   -0.1611   -0.0099 C   0  0  0  0  0  0  0  0  0  0  0  0
    3.6270   -0.5544   -0.3820 C   0  0  0  0  0  0  0  0  0  0  0  0
    3.0828   -1.4807    0.2752 O   0  0  0  0  0  0  0  0  0  0  0  0
    2.8934    0.0360   -1.4295 N   0  0  0  0  0  0  0  0  0  0  0  0
    1.5750   -0.3536   -1.7879 C   0  0  0  0  0  0  0  0  0  0  0  0
    1.3607   -1.3469   -2.7199 C   0  0  0  0  0  0  0  0  0  0  0  0
    0.0918   -1.7348   -3.0771 C   0  0  0  0  0  0  0  0  0  0  0  0
   -0.0496   -2.7164   -3.9984 F   0  0  0  0  0  0  0  0  0  0  0  0
   -1.0175   -1.1470   -2.5184 C   0  0  0  0  0  0  0  0  0  0  0  0
   -2.2753   -1.5225   -2.8637 F   0  0  0  0  0  0  0  0  0  0  0  0
   -0.8404   -0.1528   -1.5855 C   0  0  0  0  0  0  0  0  0  0  0  0
   -2.0581    0.5000   -0.9656 C   0  0  2  0  0  0  0  0  0  0  0  0
   -1.5161    1.6707   -0.1333 C   0  0  0  0  0  0  0  0  0  0  0  0
   -2.7499   -0.4338   -0.0515 C   0  0  0  0  0  0  0  0  0  0  0  0
   -4.1743   -0.2277    0.2343 C   0  0  1  0  0  0  0  0  0  0  0  0
   -4.5676   -0.4993    1.6339 C   0  0  0  0  0  0  0  0  0  0  0  0
   -4.6341    0.3299    2.7178 C   0  0  0  0  0  0  0  0  0  0  0  0
   -4.3104    1.7621    2.7241 C   0  0  0  0  0  0  0  0  0  0  0  0
   -5.0485   -0.4440    3.7348 N   0  0  0  0  0  0  0  0  0  0  0  0
   -5.2436   -1.6659    3.3861 O   0  0  0  0  0  0  0  0  0  0  0  0
   -4.9569   -1.7344    2.0988 C   0  0  0  0  0  0  0  0  0  0  0  0
   -5.0642   -3.0172    1.3167 C   0  0  0  0  0  0  0  0  0  0  0  0
   -4.6887    1.4276   -0.2944 S   0  0  0  0  0  0  0  0  0  0  0  0
   -3.9785    1.5529   -1.9611 C   0  0  0  0  0  0  0  0  0  0  0  0
   -4.6800    2.1177   -3.0352 N   0  0  0  0  0  0  0  0  0  0  0  0
   -2.7839    1.0750   -2.0457 N   0  0  0  0  0  0  0  0  0  0  0  0
    0.4321    0.2223   -1.2403 C   0  0  0  0  0  0  0  0  0  0  0  0
    5.6598   -0.7564    1.0092 C   0  0  0  0  0  0  0  0  0  0  0  0
    6.9062   -0.3742    1.3300 N   0  0  0  0  0  0  0  0  0  0  0  0
   10.2284   -0.2934    1.6065 H   0  0  0  0  0  0  0  0  0  0  0  0
    9.9918    1.1245    2.6669 H   0  0  0  0  0  0  0  0  0  0  0  0
    8.7428   -0.1734    2.6153 H   0  0  0  0  0  0  0  0  0  0  0  0
    7.2574    2.0372   -0.9946 H   0  0  0  0  0  0  0  0  0  0  0  0
    3.3439    0.8033   -1.9733 H   0  0  0  0  0  0  0  0  0  0  0  0
    2.2475   -1.8063   -3.1564 H   0  0  0  0  0  0  0  0  0  0  0  0
   -0.9085    2.3600   -0.7526 H   0  0  0  0  0  0  0  0  0  0  0  0
   -0.9804    1.2873    0.7635 H   0  0  0  0  0  0  0  0  0  0  0  0
   -2.3900    2.2171    0.2598 H   0  0  0  0  0  0  0  0  0  0  0  0
   -2.2129   -0.3220    0.9553 H   0  0  0  0  0  0  0  0  0  0  0  0
   -2.5282   -1.4806   -0.4286 H   0  0  0  0  0  0  0  0  0  0  0  0
   -4.7700   -0.9557   -0.4020 H   0  0  0  0  0  0  0  0  0  0  0  0
   -4.5339    2.1496    3.7626 H   0  0  0  0  0  0  0  0  0  0  0  0
   -3.2343    1.9823    2.5689 H   0  0  0  0  0  0  0  0  0  0  0  0
   -4.9777    2.3508    2.0611 H   0  0  0  0  0  0  0  0  0  0  0  0
   -5.3453   -2.7880    0.2758 H   0  0  0  0  0  0  0  0  0  0  0  0
   -5.8061   -3.6853    1.7982 H   0  0  0  0  0  0  0  0  0  0  0  0
   -4.0859   -3.5210    1.3228 H   0  0  0  0  0  0  0  0  0  0  0  0
   -5.2896    2.9607   -2.8172 H   0  0  0  0  0  0  0  0  0  0  0  0
   -4.6458    1.7757   -4.0115 H   0  0  0  0  0  0  0  0  0  0  0  0
    0.5898    1.0178   -0.4933 H   0  0  0  0  0  0  0  0  0  0  0  0
    5.1991   -1.5542    1.5786 H   0  0  0  0  0  0  0  0  0  0  0  0
  1  2  1  0
  2  3  1  0
  3  4  2  0
  4  5  1  0
  5  6  2  0
  6  7  1  0
  7  8  2  0
  7  9  1  0
  9 10  1  0
 10 11  2  0
 11 12  1  0
 12 13  1  0
 12 14  2  0
 14 15  1  0
 14 16  1  0
 16 17  1  0
 17 18  1  1
 17 19  1  0
 19 20  1  0
 20 21  1  0
 21 22  1  0
 22 23  1  0
 22 24  2  0
 24 25  1  0
 25 26  1  0
 26 27  1  0
 20 28  1  0
 28 29  1  0
 29 30  1  0
 29 31  2  0
 16 32  2  0
  6 33  1  0
 33 34  2  0
 34  3  1  0
 32 10  1  0
 31 17  1  0
 26 21  2  0
  1 35  1  0
  1 36  1  0
  1 37  1  0
  4 38  1  0
  9 39  1  0
 11 40  1  0
 18 41  1  0
 18 42  1  0
 18 43  1  0
 19 44  1  0
 19 45  1  0
 20 46  1  6
 23 47  1  0
 23 48  1  0
 23 49  1  0
 27 50  1  0
 27 51  1  0
 27 52  1  0
 30 53  1  0
 30 54  1  0
 32 55  1  0
 33 56  1  0
M  END
$$$$
