@<TRIPOS>MOLECULE
*****
 56 59 0 0 0
SMALL
GASTEIGER

@<TRIPOS>ATOM
      1 C           9.4761    0.4097    1.9949 C.3     1  UNL1        0.0805
      2 O           8.7832    1.0359    0.9375 O.3     1  UNL1       -0.4786
      3 C           7.4889    0.6245    0.6201 C.ar    1  UNL1        0.2332
      4 C           6.8278    1.2460   -0.4137 C.ar    1  UNL1        0.0899
      5 N           5.5631    0.8265   -0.7060 N.ar    1  UNL1       -0.2435
      6 C           4.9773   -0.1611   -0.0099 C.ar    1  UNL1        0.1439
      7 C           3.6270   -0.5544   -0.3820 C.2     1  UNL1        0.2681
      8 O           3.0828   -1.4807    0.2752 O.2     1  UNL1       -0.2681
      9 N           2.8934    0.0360   -1.4295 N.am    1  UNL1       -0.2801
     10 C           1.5750   -0.3536   -1.7879 C.ar    1  UNL1        0.0369
     11 C           1.3607   -1.3469   -2.7199 C.ar    1  UNL1       -0.0023
     12 C           0.0918   -1.7348   -3.0771 C.ar    1  UNL1        0.1605
     13 F          -0.0496   -2.7164   -3.9984 F       1  UNL1       -0.2024
     14 C          -1.0175   -1.1470   -2.5184 C.ar    1  UNL1        0.1639
     15 F          -2.2753   -1.5225   -2.8637 F       1  UNL1       -0.2021
     16 C          -0.8404   -0.1528   -1.5855 C.ar    1  UNL1        0.0195
     17 C          -2.0581    0.5000   -0.9656 C.3     1  UNL1        0.0904
     18 C          -1.5161    1.6707   -0.1333 C.3     1  UNL1       -0.0354
     19 C          -2.7499   -0.4338   -0.0515 C.3     1  UNL1       -0.0071
     20 C          -4.1743   -0.2277    0.2343 C.3     1  UNL1        0.0449
     21 C          -4.5676   -0.4993    1.6339 C.ar    1  UNL1        0.0304
     22 C          -4.6341    0.3299    2.7178 C.ar    1  UNL1        0.0850
     23 C          -4.3104    1.7621    2.7241 C.3     1  UNL1       -0.0188
     24 N          -5.0485   -0.4440    3.7348 N.ar    1  UNL1       -0.0830
     25 O          -5.2436   -1.6659    3.3861 O.2     1  UNL1       -0.3594
     26 C          -4.9569   -1.7344    2.0988 C.ar    1  UNL1        0.1387
     27 C          -5.0642   -3.0172    1.3167 C.3     1  UNL1       -0.0034
     28 S          -4.6887    1.4276   -0.2944 S.3     1  UNL1       -0.0828
     29 C          -3.9785    1.5529   -1.9611 C.2     1  UNL1        0.1481
     30 N          -4.6800    2.1177   -3.0352 N.pl3   1  UNL1       -0.3380
     31 N          -2.7839    1.0750   -2.0457 N.2     1  UNL1       -0.2524
     32 C           0.4321    0.2223   -1.2403 C.ar    1  UNL1       -0.0321
     33 C           5.6598   -0.7564    1.0092 C.ar    1  UNL1        0.0619
     34 N           6.9062   -0.3742    1.3300 N.ar    1  UNL1       -0.2178
     35 H          10.2284   -0.2934    1.6065 H       1  UNL1        0.0660
     36 H           9.9918    1.1245    2.6669 H       1  UNL1        0.0660
     37 H           8.7428   -0.1734    2.6153 H       1  UNL1        0.0660
     38 H           7.2574    2.0372   -0.9946 H       1  UNL1        0.0884
     39 H           3.3439    0.8033   -1.9733 H       1  UNL1        0.1552
     40 H           2.2475   -1.8063   -3.1564 H       1  UNL1        0.0666
     41 H          -0.9085    2.3600   -0.7526 H       1  UNL1        0.0256
     42 H          -0.9804    1.2873    0.7635 H       1  UNL1        0.0256
     43 H          -2.3900    2.2171    0.2598 H       1  UNL1        0.0256
     44 H          -2.2129   -0.3220    0.9553 H       1  UNL1        0.0306
     45 H          -2.5282   -1.4806   -0.4286 H       1  UNL1        0.0306
     46 H          -4.7700   -0.9557   -0.4020 H       1  UNL1        0.0468
     47 H          -4.5339    2.1496    3.7626 H       1  UNL1        0.0294
     48 H          -3.2343    1.9823    2.5689 H       1  UNL1        0.0294
     49 H          -4.9777    2.3508    2.0611 H       1  UNL1        0.0294
     50 H          -5.3453   -2.7880    0.2758 H       1  UNL1        0.0309
     51 H          -5.8061   -3.6853    1.7982 H       1  UNL1        0.0309
     52 H          -4.0859   -3.5210    1.3228 H       1  UNL1        0.0309
     53 H          -5.2896    2.9607   -2.8172 H       1  UNL1        0.1442
     54 H          -4.6458    1.7757   -4.0115 H       1  UNL1        0.1442
     55 H           0.5898    1.0178   -0.4933 H       1  UNL1        0.0640
     56 H           5.1991   -1.5542    1.5786 H       1  UNL1        0.0854
@<TRIPOS>BOND
     1     1     2    1
     2     2     3    1
     3     3     4   ar
     4     4     5   ar
     5     5     6   ar
     6     6     7    1
     7     7     8    2
     8     7     9   am
     9     9    10    1
    10    10    11   ar
    11    11    12   ar
    12    12    13    1
    13    12    14   ar
    14    14    15    1
    15    14    16   ar
    16    16    17    1
    17    17    18    1
    18    17    19    1
    19    19    20    1
    20    20    21    1
    21    21    22   ar
    22    22    23    1
    23    22    24   ar
    24    24    25   ar
    25    25    26   ar
    26    26    27    1
    27    20    28    1
    28    28    29    1
    29    29    30    1
    30    29    31    2
    31    16    32   ar
    32     6    33   ar
    33    33    34   ar
    34    34     3   ar
    35    32    10   ar
    36    31    17    1
    37    26    21   ar
    38     1    35    1
    39     1    36    1
    40     1    37    1
    41     4    38    1
    42     9    39    1
    43    11    40    1
    44    18    41    1
    45    18    42    1
    46    18    43    1
    47    19    44    1
    48    19    45    1
    49    20    46    1
    50    23    47    1
    51    23    48    1
    52    23    49    1
    53    27    50    1
    54    27    51    1
    55    27    52    1
    56    30    53    1
    57    30    54    1
    58    32    55    1
    59    33    56    1
