@<TRIPOS>MOLECULE
*****
 82 86 0 0 0
SMALL
GASTEIGER

@<TRIPOS>ATOM
      1 C           0.3824   -5.6823   -0.2603 C.3     1  UNL1        0.0789
      2 O          -0.3010   -4.5034   -0.5963 O.3     1  UNL1       -0.4932
      3 C           0.1432   -3.2249   -0.3644 C.ar    1  UNL1        0.1429
      4 C           1.3529   -2.9564    0.2474 C.ar    1  UNL1        0.0029
      5 C           1.7570   -1.6431    0.4578 C.ar    1  UNL1        0.0333
      6 N           3.0191   -1.4097    1.0766 N.pl3   1  UNL1       -0.3297
      7 C           4.1352   -2.3631    0.9741 C.3     1  UNL1        0.0136
      8 C           5.2380   -1.5976    0.2597 C.3     1  UNL1       -0.0215
      9 C           5.6680   -0.3902    1.0554 C.3     1  UNL1        0.0133
     10 N           6.6242    0.3581    0.3595 N.3     1  UNL1       -0.2969
     11 C           6.2909    0.9851   -0.8323 C.3     1  UNL1        0.0120
     12 C           7.3605    1.1564   -1.8580 C.3     1  UNL1        0.0114
     13 N           8.6117    1.5058   -1.2278 N.3     1  UNL1       -0.3029
     14 C           8.5242    2.8299   -0.6410 C.3     1  UNL1       -0.0127
     15 C           9.0173    0.5137   -0.2478 C.3     1  UNL1        0.0114
     16 C           7.9615    0.3165    0.8121 C.3     1  UNL1        0.0120
     17 C           4.4843    0.5075    1.3721 C.3     1  UNL1       -0.0215
     18 C           3.3046   -0.2327    1.8803 C.3     1  UNL1        0.0136
     19 C           0.9598   -0.5949    0.0611 C.ar    1  UNL1       -0.0387
     20 C          -0.2649   -0.8505   -0.5580 C.ar    1  UNL1       -0.0351
     21 C          -0.6324   -2.1618   -0.7496 C.ar    1  UNL1        0.0759
     22 N          -1.8870   -2.4142   -1.3631 N.pl3   1  UNL1       -0.2806
     23 C          -2.7363   -1.3808   -1.8359 C.ar    1  UNL1        0.2213
     24 N          -2.7101   -1.0856   -3.1529 N.ar    1  UNL1       -0.2211
     25 C          -3.4867   -0.1062   -3.6724 C.ar    1  UNL1        0.0528
     26 C          -4.3254    0.6120   -2.8545 C.ar    1  UNL1        0.0991
     27 CL         -5.3217    1.8692   -3.5402 Cl      1  UNL1       -0.0784
     28 C          -4.3606    0.3120   -1.4767 C.ar    1  UNL1        0.1465
     29 N          -5.2223    1.0595   -0.6641 N.pl3   1  UNL1       -0.2967
     30 C          -5.3771    0.9818    0.7424 C.ar    1  UNL1        0.0575
     31 C          -4.6312    0.1533    1.5490 C.ar    1  UNL1       -0.0386
     32 C          -4.7729    0.1097    2.9430 C.ar    1  UNL1       -0.0599
     33 C          -5.6866    0.9146    3.5726 C.ar    1  UNL1       -0.0598
     34 C          -6.4333    1.7413    2.7753 C.ar    1  UNL1       -0.0350
     35 C          -6.3134    1.8036    1.3899 C.ar    1  UNL1        0.1095
     36 S          -7.3529    2.8316    0.4686 S.O2    1  UNL1        0.0010
     37 O          -6.5815    3.8098   -0.3963 O.2     1  UNL1       -0.1690
     38 O          -8.1512    3.6889    1.4240 O.2     1  UNL1       -0.1690
     39 C          -8.4916    1.8975   -0.4796 C.3     1  UNL1        0.0764
     40 C          -9.3919    1.0376    0.4110 C.3     1  UNL1       -0.0427
     41 C          -9.4606    2.8082   -1.2466 C.3     1  UNL1       -0.0427
     42 N          -3.5605   -0.6680   -1.0598 N.ar    1  UNL1       -0.1977
     43 H           1.1708   -5.8588   -1.0473 H       1  UNL1        0.0660
     44 H           0.8396   -5.6662    0.7481 H       1  UNL1        0.0660
     45 H          -0.3057   -6.5500   -0.3060 H       1  UNL1        0.0660
     46 H           1.9835   -3.7701    0.5713 H       1  UNL1        0.0673
     47 H           3.8290   -3.1608    0.2862 H       1  UNL1        0.0464
     48 H           4.4042   -2.6748    1.9849 H       1  UNL1        0.0464
     49 H           4.8663   -1.3877   -0.7404 H       1  UNL1        0.0295
     50 H           6.1052   -2.2839    0.1844 H       1  UNL1        0.0295
     51 H           6.0946   -0.7506    2.0080 H       1  UNL1        0.0463
     52 H           5.8324    1.9955   -0.5890 H       1  UNL1        0.0439
     53 H           5.4323    0.4506   -1.3325 H       1  UNL1        0.0439
     54 H           7.0738    2.0404   -2.4812 H       1  UNL1        0.0439
     55 H           7.4815    0.2520   -2.4907 H       1  UNL1        0.0439
     56 H           9.1745    3.5353   -1.1881 H       1  UNL1        0.0391
     57 H           8.8693    2.7641    0.4235 H       1  UNL1        0.0391
     58 H           7.4805    3.2249   -0.6471 H       1  UNL1        0.0391
     59 H           9.2726   -0.4195   -0.7965 H       1  UNL1        0.0439
     60 H           9.9587    0.8802    0.2107 H       1  UNL1        0.0439
     61 H           8.1028    1.1466    1.5585 H       1  UNL1        0.0439
     62 H           8.1874   -0.6104    1.3582 H       1  UNL1        0.0439
     63 H           4.8342    1.1852    2.2072 H       1  UNL1        0.0295
     64 H           4.2900    1.1834    0.5184 H       1  UNL1        0.0295
     65 H           3.4310   -0.4963    2.9547 H       1  UNL1        0.0464
     66 H           2.4190    0.4290    1.8419 H       1  UNL1        0.0464
     67 H           1.2585    0.4533    0.2133 H       1  UNL1        0.0637
     68 H          -0.8962   -0.0163   -0.8724 H       1  UNL1        0.0638
     69 H          -2.2305   -3.3976   -1.4872 H       1  UNL1        0.1551
     70 H          -3.4000    0.0605   -4.7357 H       1  UNL1        0.0847
     71 H          -5.8175    1.7859   -1.1554 H       1  UNL1        0.1537
     72 H          -3.9006   -0.4946    1.1017 H       1  UNL1        0.0637
     73 H          -4.1705   -0.5542    3.5549 H       1  UNL1        0.0618
     74 H          -5.8209    0.9057    4.6485 H       1  UNL1        0.0618
     75 H          -7.1595    2.3778    3.2968 H       1  UNL1        0.0637
     76 H          -8.0102    1.2224   -1.1774 H       1  UNL1        0.0534
     77 H          -8.9842    0.0335    0.5549 H       1  UNL1        0.0248
     78 H         -10.3904    0.9041   -0.0850 H       1  UNL1        0.0248
     79 H          -9.5916    1.5893    1.3382 H       1  UNL1        0.0248
     80 H          -8.9925    3.8242   -1.3040 H       1  UNL1        0.0248
     81 H         -10.4198    2.9184   -0.7049 H       1  UNL1        0.0248
     82 H          -9.6832    2.3913   -2.2496 H       1  UNL1        0.0248
@<TRIPOS>BOND
     1     1     2    1
     2     2     3    1
     3     3     4   ar
     4     4     5   ar
     5     5     6    1
     6     6     7    1
     7     7     8    1
     8     8     9    1
     9     9    10    1
    10    10    11    1
    11    11    12    1
    12    12    13    1
    13    13    14    1
    14    13    15    1
    15    15    16    1
    16     9    17    1
    17    17    18    1
    18     5    19   ar
    19    19    20   ar
    20    20    21   ar
    21    21    22    1
    22    22    23    1
    23    23    24   ar
    24    24    25   ar
    25    25    26   ar
    26    26    27    1
    27    26    28   ar
    28    28    29    1
    29    29    30    1
    30    30    31   ar
    31    31    32   ar
    32    32    33   ar
    33    33    34   ar
    34    34    35   ar
    35    35    36    1
    36    36    37    2
    37    36    38    2
    38    36    39    1
    39    39    40    1
    40    39    41    1
    41    28    42   ar
    42    21     3   ar
    43    42    23   ar
    44    18     6    1
    45    35    30   ar
    46    16    10    1
    47     1    43    1
    48     1    44    1
    49     1    45    1
    50     4    46    1
    51     7    47    1
    52     7    48    1
    53     8    49    1
    54     8    50    1
    55     9    51    1
    56    11    52    1
    57    11    53    1
    58    12    54    1
    59    12    55    1
    60    14    56    1
    61    14    57    1
    62    14    58    1
    63    15    59    1
    64    15    60    1
    65    16    61    1
    66    16    62    1
    67    17    63    1
    68    17    64    1
    69    18    65    1
    70    18    66    1
    71    19    67    1
    72    20    68    1
    73    22    69    1
    74    25    70    1
    75    29    71    1
    76    31    72    1
    77    32    73    1
    78    33    74    1
    79    34    75    1
    80    39    76    1
    81    40    77    1
    82    40    78    1
    83    40    79    1
    84    41    80    1
    85    41    81    1
    86    41    82    1
