
     RDKit          3D

 34 37  0  0  0  0  0  0  0  0999 V2000
    2.9212    1.0827   -1.0204 C   0  0  0  0  0  0  0  0  0  0  0  0
    2.9339   -0.1191   -0.1583 C   0  0  0  0  0  0  0  0  0  0  0  0
    4.0946   -0.7721    0.1165 C   0  0  0  0  0  0  0  0  0  0  0  0
    5.2599   -0.3063   -0.4126 F   0  0  0  0  0  0  0  0  0  0  0  0
    4.0961   -1.8753    0.9082 C   0  0  0  0  0  0  0  0  0  0  0  0
    2.9540   -2.3393    1.4327 N   0  0  0  0  0  0  0  0  0  0  0  0
    1.7924   -1.7128    1.1776 C   0  0  0  0  0  0  0  0  0  0  0  0
    1.7348   -0.6194    0.4012 C   0  0  0  0  0  0  0  0  0  0  0  0
    0.5003    0.1142    0.1231 C   0  0  0  0  0  0  0  0  0  0  0  0
    0.4572    1.3012   -0.5526 N   0  0  0  0  0  0  0  0  0  0  0  0
   -0.7933    1.7604   -0.6720 C   0  0  0  0  0  0  0  0  0  0  0  0
   -1.3375    2.9036   -1.2505 C   0  0  0  0  0  0  0  0  0  0  0  0
   -2.6801    3.1682   -1.2318 C   0  0  0  0  0  0  0  0  0  0  0  0
   -3.4808    2.2391   -0.6053 C   0  0  0  0  0  0  0  0  0  0  0  0
   -4.8321    2.4514   -0.5548 F   0  0  0  0  0  0  0  0  0  0  0  0
   -2.9041    1.1197   -0.0448 C   0  0  0  0  0  0  0  0  0  0  0  0
   -1.5852    0.8585   -0.0644 N   0  0  0  0  0  0  0  0  0  0  0  0
   -0.8076   -0.1594    0.4265 C   0  0  0  0  0  0  0  0  0  0  0  0
   -1.3259   -1.3252    1.1195 C   0  0  0  0  0  0  0  0  0  0  0  0
   -1.5166   -2.6720    0.5670 C   0  0  0  0  0  0  0  0  0  0  0  0
   -2.6828   -1.8000    0.4848 C   0  0  0  0  0  0  0  0  0  0  0  0
    3.9751    1.2169   -1.3994 H   0  0  0  0  0  0  0  0  0  0  0  0
    2.3271    0.9489   -1.9530 H   0  0  0  0  0  0  0  0  0  0  0  0
    2.7086    2.0210   -0.4798 H   0  0  0  0  0  0  0  0  0  0  0  0
    5.0183   -2.3935    1.1257 H   0  0  0  0  0  0  0  0  0  0  0  0
    0.9276   -2.1202    1.6405 H   0  0  0  0  0  0  0  0  0  0  0  0
   -0.6752    3.5969   -1.7258 H   0  0  0  0  0  0  0  0  0  0  0  0
   -3.1524    4.0376   -1.6649 H   0  0  0  0  0  0  0  0  0  0  0  0
   -3.5972    0.4537    0.4448 H   0  0  0  0  0  0  0  0  0  0  0  0
   -1.3776   -1.2034    2.2331 H   0  0  0  0  0  0  0  0  0  0  0  0
   -1.5714   -3.4996    1.3169 H   0  0  0  0  0  0  0  0  0  0  0  0
   -0.9614   -3.0134   -0.3460 H   0  0  0  0  0  0  0  0  0  0  0  0
   -2.8957   -1.4755   -0.5613 H   0  0  0  0  0  0  0  0  0  0  0  0
   -3.5242   -1.8675    1.1797 H   0  0  0  0  0  0  0  0  0  0  0  0
  1  2  1  0
  2  3  2  0
  3  4  1  0
  3  5  1  0
  5  6  2  0
  6  7  1  0
  7  8  2  0
  8  9  1  0
  9 10  1  0
 10 11  2  0
 11 12  1  0
 12 13  2  0
 13 14  1  0
 14 15  1  0
 14 16  2  0
 16 17  1  0
 17 18  1  0
 18 19  1  0
 19 20  1  0
 20 21  1  0
  8  2  1  0
 18  9  2  0
 21 19  1  0
 17 11  1  0
  1 22  1  0
  1 23  1  0
  1 24  1  0
  5 25  1  0
  7 26  1  0
 12 27  1  0
 13 28  1  0
 16 29  1  0
 19 30  1  0
 20 31  1  0
 20 32  1  0
 21 33  1  0
 21 34  1  0
M  END
$$$$
