@<TRIPOS>MOLECULE
*****
 34 37 0 0 0
SMALL
GASTEIGER

@<TRIPOS>ATOM
      1 C           2.9212    1.0827   -1.0204 C.3     1  UNL1       -0.0363
      2 C           2.9339   -0.1191   -0.1583 C.ar    1  UNL1       -0.0031
      3 C           4.0946   -0.7721    0.1165 C.ar    1  UNL1        0.1449
      4 F           5.2599   -0.3063   -0.4126 F       1  UNL1       -0.2036
      5 C           4.0961   -1.8753    0.9082 C.ar    1  UNL1        0.0630
      6 N           2.9540   -2.3393    1.4327 N.ar    1  UNL1       -0.2597
      7 C           1.7924   -1.7128    1.1776 C.ar    1  UNL1        0.0372
      8 C           1.7348   -0.6194    0.4012 C.ar    1  UNL1        0.0258
      9 C           0.5003    0.1142    0.1231 C.ar    1  UNL1        0.0950
     10 N           0.4572    1.3012   -0.5526 N.ar    1  UNL1       -0.2275
     11 C          -0.7933    1.7604   -0.6720 C.ar    1  UNL1        0.1386
     12 C          -1.3375    2.9036   -1.2505 C.ar    1  UNL1       -0.0161
     13 C          -2.6801    3.1682   -1.2318 C.ar    1  UNL1       -0.0215
     14 C          -3.4808    2.2391   -0.6053 C.ar    1  UNL1        0.1399
     15 F          -4.8321    2.4514   -0.5548 F       1  UNL1       -0.2040
     16 C          -2.9041    1.1197   -0.0448 C.ar    1  UNL1        0.0467
     17 N          -1.5852    0.8585   -0.0644 N.ar    1  UNL1       -0.3000
     18 C          -0.8076   -0.1594    0.4265 C.ar    1  UNL1        0.0542
     19 C          -1.3259   -1.3252    1.1195 C.3     1  UNL1        0.0019
     20 C          -1.5166   -2.6720    0.5670 C.3     1  UNL1       -0.0442
     21 C          -2.6828   -1.8000    0.4848 C.3     1  UNL1       -0.0442
     22 H           3.9751    1.2169   -1.3994 H       1  UNL1        0.0279
     23 H           2.3271    0.9489   -1.9530 H       1  UNL1        0.0279
     24 H           2.7086    2.0210   -0.4798 H       1  UNL1        0.0279
     25 H           5.0183   -2.3935    1.1257 H       1  UNL1        0.0859
     26 H           0.9276   -2.1202    1.6405 H       1  UNL1        0.0836
     27 H          -0.6752    3.5969   -1.7258 H       1  UNL1        0.0655
     28 H          -3.1524    4.0376   -1.6649 H       1  UNL1        0.0648
     29 H          -3.5972    0.4537    0.4448 H       1  UNL1        0.0842
     30 H          -1.3776   -1.2034    2.2331 H       1  UNL1        0.0364
     31 H          -1.5714   -3.4996    1.3169 H       1  UNL1        0.0272
     32 H          -0.9614   -3.0134   -0.3460 H       1  UNL1        0.0272
     33 H          -2.8957   -1.4755   -0.5613 H       1  UNL1        0.0272
     34 H          -3.5242   -1.8675    1.1797 H       1  UNL1        0.0272
@<TRIPOS>BOND
     1     1     2    1
     2     2     3   ar
     3     3     4    1
     4     3     5   ar
     5     5     6   ar
     6     6     7   ar
     7     7     8   ar
     8     8     9    1
     9     9    10   ar
    10    10    11   ar
    11    11    12   ar
    12    12    13   ar
    13    13    14   ar
    14    14    15    1
    15    14    16   ar
    16    16    17   ar
    17    17    18   ar
    18    18    19    1
    19    19    20    1
    20    20    21    1
    21     8     2   ar
    22    18     9   ar
    23    21    19    1
    24    17    11   ar
    25     1    22    1
    26     1    23    1
    27     1    24    1
    28     5    25    1
    29     7    26    1
    30    12    27    1
    31    13    28    1
    32    16    29    1
    33    19    30    1
    34    20    31    1
    35    20    32    1
    36    21    33    1
    37    21    34    1
