
     RDKit          3D

 71 75  0  0  0  0  0  0  0  0999 V2000
   -2.0174    2.0657   -2.2166 O   0  0  0  0  0  0  0  0  0  0  0  0
   -1.5311    1.4675   -1.1986 C   0  0  0  0  0  0  0  0  0  0  0  0
   -0.0714    1.2908   -1.2360 C   0  0  0  0  0  0  0  0  0  0  0  0
    0.4578    0.6165   -0.0845 N   0  0  0  0  0  0  0  0  0  0  0  0
    1.8992    0.4320   -0.0575 C   0  0  0  0  0  0  0  0  0  0  0  0
    2.7094    0.8797   -1.0744 C   0  0  0  0  0  0  0  0  0  0  0  0
    4.0939    0.6957   -1.0312 C   0  0  0  0  0  0  0  0  0  0  0  0
    4.6888    0.0580    0.0354 C   0  0  0  0  0  0  0  0  0  0  0  0
    6.1227   -0.1524    0.1305 C   0  0  0  0  0  0  0  0  0  0  0  0
    6.5979   -1.2638    0.7840 C   0  0  0  0  0  0  0  0  0  0  0  0
    7.9654   -1.5081    0.9064 C   0  0  0  0  0  0  0  0  0  0  0  0
    8.8228   -0.5885    0.3448 C   0  0  0  0  0  0  0  0  0  0  0  0
   10.2275   -0.7245    0.4050 N   0  0  0  0  0  0  0  0  0  0  0  0
   10.9672   -1.4095   -0.6024 C   0  0  0  0  0  0  0  0  0  0  0  0
   10.3715   -1.9062   -1.5651 O   0  0  0  0  0  0  0  0  0  0  0  0
   12.4277   -1.5104   -0.4753 C   0  0  0  0  0  0  0  0  0  0  0  0
   13.2099   -0.3816    0.1182 C   0  0  0  0  0  0  0  0  0  0  0  0
   13.0150   -1.6180    0.8969 C   0  0  0  0  0  0  0  0  0  0  0  0
    8.3704    0.5187   -0.3068 N   0  0  0  0  0  0  0  0  0  0  0  0
    7.0351    0.7245   -0.4069 C   0  0  0  0  0  0  0  0  0  0  0  0
    3.8650   -0.3891    1.0536 C   0  0  0  0  0  0  0  0  0  0  0  0
    2.4910   -0.2046    1.0072 C   0  0  0  0  0  0  0  0  0  0  0  0
   -2.3888    1.0490   -0.1778 N   0  0  0  0  0  0  0  0  0  0  0  0
   -3.8024    1.2286   -0.1539 C   0  0  0  0  0  0  0  0  0  0  0  0
   -4.5627    1.8288   -1.0989 C   0  0  0  0  0  0  0  0  0  0  0  0
   -5.9518    1.9248   -0.9180 C   0  0  0  0  0  0  0  0  0  0  0  0
   -6.5880    1.4267    0.1983 C   0  0  0  0  0  0  0  0  0  0  0  0
   -8.0586    1.5546    0.3378 C   0  0  0  0  0  0  0  0  0  0  0  0
   -8.6392    0.2868    0.0697 N   0  0  0  0  0  0  0  0  0  0  0  0
  -10.0658    0.2404    0.1600 C   0  0  0  0  0  0  0  0  0  0  0  0
  -10.6508   -1.1067   -0.1029 C   0  0  0  0  0  0  0  0  0  0  0  0
   -9.5740   -2.0995   -0.2394 N   0  0  0  0  0  0  0  0  0  0  0  0
   -8.8003   -1.6698   -1.4029 C   0  0  0  0  0  0  0  0  0  0  0  0
   -8.0774   -0.4146   -1.0370 C   0  0  0  0  0  0  0  0  0  0  0  0
   -5.8173    0.8166    1.1592 C   0  0  0  0  0  0  0  0  0  0  0  0
   -6.4702    0.2750    2.3642 C   0  0  0  0  0  0  0  0  0  0  0  0
   -7.1355    1.1938    3.1201 F   0  0  0  0  0  0  0  0  0  0  0  0
   -5.4872   -0.2718    3.2032 F   0  0  0  0  0  0  0  0  0  0  0  0
   -7.2954   -0.8091    2.0429 F   0  0  0  0  0  0  0  0  0  0  0  0
   -4.4596    0.7252    0.9777 C   0  0  0  0  0  0  0  0  0  0  0  0
    0.2529    0.7585   -2.1724 H   0  0  0  0  0  0  0  0  0  0  0  0
    0.4154    2.2973   -1.2545 H   0  0  0  0  0  0  0  0  0  0  0  0
   -0.0763    0.2496    0.7247 H   0  0  0  0  0  0  0  0  0  0  0  0
    2.2581    1.3759   -1.9067 H   0  0  0  0  0  0  0  0  0  0  0  0
    4.7292    1.0537   -1.8420 H   0  0  0  0  0  0  0  0  0  0  0  0
    5.9389   -1.9803    1.2215 H   0  0  0  0  0  0  0  0  0  0  0  0
    8.3764   -2.3632    1.4080 H   0  0  0  0  0  0  0  0  0  0  0  0
   10.7389   -0.3146    1.2063 H   0  0  0  0  0  0  0  0  0  0  0  0
   12.9307   -2.0538   -1.3028 H   0  0  0  0  0  0  0  0  0  0  0  0
   12.6276    0.5270    0.4164 H   0  0  0  0  0  0  0  0  0  0  0  0
   14.2279   -0.1534   -0.2224 H   0  0  0  0  0  0  0  0  0  0  0  0
   12.2691   -1.6434    1.7341 H   0  0  0  0  0  0  0  0  0  0  0  0
   13.8332   -2.3455    1.0108 H   0  0  0  0  0  0  0  0  0  0  0  0
    6.6620    1.5988   -0.9208 H   0  0  0  0  0  0  0  0  0  0  0  0
    4.3415   -0.8897    1.8881 H   0  0  0  0  0  0  0  0  0  0  0  0
    1.8764   -0.5669    1.8205 H   0  0  0  0  0  0  0  0  0  0  0  0
   -1.9496    0.5477    0.6656 H   0  0  0  0  0  0  0  0  0  0  0  0
   -4.1128    2.2293   -1.9804 H   0  0  0  0  0  0  0  0  0  0  0  0
   -6.5083    2.4127   -1.7023 H   0  0  0  0  0  0  0  0  0  0  0  0
   -8.3403    1.9294    1.3435 H   0  0  0  0  0  0  0  0  0  0  0  0
   -8.4038    2.3017   -0.4205 H   0  0  0  0  0  0  0  0  0  0  0  0
  -10.4804    0.9862   -0.5619 H   0  0  0  0  0  0  0  0  0  0  0  0
  -10.3839    0.5780    1.1678 H   0  0  0  0  0  0  0  0  0  0  0  0
  -11.3754   -1.4259    0.6968 H   0  0  0  0  0  0  0  0  0  0  0  0
  -11.2178   -1.1571   -1.0550 H   0  0  0  0  0  0  0  0  0  0  0  0
  -10.0168   -3.0358   -0.3759 H   0  0  0  0  0  0  0  0  0  0  0  0
   -8.1068   -2.5061   -1.6652 H   0  0  0  0  0  0  0  0  0  0  0  0
   -9.4548   -1.5214   -2.2928 H   0  0  0  0  0  0  0  0  0  0  0  0
   -8.0010    0.3004   -1.8923 H   0  0  0  0  0  0  0  0  0  0  0  0
   -7.0285   -0.6856   -0.7748 H   0  0  0  0  0  0  0  0  0  0  0  0
   -3.9152    0.2252    1.7872 H   0  0  0  0  0  0  0  0  0  0  0  0
  1  2  2  0
  2  3  1  0
  3  4  1  0
  4  5  1  0
  5  6  2  0
  6  7  1  0
  7  8  2  0
  8  9  1  0
  9 10  2  0
 10 11  1  0
 11 12  2  0
 12 13  1  0
 13 14  1  0
 14 15  2  0
 14 16  1  0
 16 17  1  0
 17 18  1  0
 12 19  1  0
 19 20  2  0
  8 21  1  0
 21 22  2  0
  2 23  1  0
 23 24  1  0
 24 25  2  0
 25 26  1  0
 26 27  2  0
 27 28  1  0
 28 29  1  0
 29 30  1  0
 30 31  1  0
 31 32  1  0
 32 33  1  0
 33 34  1  0
 27 35  1  0
 35 36  1  0
 36 37  1  0
 36 38  1  0
 36 39  1  0
 35 40  2  0
 22  5  1  0
 40 24  1  0
 20  9  1  0
 34 29  1  0
 18 16  1  0
  3 41  1  0
  3 42  1  0
  4 43  1  0
  6 44  1  0
  7 45  1  0
 10 46  1  0
 11 47  1  0
 13 48  1  0
 16 49  1  0
 17 50  1  0
 17 51  1  0
 18 52  1  0
 18 53  1  0
 20 54  1  0
 21 55  1  0
 22 56  1  0
 23 57  1  0
 25 58  1  0
 26 59  1  0
 28 60  1  0
 28 61  1  0
 30 62  1  0
 30 63  1  0
 31 64  1  0
 31 65  1  0
 32 66  1  0
 33 67  1  0
 33 68  1  0
 34 69  1  0
 34 70  1  0
 40 71  1  0
M  END
$$$$
