@<TRIPOS>MOLECULE
*****
 71 75 0 0 0
SMALL
GASTEIGER

@<TRIPOS>ATOM
      1 O          -2.0174    2.0657   -2.2166 O.2     1  UNL1       -0.2738
      2 C          -1.5311    1.4675   -1.1986 C.2     1  UNL1        0.2343
      3 C          -0.0714    1.2908   -1.2360 C.3     1  UNL1        0.0861
      4 N           0.4578    0.6165   -0.0845 N.pl3   1  UNL1       -0.3354
      5 C           1.8992    0.4320   -0.0575 C.ar    1  UNL1        0.0275
      6 C           2.7094    0.8797   -1.0744 C.ar    1  UNL1       -0.0403
      7 C           4.0939    0.6957   -1.0312 C.ar    1  UNL1       -0.0522
      8 C           4.6888    0.0580    0.0354 C.ar    1  UNL1       -0.0163
      9 C           6.1227   -0.1524    0.1305 C.ar    1  UNL1        0.0004
     10 C           6.5979   -1.2638    0.7840 C.ar    1  UNL1       -0.0493
     11 C           7.9654   -1.5081    0.9064 C.ar    1  UNL1       -0.0209
     12 C           8.8228   -0.5885    0.3448 C.ar    1  UNL1        0.1249
     13 N          10.2275   -0.7245    0.4050 N.am    1  UNL1       -0.2702
     14 C          10.9672   -1.4095   -0.6024 C.2     1  UNL1        0.2213
     15 O          10.3715   -1.9062   -1.5651 O.2     1  UNL1       -0.2751
     16 C          12.4277   -1.5104   -0.4753 C.3     1  UNL1        0.0360
     17 C          13.2099   -0.3816    0.1182 C.3     1  UNL1       -0.0412
     18 C          13.0150   -1.6180    0.8969 C.3     1  UNL1       -0.0412
     19 N           8.3704    0.5187   -0.3068 N.ar    1  UNL1       -0.2395
     20 C           7.0351    0.7245   -0.4069 C.ar    1  UNL1        0.0374
     21 C           3.8650   -0.3891    1.0536 C.ar    1  UNL1       -0.0522
     22 C           2.4910   -0.2046    1.0072 C.ar    1  UNL1       -0.0403
     23 N          -2.3888    1.0490   -0.1778 N.am    1  UNL1       -0.2842
     24 C          -3.8024    1.2286   -0.1539 C.ar    1  UNL1        0.0340
     25 C          -4.5627    1.8288   -1.0989 C.ar    1  UNL1       -0.0402
     26 C          -5.9518    1.9248   -0.9180 C.ar    1  UNL1       -0.0551
     27 C          -6.5880    1.4267    0.1983 C.ar    1  UNL1       -0.0216
     28 C          -8.0586    1.5546    0.3378 C.3     1  UNL1        0.0247
     29 N          -8.6392    0.2868    0.0697 N.3     1  UNL1       -0.2957
     30 C         -10.0658    0.2404    0.1600 C.3     1  UNL1        0.0118
     31 C         -10.6508   -1.1067   -0.1029 C.3     1  UNL1        0.0087
     32 N          -9.5740   -2.0995   -0.2394 N.3     1  UNL1       -0.3136
     33 C          -8.8003   -1.6698   -1.4029 C.3     1  UNL1        0.0087
     34 C          -8.0774   -0.4146   -1.0370 C.3     1  UNL1        0.0118
     35 C          -5.8173    0.8166    1.1592 C.ar    1  UNL1        0.0609
     36 C          -6.4702    0.2750    2.3642 C.3     1  UNL1        0.4178
     37 F          -7.1355    1.1938    3.1201 F       1  UNL1       -0.1659
     38 F          -5.4872   -0.2718    3.2032 F       1  UNL1       -0.1659
     39 F          -7.2954   -0.8091    2.0429 F       1  UNL1       -0.1659
     40 C          -4.4596    0.7252    0.9777 C.ar    1  UNL1       -0.0285
     41 H           0.2529    0.7585   -2.1724 H       1  UNL1        0.0557
     42 H           0.4154    2.2973   -1.2545 H       1  UNL1        0.0557
     43 H          -0.0763    0.2496    0.7247 H       1  UNL1        0.1466
     44 H           2.2581    1.3759   -1.9067 H       1  UNL1        0.0636
     45 H           4.7292    1.0537   -1.8420 H       1  UNL1        0.0624
     46 H           5.9389   -1.9803    1.2215 H       1  UNL1        0.0625
     47 H           8.3764   -2.3632    1.4080 H       1  UNL1        0.0652
     48 H          10.7389   -0.3146    1.2063 H       1  UNL1        0.1562
     49 H          12.9307   -2.0538   -1.3028 H       1  UNL1        0.0394
     50 H          12.6276    0.5270    0.4164 H       1  UNL1        0.0273
     51 H          14.2279   -0.1534   -0.2224 H       1  UNL1        0.0273
     52 H          12.2691   -1.6434    1.7341 H       1  UNL1        0.0273
     53 H          13.8332   -2.3455    1.0108 H       1  UNL1        0.0273
     54 H           6.6620    1.5988   -0.9208 H       1  UNL1        0.0836
     55 H           4.3415   -0.8897    1.8881 H       1  UNL1        0.0624
     56 H           1.8764   -0.5669    1.8205 H       1  UNL1        0.0636
     57 H          -1.9496    0.5477    0.6656 H       1  UNL1        0.1549
     58 H          -4.1128    2.2293   -1.9804 H       1  UNL1        0.0636
     59 H          -6.5083    2.4127   -1.7023 H       1  UNL1        0.0621
     60 H          -8.3403    1.9294    1.3435 H       1  UNL1        0.0476
     61 H          -8.4038    2.3017   -0.4205 H       1  UNL1        0.0476
     62 H         -10.4804    0.9862   -0.5619 H       1  UNL1        0.0439
     63 H         -10.3839    0.5780    1.1678 H       1  UNL1        0.0439
     64 H         -11.3754   -1.4259    0.6968 H       1  UNL1        0.0437
     65 H         -11.2178   -1.1571   -1.0550 H       1  UNL1        0.0437
     66 H         -10.0168   -3.0358   -0.3759 H       1  UNL1        0.1220
     67 H          -8.1068   -2.5061   -1.6652 H       1  UNL1        0.0437
     68 H          -9.4548   -1.5214   -2.2928 H       1  UNL1        0.0437
     69 H          -8.0010    0.3004   -1.8923 H       1  UNL1        0.0439
     70 H          -7.0285   -0.6856   -0.7748 H       1  UNL1        0.0439
     71 H          -3.9152    0.2252    1.7872 H       1  UNL1        0.0642
@<TRIPOS>BOND
     1     1     2    2
     2     2     3    1
     3     3     4    1
     4     4     5    1
     5     5     6   ar
     6     6     7   ar
     7     7     8   ar
     8     8     9    1
     9     9    10   ar
    10    10    11   ar
    11    11    12   ar
    12    12    13    1
    13    13    14   am
    14    14    15    2
    15    14    16    1
    16    16    17    1
    17    17    18    1
    18    12    19   ar
    19    19    20   ar
    20     8    21   ar
    21    21    22   ar
    22     2    23   am
    23    23    24    1
    24    24    25   ar
    25    25    26   ar
    26    26    27   ar
    27    27    28    1
    28    28    29    1
    29    29    30    1
    30    30    31    1
    31    31    32    1
    32    32    33    1
    33    33    34    1
    34    27    35   ar
    35    35    36    1
    36    36    37    1
    37    36    38    1
    38    36    39    1
    39    35    40   ar
    40    22     5   ar
    41    40    24   ar
    42    20     9   ar
    43    34    29    1
    44    18    16    1
    45     3    41    1
    46     3    42    1
    47     4    43    1
    48     6    44    1
    49     7    45    1
    50    10    46    1
    51    11    47    1
    52    13    48    1
    53    16    49    1
    54    17    50    1
    55    17    51    1
    56    18    52    1
    57    18    53    1
    58    20    54    1
    59    21    55    1
    60    22    56    1
    61    23    57    1
    62    25    58    1
    63    26    59    1
    64    28    60    1
    65    28    61    1
    66    30    62    1
    67    30    63    1
    68    31    64    1
    69    31    65    1
    70    32    66    1
    71    33    67    1
    72    33    68    1
    73    34    69    1
    74    34    70    1
    75    40    71    1
