
     RDKit          3D

 46 50  0  0  0  0  0  0  0  0999 V2000
    8.1978    1.2247   -0.1080 C   0  0  0  0  0  0  0  0  0  0  0  0
    7.6710    0.4277    1.0906 C   0  0  0  0  0  0  0  0  0  0  0  0
    6.3257   -0.0871    0.8168 C   0  0  0  0  0  0  0  0  0  0  0  0
    5.1706    0.5359    1.0798 N   0  0  0  0  0  0  0  0  0  0  0  0
    4.1405   -0.2532    0.6854 C   0  0  0  0  0  0  0  0  0  0  0  0
    2.7640   -0.1007    0.7228 C   0  0  0  0  0  0  0  0  0  0  0  0
    1.9306   -1.0883    0.2405 C   0  0  0  0  0  0  0  0  0  0  0  0
    0.5085   -0.9451    0.2725 N   0  0  0  0  0  0  0  0  0  0  0  0
   -0.3245   -1.7578    0.8761 N   0  0  0  0  0  0  0  0  0  0  0  0
   -1.5999   -1.3238    0.7057 C   0  0  0  0  0  0  0  0  0  0  0  0
   -1.5531   -0.1787   -0.0460 C   0  0  0  0  0  0  0  0  0  0  0  0
   -2.6018    0.6989   -0.4934 C   0  0  0  0  0  0  0  0  0  0  0  0
   -2.2386    1.7822   -1.0507 O   0  0  0  0  0  0  0  0  0  0  0  0
   -4.0306    0.4787   -0.3749 C   0  0  0  0  0  0  0  0  0  0  0  0
   -5.0137    1.4725   -0.5612 C   0  0  0  0  0  0  0  0  0  0  0  0
   -6.2647    0.9344   -0.4074 C   0  0  0  0  0  0  0  0  0  0  0  0
   -7.5585    1.4332   -0.4763 C   0  0  0  0  0  0  0  0  0  0  0  0
   -8.6620    0.6384   -0.2707 C   0  0  0  0  0  0  0  0  0  0  0  0
   -8.4583   -0.6900    0.0109 C   0  0  0  0  0  0  0  0  0  0  0  0
   -7.1606   -1.2053    0.0833 C   0  0  0  0  0  0  0  0  0  0  0  0
   -6.0675   -0.3947   -0.1253 C   0  0  0  0  0  0  0  0  0  0  0  0
   -4.7307   -0.6371   -0.1129 N   0  0  0  0  0  0  0  0  0  0  0  0
   -0.1907    0.0300   -0.3020 C   0  0  0  0  0  0  0  0  0  0  0  0
    0.4064    1.0899   -1.0458 N   0  0  0  0  0  0  0  0  0  0  0  0
    2.5027   -2.2273   -0.2780 C   0  0  0  0  0  0  0  0  0  0  0  0
    3.8654   -2.3811   -0.3165 C   0  0  0  0  0  0  0  0  0  0  0  0
    4.6720   -1.3983    0.1629 C   0  0  0  0  0  0  0  0  0  0  0  0
    6.0179   -1.2640    0.2588 N   0  0  0  0  0  0  0  0  0  0  0  0
    9.1717    1.6479    0.2002 H   0  0  0  0  0  0  0  0  0  0  0  0
    8.3966    0.5663   -0.9761 H   0  0  0  0  0  0  0  0  0  0  0  0
    7.5383    2.0672   -0.3627 H   0  0  0  0  0  0  0  0  0  0  0  0
    7.7209    1.1090    1.9566 H   0  0  0  0  0  0  0  0  0  0  0  0
    8.3805   -0.4374    1.2009 H   0  0  0  0  0  0  0  0  0  0  0  0
    2.3526    0.8215    1.1440 H   0  0  0  0  0  0  0  0  0  0  0  0
   -2.4158   -1.8596    1.1405 H   0  0  0  0  0  0  0  0  0  0  0  0
   -4.7960    2.4935   -0.7886 H   0  0  0  0  0  0  0  0  0  0  0  0
   -7.7198    2.4741   -0.6969 H   0  0  0  0  0  0  0  0  0  0  0  0
   -9.6811    1.0260   -0.3239 H   0  0  0  0  0  0  0  0  0  0  0  0
   -9.3279   -1.3207    0.1738 H   0  0  0  0  0  0  0  0  0  0  0  0
   -7.0560   -2.2567    0.3080 H   0  0  0  0  0  0  0  0  0  0  0  0
   -4.3536   -1.5969    0.0704 H   0  0  0  0  0  0  0  0  0  0  0  0
    1.1222    0.8861   -1.7620 H   0  0  0  0  0  0  0  0  0  0  0  0
    0.1163    2.0793   -0.8636 H   0  0  0  0  0  0  0  0  0  0  0  0
    1.8467   -2.9954   -0.6534 H   0  0  0  0  0  0  0  0  0  0  0  0
    4.3226   -3.2877   -0.7292 H   0  0  0  0  0  0  0  0  0  0  0  0
    6.6638   -2.0122   -0.0752 H   0  0  0  0  0  0  0  0  0  0  0  0
  1  2  1  0
  2  3  1  0
  3  4  2  0
  4  5  1  0
  5  6  2  0
  6  7  1  0
  7  8  1  0
  8  9  1  0
  9 10  2  0
 10 11  1  0
 11 12  1  0
 12 13  2  0
 12 14  1  0
 14 15  2  0
 15 16  1  0
 16 17  2  0
 17 18  1  0
 18 19  2  0
 19 20  1  0
 20 21  2  0
 21 22  1  0
 11 23  2  0
 23 24  1  0
  7 25  2  0
 25 26  1  0
 26 27  2  0
 27 28  1  0
 28  3  1  0
 27  5  1  0
 23  8  1  0
 22 14  1  0
 21 16  1  0
  1 29  1  0
  1 30  1  0
  1 31  1  0
  2 32  1  0
  2 33  1  0
  6 34  1  0
 10 35  1  0
 15 36  1  0
 17 37  1  0
 18 38  1  0
 19 39  1  0
 20 40  1  0
 22 41  1  0
 24 42  1  0
 24 43  1  0
 25 44  1  0
 26 45  1  0
 28 46  1  0
M  END
$$$$
