@<TRIPOS>MOLECULE
*****
 46 50 0 0 0
SMALL
GASTEIGER

@<TRIPOS>ATOM
      1 C           8.1978    1.2247   -0.1080 C.3     1  UNL1       -0.0584
      2 C           7.6710    0.4277    1.0906 C.3     1  UNL1        0.0026
      3 C           6.3257   -0.0871    0.8168 C.ar    1  UNL1        0.1079
      4 N           5.1706    0.5359    1.0798 N.ar    1  UNL1       -0.2324
      5 C           4.1405   -0.2532    0.6854 C.ar    1  UNL1        0.0911
      6 C           2.7640   -0.1007    0.7228 C.ar    1  UNL1       -0.0087
      7 C           1.9306   -1.0883    0.2405 C.ar    1  UNL1        0.0696
      8 N           0.5085   -0.9451    0.2725 N.ar    1  UNL1       -0.2182
      9 N          -0.3245   -1.7578    0.8761 N.ar    1  UNL1       -0.1723
     10 C          -1.5999   -1.3238    0.7057 C.ar    1  UNL1        0.0626
     11 C          -1.5531   -0.1787   -0.0460 C.ar    1  UNL1        0.0829
     12 C          -2.6018    0.6989   -0.4934 C.2     1  UNL1        0.2140
     13 O          -2.2386    1.7822   -1.0507 O.2     1  UNL1       -0.2849
     14 C          -4.0306    0.4787   -0.3749 C.ar    1  UNL1        0.0883
     15 C          -5.0137    1.4725   -0.5612 C.ar    1  UNL1       -0.0255
     16 C          -6.2647    0.9344   -0.4074 C.ar    1  UNL1        0.0004
     17 C          -7.5585    1.4332   -0.4763 C.ar    1  UNL1       -0.0526
     18 C          -8.6620    0.6384   -0.2707 C.ar    1  UNL1       -0.0611
     19 C          -8.4583   -0.6900    0.0109 C.ar    1  UNL1       -0.0598
     20 C          -7.1606   -1.2053    0.0833 C.ar    1  UNL1       -0.0378
     21 C          -6.0675   -0.3947   -0.1253 C.ar    1  UNL1        0.0470
     22 N          -4.7307   -0.6371   -0.1129 N.ar    1  UNL1       -0.3516
     23 C          -0.1907    0.0300   -0.3020 C.ar    1  UNL1        0.1307
     24 N           0.4064    1.0899   -1.0458 N.pl3   1  UNL1       -0.3425
     25 C           2.5027   -2.2273   -0.2780 C.ar    1  UNL1       -0.0341
     26 C           3.8654   -2.3811   -0.3165 C.ar    1  UNL1       -0.0342
     27 C           4.6720   -1.3983    0.1629 C.ar    1  UNL1        0.0663
     28 N           6.0179   -1.2640    0.2588 N.ar    1  UNL1       -0.3418
     29 H           9.1717    1.6479    0.2002 H       1  UNL1        0.0234
     30 H           8.3966    0.5663   -0.9761 H       1  UNL1        0.0234
     31 H           7.5383    2.0672   -0.3627 H       1  UNL1        0.0234
     32 H           7.7209    1.1090    1.9566 H       1  UNL1        0.0340
     33 H           8.3805   -0.4374    1.2009 H       1  UNL1        0.0340
     34 H           2.3526    0.8215    1.1440 H       1  UNL1        0.0661
     35 H          -2.4158   -1.8596    1.1405 H       1  UNL1        0.0856
     36 H          -4.7960    2.4935   -0.7886 H       1  UNL1        0.0646
     37 H          -7.7198    2.4741   -0.6969 H       1  UNL1        0.0624
     38 H          -9.6811    1.0260   -0.3239 H       1  UNL1        0.0618
     39 H          -9.3279   -1.3207    0.1738 H       1  UNL1        0.0618
     40 H          -7.0560   -2.2567    0.3080 H       1  UNL1        0.0638
     41 H          -4.3536   -1.5969    0.0704 H       1  UNL1        0.1660
     42 H           1.1222    0.8861   -1.7620 H       1  UNL1        0.1437
     43 H           0.1163    2.0793   -0.8636 H       1  UNL1        0.1437
     44 H           1.8467   -2.9954   -0.6534 H       1  UNL1        0.0639
     45 H           4.3226   -3.2877   -0.7292 H       1  UNL1        0.0639
     46 H           6.6638   -2.0122   -0.0752 H       1  UNL1        0.1671
@<TRIPOS>BOND
     1     1     2    1
     2     2     3    1
     3     3     4   ar
     4     4     5   ar
     5     5     6   ar
     6     6     7   ar
     7     7     8    1
     8     8     9   ar
     9     9    10   ar
    10    10    11   ar
    11    11    12    1
    12    12    13    2
    13    12    14    1
    14    14    15   ar
    15    15    16   ar
    16    16    17   ar
    17    17    18   ar
    18    18    19   ar
    19    19    20   ar
    20    20    21   ar
    21    21    22   ar
    22    11    23   ar
    23    23    24    1
    24     7    25   ar
    25    25    26   ar
    26    26    27   ar
    27    27    28   ar
    28    28     3   ar
    29    27     5   ar
    30    23     8   ar
    31    22    14   ar
    32    21    16   ar
    33     1    29    1
    34     1    30    1
    35     1    31    1
    36     2    32    1
    37     2    33    1
    38     6    34    1
    39    10    35    1
    40    15    36    1
    41    17    37    1
    42    18    38    1
    43    19    39    1
    44    20    40    1
    45    22    41    1
    46    24    42    1
    47    24    43    1
    48    25    44    1
    49    26    45    1
    50    28    46    1
