
     RDKit          3D

 23 23  0  0  0  0  0  0  0  0999 V2000
   -1.9386   -1.0165    0.6058 C   0  0  0  0  0  0  0  0  0  0  0  0
   -1.1409   -0.7466   -0.6618 C   0  0  2  0  0  0  0  0  0  0  0  0
    0.0437   -1.4876   -0.6222 O   0  0  0  0  0  0  0  0  0  0  0  0
    0.7660   -1.0385    0.4822 C   0  0  1  0  0  0  0  0  0  0  0  0
    1.7691   -1.9950    0.7034 O   0  0  0  0  0  0  0  0  0  0  0  0
    1.3395    0.3175    0.1897 C   0  0  1  0  0  0  0  0  0  0  0  0
    2.6424    0.1249   -0.2962 O   0  0  0  0  0  0  0  0  0  0  0  0
    0.5422    1.1169   -0.7945 C   0  0  2  0  0  0  0  0  0  0  0  0
    0.5754    2.4888   -0.5003 O   0  0  0  0  0  0  0  0  0  0  0  0
   -0.9001    0.7186   -0.8859 C   0  0  2  0  0  0  0  0  0  0  0  0
   -1.7119    1.4977   -0.0467 O   0  0  0  0  0  0  0  0  0  0  0  0
   -1.6593   -1.9905    1.0591 H   0  0  0  0  0  0  0  0  0  0  0  0
   -1.7930   -0.2128    1.3493 H   0  0  0  0  0  0  0  0  0  0  0  0
   -3.0195   -1.0616    0.3536 H   0  0  0  0  0  0  0  0  0  0  0  0
   -1.7322   -1.1839   -1.5072 H   0  0  0  0  0  0  0  0  0  0  0  0
    0.1310   -0.9840    1.3832 H   0  0  0  0  0  0  0  0  0  0  0  0
    2.1190   -1.9697    1.6181 H   0  0  0  0  0  0  0  0  0  0  0  0
    1.4507    0.8531    1.1584 H   0  0  0  0  0  0  0  0  0  0  0  0
    3.1048   -0.5495    0.2771 H   0  0  0  0  0  0  0  0  0  0  0  0
    1.0215    1.0121   -1.7973 H   0  0  0  0  0  0  0  0  0  0  0  0
    1.2269    2.7004    0.2103 H   0  0  0  0  0  0  0  0  0  0  0  0
   -1.2337    0.9776   -1.9244 H   0  0  0  0  0  0  0  0  0  0  0  0
   -1.6031    2.4288   -0.3536 H   0  0  0  0  0  0  0  0  0  0  0  0
  1  2  1  0
  2  3  1  0
  3  4  1  0
  4  5  1  0
  4  6  1  0
  6  7  1  0
  6  8  1  0
  8  9  1  0
  8 10  1  0
 10 11  1  0
 10  2  1  0
  1 12  1  0
  1 13  1  0
  1 14  1  0
  2 15  1  6
  4 16  1  1
  5 17  1  0
  6 18  1  1
  7 19  1  0
  8 20  1  6
  9 21  1  0
 10 22  1  6
 11 23  1  0
M  END
$$$$
