@<TRIPOS>MOLECULE
*****
 23 23 0 0 0
SMALL
GASTEIGER

@<TRIPOS>ATOM
      1 C          -1.9386   -1.0165    0.6058 C.3     1  UNL1       -0.0361
      2 C          -1.1409   -0.7466   -0.6618 C.3     1  UNL1        0.0873
      3 O           0.0437   -1.4876   -0.6222 O.3     1  UNL1       -0.3433
      4 C           0.7660   -1.0385    0.4822 C.3     1  UNL1        0.1853
      5 O           1.7691   -1.9950    0.7034 O.3     1  UNL1       -0.3649
      6 C           1.3395    0.3175    0.1897 C.3     1  UNL1        0.1339
      7 O           2.6424    0.1249   -0.2962 O.3     1  UNL1       -0.3841
      8 C           0.5422    1.1169   -0.7945 C.3     1  UNL1        0.1140
      9 O           0.5754    2.4888   -0.5003 O.3     1  UNL1       -0.3864
     10 C          -0.9001    0.7186   -0.8859 C.3     1  UNL1        0.1095
     11 O          -1.7119    1.4977   -0.0467 O.3     1  UNL1       -0.3866
     12 H          -1.6593   -1.9905    1.0591 H       1  UNL1        0.0255
     13 H          -1.7930   -0.2128    1.3493 H       1  UNL1        0.0255
     14 H          -3.0195   -1.0616    0.3536 H       1  UNL1        0.0255
     15 H          -1.7322   -1.1839   -1.5072 H       1  UNL1        0.0621
     16 H           0.1310   -0.9840    1.3832 H       1  UNL1        0.0935
     17 H           2.1190   -1.9697    1.6181 H       1  UNL1        0.2126
     18 H           1.4507    0.8531    1.1584 H       1  UNL1        0.0671
     19 H           3.1048   -0.5495    0.2771 H       1  UNL1        0.2101
     20 H           1.0215    1.0121   -1.7973 H       1  UNL1        0.0648
     21 H           1.2269    2.7004    0.2103 H       1  UNL1        0.2100
     22 H          -1.2337    0.9776   -1.9244 H       1  UNL1        0.0646
     23 H          -1.6031    2.4288   -0.3536 H       1  UNL1        0.2100
@<TRIPOS>BOND
     1     1     2    1
     2     2     3    1
     3     3     4    1
     4     4     5    1
     5     4     6    1
     6     6     7    1
     7     6     8    1
     8     8     9    1
     9     8    10    1
    10    10    11    1
    11    10     2    1
    12     1    12    1
    13     1    13    1
    14     1    14    1
    15     2    15    1
    16     4    16    1
    17     5    17    1
    18     6    18    1
    19     7    19    1
    20     8    20    1
    21     9    21    1
    22    10    22    1
    23    11    23    1
