@<TRIPOS>MOLECULE
*****
 32 34 0 0 0
SMALL
GASTEIGER

@<TRIPOS>ATOM
      1 C           2.4327    0.4695    0.7488 C.3     1  UNL1        0.1109
      2 C           3.1791    1.7414    0.9966 C.3     1  UNL1        0.0729
      3 O           4.5437    1.4611    0.9420 O.3     1  UNL1       -0.3924
      4 O           1.0307    0.6580    0.7861 O.3     1  UNL1       -0.3596
      5 C           0.6251   -0.5679    0.3078 C.3     1  UNL1        0.1307
      6 C          -0.8240   -0.7370    0.1969 C.ar    1  UNL1        0.0934
      7 C          -1.8520    0.1756    0.0801 C.ar    1  UNL1        0.1191
      8 N          -1.8109    1.5078    0.0342 N.ar    1  UNL1       -0.2318
      9 C          -2.9935    2.1800   -0.0862 C.ar    1  UNL1        0.1189
     10 N          -4.1770    1.5251   -0.1577 N.ar    1  UNL1       -0.2189
     11 C          -4.2195    0.1800   -0.1115 C.ar    1  UNL1        0.1474
     12 N          -5.4003   -0.6084   -0.1779 N.pl3   1  UNL1       -0.3413
     13 C          -3.0417   -0.5129    0.0093 C.ar    1  UNL1        0.1504
     14 N          -2.7140   -1.8002    0.0834 N.ar    1  UNL1       -0.1685
     15 N          -1.4082   -1.9581    0.1948 N.ar    1  UNL1       -0.2762
     16 C           1.3071   -0.5535   -1.0628 C.3     1  UNL1        0.1152
     17 O           1.3805   -1.8180   -1.6060 O.3     1  UNL1       -0.3862
     18 C           2.6670   -0.0157   -0.6663 C.3     1  UNL1        0.1120
     19 O           3.6306   -1.0244   -0.7342 O.3     1  UNL1       -0.3865
     20 H           2.6708   -0.3101    1.4833 H       1  UNL1        0.0646
     21 H           2.8659    2.2875    1.8841 H       1  UNL1        0.0584
     22 H           3.0052    2.4226    0.1119 H       1  UNL1        0.0584
     23 H           4.7080    0.5452    0.6207 H       1  UNL1        0.2095
     24 H           1.0555   -1.3306    0.9735 H       1  UNL1        0.0689
     25 H          -3.0994    3.2555   -0.1345 H       1  UNL1        0.1048
     26 H          -6.1819   -0.3918   -0.8369 H       1  UNL1        0.1438
     27 H          -5.5680   -1.4502    0.4205 H       1  UNL1        0.1438
     28 H          -0.9456   -2.8906    0.2666 H       1  UNL1        0.1887
     29 H           0.7216    0.1406   -1.6882 H       1  UNL1        0.0650
     30 H           1.4562   -2.4521   -0.8491 H       1  UNL1        0.2100
     31 H           2.8752    0.8246   -1.3443 H       1  UNL1        0.0647
     32 H           4.0810   -0.9530   -1.6054 H       1  UNL1        0.2100
@<TRIPOS>BOND
     1     1     2    1
     2     2     3    1
     3     1     4    1
     4     4     5    1
     5     5     6    1
     6     6     7   ar
     7     7     8   ar
     8     8     9   ar
     9     9    10   ar
    10    10    11   ar
    11    11    12    1
    12    11    13   ar
    13    13    14   ar
    14    14    15   ar
    15     5    16    1
    16    16    17    1
    17    16    18    1
    18    18    19    1
    19    18     1    1
    20    15     6   ar
    21    13     7   ar
    22     1    20    1
    23     2    21    1
    24     2    22    1
    25     3    23    1
    26     5    24    1
    27     9    25    1
    28    12    26    1
    29    12    27    1
    30    15    28    1
    31    16    29    1
    32    17    30    1
    33    18    31    1
    34    19    32    1
