@<TRIPOS>MOLECULE
*****
 56 61 0 0 0
SMALL
GASTEIGER

@<TRIPOS>ATOM
      1 O           5.3691   -2.5511   -1.0356 O.2     1  UNL1       -0.2700
      2 C           4.6816   -1.5266   -0.6555 C.2     1  UNL1        0.2467
      3 C           3.2409   -1.6214   -0.7521 C.ar    1  UNL1        0.0384
      4 C           2.5695   -1.5268   -1.9720 C.ar    1  UNL1       -0.0478
      5 C           1.2101   -1.6890   -2.0294 C.ar    1  UNL1       -0.0384
      6 C           0.4610   -1.9486   -0.9071 C.ar    1  UNL1        0.0511
      7 N          -0.9103   -2.1360   -1.0543 N.pl3   1  UNL1       -0.2954
      8 C          -1.9866   -1.4481   -0.4674 C.ar    1  UNL1        0.1666
      9 N          -2.8258   -2.0833    0.4085 N.ar    1  UNL1       -0.2314
     10 C          -3.8555   -1.4691    0.9523 C.ar    1  UNL1        0.0631
     11 C          -4.7720   -2.1822    1.8946 C.3     1  UNL1        0.0029
     12 C          -5.7612   -3.0742    1.1076 C.3     1  UNL1       -0.0441
     13 C          -6.1966   -1.8667    2.0066 C.3     1  UNL1       -0.0441
     14 C          -4.1063   -0.1371    0.6369 C.ar    1  UNL1        0.0335
     15 N          -3.2910    0.5198   -0.2257 N.ar    1  UNL1       -0.2948
     16 C          -3.2873    1.7721   -0.7008 C.ar    1  UNL1        0.0762
     17 C          -4.1895    2.8763   -0.4266 C.ar    1  UNL1        0.0375
     18 C          -4.0329    4.1361   -0.9943 C.ar    1  UNL1        0.0583
     19 N          -4.9942    4.9497   -0.5760 N.ar    1  UNL1       -0.1817
     20 N          -5.7703    4.2665    0.2432 N.ar    1  UNL1       -0.2841
     21 C          -5.2969    2.9733    0.3563 C.ar    1  UNL1        0.0315
     22 C          -2.1864    1.8739   -1.5709 C.ar    1  UNL1        0.0545
     23 N          -1.5681    0.7066   -1.5979 N.ar    1  UNL1       -0.2323
     24 C          -2.2342   -0.1312   -0.7769 C.ar    1  UNL1        0.1788
     25 C           1.1053   -2.0414    0.2958 C.ar    1  UNL1        0.0628
     26 CL          0.2285   -2.3501    1.7587 Cl      1  UNL1       -0.0816
     27 C           2.4972   -1.8776    0.3749 C.ar    1  UNL1       -0.0295
     28 N           5.3374   -0.3873   -0.1750 N.am    1  UNL1       -0.2951
     29 C           6.7935   -0.4263   -0.1284 C.3     1  UNL1        0.0275
     30 C           7.4613    0.8700   -0.3927 C.3     1  UNL1        0.0118
     31 N           6.4898    1.8841   -0.6699 N.3     1  UNL1       -0.3130
     32 C           5.4679    1.9957    0.3513 C.3     1  UNL1        0.0118
     33 C           4.5868    0.7641    0.2513 C.3     1  UNL1        0.0275
     34 H           3.1354   -1.3268   -2.8701 H       1  UNL1        0.0626
     35 H           0.7117   -1.6113   -2.9750 H       1  UNL1        0.0637
     36 H          -1.2259   -2.9276   -1.7223 H       1  UNL1        0.1537
     37 H          -4.2349   -2.7482    2.6894 H       1  UNL1        0.0364
     38 H          -5.8446   -2.9334    0.0288 H       1  UNL1        0.0272
     39 H          -5.9392   -4.0805    1.5217 H       1  UNL1        0.0272
     40 H          -6.7408   -2.1291    2.9362 H       1  UNL1        0.0272
     41 H          -6.5839   -0.9914    1.4337 H       1  UNL1        0.0272
     42 H          -4.9477    0.3542    1.0831 H       1  UNL1        0.0832
     43 H          -3.2545    4.4267   -1.6732 H       1  UNL1        0.0854
     44 H          -6.6090    4.6194    0.7328 H       1  UNL1        0.1882
     45 H          -5.7740    2.2294    0.9732 H       1  UNL1        0.0830
     46 H          -1.8889    2.7609   -2.1244 H       1  UNL1        0.0852
     47 H           2.9595   -1.9532    1.3403 H       1  UNL1        0.0640
     48 H           7.0732   -0.7289    0.9243 H       1  UNL1        0.0477
     49 H           7.1767   -1.2510   -0.7640 H       1  UNL1        0.0477
     50 H           8.0632    0.7299   -1.3360 H       1  UNL1        0.0439
     51 H           8.2077    1.1523    0.3791 H       1  UNL1        0.0439
     52 H           6.8947    2.8106   -0.9314 H       1  UNL1        0.1220
     53 H           4.8432    2.8601    0.0808 H       1  UNL1        0.0439
     54 H           5.8824    2.0881    1.3603 H       1  UNL1        0.0439
     55 H           3.7479    0.9181   -0.4547 H       1  UNL1        0.0477
     56 H           4.1132    0.6175    1.2541 H       1  UNL1        0.0477
@<TRIPOS>BOND
     1     1     2    2
     2     2     3    1
     3     3     4   ar
     4     4     5   ar
     5     5     6   ar
     6     6     7    1
     7     7     8    1
     8     8     9   ar
     9     9    10   ar
    10    10    11    1
    11    11    12    1
    12    12    13    1
    13    10    14   ar
    14    14    15   ar
    15    15    16   ar
    16    16    17    1
    17    17    18   ar
    18    18    19   ar
    19    19    20   ar
    20    20    21   ar
    21    16    22   ar
    22    22    23   ar
    23    23    24   ar
    24     6    25   ar
    25    25    26    1
    26    25    27   ar
    27     2    28   am
    28    28    29    1
    29    29    30    1
    30    30    31    1
    31    31    32    1
    32    32    33    1
    33    27     3   ar
    34    33    28    1
    35    24     8   ar
    36    13    11    1
    37    24    15   ar
    38    21    17   ar
    39     4    34    1
    40     5    35    1
    41     7    36    1
    42    11    37    1
    43    12    38    1
    44    12    39    1
    45    13    40    1
    46    13    41    1
    47    14    42    1
    48    18    43    1
    49    20    44    1
    50    21    45    1
    51    22    46    1
    52    27    47    1
    53    29    48    1
    54    29    49    1
    55    30    50    1
    56    30    51    1
    57    31    52    1
    58    32    53    1
    59    32    54    1
    60    33    55    1
    61    33    56    1
