
     RDKit          3D

 50 52  0  0  0  0  0  0  0  0999 V2000
    0.4897    2.3583    4.8817 C   0  0  0  0  0  0  0  0  0  0  0  0
    0.3845    1.5155    3.8054 O   0  0  0  0  0  0  0  0  0  0  0  0
   -0.6523    0.5676    3.9317 C   0  0  0  0  0  0  0  0  0  0  0  0
   -0.6684   -0.2646    2.6792 C   0  0  1  0  0  0  0  0  0  0  0  0
   -0.8439    0.6699    1.5698 N   0  0  0  0  0  0  0  0  0  0  0  0
   -0.9469    0.2801    0.1950 C   0  0  0  0  0  0  0  0  0  0  0  0
   -0.8501   -0.8927   -0.1406 O   0  0  0  0  0  0  0  0  0  0  0  0
   -1.1731    1.2745   -0.8024 N   0  0  0  0  0  0  0  0  0  0  0  0
   -1.8180    2.5022   -0.4353 C   0  0  0  0  0  0  0  0  0  0  0  0
   -2.7901    2.9209   -1.5096 C   0  0  0  0  0  0  0  0  0  0  0  0
   -3.8237    3.4800   -1.1012 O   0  0  0  0  0  0  0  0  0  0  0  0
   -2.5193    2.6814   -2.8479 N   0  0  0  0  0  0  0  0  0  0  0  0
   -1.5224    1.6901   -3.1595 C   0  0  0  0  0  0  0  0  0  0  0  0
   -1.2380    1.4496   -4.4804 C   0  0  0  0  0  0  0  0  0  0  0  0
   -0.2915    0.5164   -4.8277 C   0  0  0  0  0  0  0  0  0  0  0  0
   -0.0586    0.3275   -6.1792 O   0  0  0  0  0  0  0  0  0  0  0  0
   -0.7576    1.0447   -7.1621 C   0  0  0  0  0  0  0  0  0  0  0  0
    0.3591   -0.1623   -3.8325 C   0  0  0  0  0  0  0  0  0  0  0  0
    0.0583    0.0943   -2.5204 N   0  0  0  0  0  0  0  0  0  0  0  0
   -0.8612    0.9986   -2.1416 C   0  0  0  0  0  0  0  0  0  0  0  0
    0.5186   -1.1447    2.4938 C   0  0  0  0  0  0  0  0  0  0  0  0
    0.2503   -2.4364    2.0354 C   0  0  0  0  0  0  0  0  0  0  0  0
    1.2726   -3.3098    1.8486 C   0  0  0  0  0  0  0  0  0  0  0  0
    2.6092   -2.9672    2.0990 C   0  0  0  0  0  0  0  0  0  0  0  0
    3.6596   -3.8777    1.9032 O   0  0  0  0  0  0  0  0  0  0  0  0
    3.3458   -5.1709    1.4410 C   0  0  0  0  0  0  0  0  0  0  0  0
    2.7298   -5.0400    0.2066 F   0  0  0  0  0  0  0  0  0  0  0  0
    4.4745   -5.9450    1.3596 F   0  0  0  0  0  0  0  0  0  0  0  0
    2.5142   -5.8353    2.3712 F   0  0  0  0  0  0  0  0  0  0  0  0
    2.8523   -1.6854    2.5497 C   0  0  0  0  0  0  0  0  0  0  0  0
    4.1173   -1.2766    2.8134 F   0  0  0  0  0  0  0  0  0  0  0  0
    1.8073   -0.7682    2.7505 C   0  0  0  0  0  0  0  0  0  0  0  0
   -0.4672    2.9266    5.0110 H   0  0  0  0  0  0  0  0  0  0  0  0
    0.7337    1.7759    5.7866 H   0  0  0  0  0  0  0  0  0  0  0  0
    1.3560    3.0553    4.7002 H   0  0  0  0  0  0  0  0  0  0  0  0
   -1.5770    1.1622    4.0653 H   0  0  0  0  0  0  0  0  0  0  0  0
   -0.5378   -0.0401    4.8590 H   0  0  0  0  0  0  0  0  0  0  0  0
   -1.5569   -0.9594    2.7381 H   0  0  0  0  0  0  0  0  0  0  0  0
   -0.8978    1.7150    1.7249 H   0  0  0  0  0  0  0  0  0  0  0  0
   -1.0804    3.2757   -0.2331 H   0  0  0  0  0  0  0  0  0  0  0  0
   -2.3880    2.2987    0.4986 H   0  0  0  0  0  0  0  0  0  0  0  0
   -3.0275    3.2245   -3.5843 H   0  0  0  0  0  0  0  0  0  0  0  0
   -1.7520    1.9807   -5.2806 H   0  0  0  0  0  0  0  0  0  0  0  0
   -0.6444    2.1422   -7.0772 H   0  0  0  0  0  0  0  0  0  0  0  0
   -0.3645    0.7534   -8.1779 H   0  0  0  0  0  0  0  0  0  0  0  0
   -1.8576    0.8122   -7.1434 H   0  0  0  0  0  0  0  0  0  0  0  0
    1.0991   -0.8897   -4.1042 H   0  0  0  0  0  0  0  0  0  0  0  0
   -0.7909   -2.7499    1.8350 H   0  0  0  0  0  0  0  0  0  0  0  0
    1.0470   -4.2964    1.4892 H   0  0  0  0  0  0  0  0  0  0  0  0
    2.0782    0.2184    3.0986 H   0  0  0  0  0  0  0  0  0  0  0  0
  1  2  1  0
  2  3  1  0
  3  4  1  0
  4  5  1  0
  5  6  1  0
  6  7  2  0
  6  8  1  0
  8  9  1  0
  9 10  1  0
 10 11  2  0
 10 12  1  0
 12 13  1  0
 13 14  2  0
 14 15  1  0
 15 16  1  0
 16 17  1  0
 15 18  2  0
 18 19  1  0
 19 20  2  0
  4 21  1  0
 21 22  2  0
 22 23  1  0
 23 24  2  0
 24 25  1  0
 25 26  1  0
 26 27  1  0
 26 28  1  0
 26 29  1  0
 24 30  1  0
 30 31  1  0
 30 32  2  0
 20  8  1  0
 32 21  1  0
 20 13  1  0
  1 33  1  0
  1 34  1  0
  1 35  1  0
  3 36  1  0
  3 37  1  0
  4 38  1  1
  5 39  1  0
  9 40  1  0
  9 41  1  0
 12 42  1  0
 14 43  1  0
 17 44  1  0
 17 45  1  0
 17 46  1  0
 18 47  1  0
 22 48  1  0
 23 49  1  0
 32 50  1  0
M  END
$$$$
