@<TRIPOS>MOLECULE
*****
 50 52 0 0 0
SMALL
GASTEIGER

@<TRIPOS>ATOM
      1 C           0.4897    2.3583    4.8817 C.3     1  UNL1        0.0365
      2 O           0.3845    1.5155    3.8054 O.3     1  UNL1       -0.3808
      3 C          -0.6523    0.5676    3.9317 C.3     1  UNL1        0.0698
      4 C          -0.6684   -0.2646    2.6792 C.3     1  UNL1        0.0732
      5 N          -0.8439    0.6699    1.5698 N.am    1  UNL1       -0.2899
      6 C          -0.9469    0.2801    0.1950 C.2     1  UNL1        0.3086
      7 O          -0.8501   -0.8927   -0.1406 O.2     1  UNL1       -0.2522
      8 N          -1.1731    1.2745   -0.8024 N.am    1  UNL1       -0.2296
      9 C          -1.8180    2.5022   -0.4353 C.3     1  UNL1        0.0993
     10 C          -2.7901    2.9209   -1.5096 C.2     1  UNL1        0.2352
     11 O          -3.8237    3.4800   -1.1012 O.2     1  UNL1       -0.2737
     12 N          -2.5193    2.6814   -2.8479 N.am    1  UNL1       -0.2813
     13 C          -1.5224    1.6901   -3.1595 C.ar    1  UNL1        0.0778
     14 C          -1.2380    1.4496   -4.4804 C.ar    1  UNL1        0.0062
     15 C          -0.2915    0.5164   -4.8277 C.ar    1  UNL1        0.1400
     16 O          -0.0586    0.3275   -6.1792 O.3     1  UNL1       -0.4935
     17 C          -0.7576    1.0447   -7.1621 C.3     1  UNL1        0.0789
     18 C           0.3591   -0.1623   -3.8325 C.ar    1  UNL1        0.0714
     19 N           0.0583    0.0943   -2.5204 N.ar    1  UNL1       -0.2343
     20 C          -0.8612    0.9986   -2.1416 C.ar    1  UNL1        0.1507
     21 C           0.5186   -1.1447    2.4938 C.ar    1  UNL1       -0.0220
     22 C           0.2503   -2.4364    2.0354 C.ar    1  UNL1       -0.0531
     23 C           1.2726   -3.3098    1.8486 C.ar    1  UNL1       -0.0164
     24 C           2.6092   -2.9672    2.0990 C.ar    1  UNL1        0.1650
     25 O           3.6596   -3.8777    1.9032 O.3     1  UNL1       -0.4028
     26 C           3.3458   -5.1709    1.4410 C.3     1  UNL1        0.5753
     27 F           2.7298   -5.0400    0.2066 F       1  UNL1       -0.1328
     28 F           4.4745   -5.9450    1.3596 F       1  UNL1       -0.1328
     29 F           2.5142   -5.8353    2.3712 F       1  UNL1       -0.1328
     30 C           2.8523   -1.6854    2.5497 C.ar    1  UNL1        0.1654
     31 F           4.1173   -1.2766    2.8134 F       1  UNL1       -0.2016
     32 C           1.8073   -0.7682    2.7505 C.ar    1  UNL1       -0.0178
     33 H          -0.4672    2.9266    5.0110 H       1  UNL1        0.0523
     34 H           0.7337    1.7759    5.7866 H       1  UNL1        0.0523
     35 H           1.3560    3.0553    4.7002 H       1  UNL1        0.0523
     36 H          -1.5770    1.1622    4.0653 H       1  UNL1        0.0581
     37 H          -0.5378   -0.0401    4.8590 H       1  UNL1        0.0581
     38 H          -1.5569   -0.9594    2.7381 H       1  UNL1        0.0572
     39 H          -0.8978    1.7150    1.7249 H       1  UNL1        0.1509
     40 H          -1.0804    3.2757   -0.2331 H       1  UNL1        0.0565
     41 H          -2.3880    2.2987    0.4986 H       1  UNL1        0.0565
     42 H          -3.0275    3.2245   -3.5843 H       1  UNL1        0.1550
     43 H          -1.7520    1.9807   -5.2806 H       1  UNL1        0.0674
     44 H          -0.6444    2.1422   -7.0772 H       1  UNL1        0.0660
     45 H          -0.3645    0.7534   -8.1779 H       1  UNL1        0.0660
     46 H          -1.8576    0.8122   -7.1434 H       1  UNL1        0.0660
     47 H           1.0991   -0.8897   -4.1042 H       1  UNL1        0.0868
     48 H          -0.7909   -2.7499    1.8350 H       1  UNL1        0.0622
     49 H           1.0470   -4.2964    1.4892 H       1  UNL1        0.0655
     50 H           2.0782    0.2184    3.0986 H       1  UNL1        0.0651
@<TRIPOS>BOND
     1     1     2    1
     2     2     3    1
     3     3     4    1
     4     4     5    1
     5     5     6   am
     6     6     7    2
     7     6     8   am
     8     8     9    1
     9     9    10    1
    10    10    11    2
    11    10    12   am
    12    12    13    1
    13    13    14   ar
    14    14    15   ar
    15    15    16    1
    16    16    17    1
    17    15    18   ar
    18    18    19   ar
    19    19    20   ar
    20     4    21    1
    21    21    22   ar
    22    22    23   ar
    23    23    24   ar
    24    24    25    1
    25    25    26    1
    26    26    27    1
    27    26    28    1
    28    26    29    1
    29    24    30   ar
    30    30    31    1
    31    30    32   ar
    32    20     8    1
    33    32    21   ar
    34    20    13   ar
    35     1    33    1
    36     1    34    1
    37     1    35    1
    38     3    36    1
    39     3    37    1
    40     4    38    1
    41     5    39    1
    42     9    40    1
    43     9    41    1
    44    12    42    1
    45    14    43    1
    46    17    44    1
    47    17    45    1
    48    17    46    1
    49    18    47    1
    50    22    48    1
    51    23    49    1
    52    32    50    1
