@<TRIPOS>MOLECULE
*****
 54 57 0 0 0
SMALL
GASTEIGER

@<TRIPOS>ATOM
      1 O           7.4370    0.1870    1.4244 O.2     1  UNL1       -0.2749
      2 C           7.4668    0.4034    0.1937 C.2     1  UNL1        0.2239
      3 C           8.7586    0.8169   -0.4133 C.3     1  UNL1        0.0798
      4 BR          8.6237    1.1049   -2.2980 Br      1  UNL1       -0.0819
      5 N           6.2766    0.2436   -0.5482 N.am    1  UNL1       -0.3060
      6 C           5.0449   -0.1615    0.0945 C.3     1  UNL1        0.0883
      7 C           3.9486   -0.2561   -0.8979 C.2     1  UNL1        0.2328
      8 O           4.2229    0.0125   -2.0904 O.2     1  UNL1       -0.2739
      9 N           2.6252   -0.6338   -0.5466 N.am    1  UNL1       -0.2972
     10 C           1.6117   -0.7048   -1.5603 C.3     1  UNL1        0.0306
     11 C           0.2492   -0.2475   -1.0356 C.3     1  UNL1        0.0305
     12 N          -0.1023   -0.9090    0.1875 N.am    1  UNL1       -0.2980
     13 C          -1.3328   -0.8483    0.8673 C.2     1  UNL1        0.2219
     14 O          -1.4092   -1.5109    1.9782 O.2     1  UNL1       -0.2750
     15 C          -2.5581   -0.1405    0.5103 C.3     1  UNL1        0.0479
     16 C          -3.5102   -0.1570    1.6994 C.3     1  UNL1       -0.0362
     17 C          -4.8459    0.3992    1.3662 C.3     1  UNL1       -0.0396
     18 C          -4.6875    1.8109    0.8866 C.3     1  UNL1       -0.0473
     19 C          -3.7996    1.8033   -0.3124 C.3     1  UNL1       -0.0396
     20 C          -4.4720    0.9798   -1.4003 C.3     1  UNL1       -0.0473
     21 C          -4.6218   -0.4252   -0.9181 C.3     1  UNL1       -0.0396
     22 C          -5.4963   -0.4591    0.3063 C.3     1  UNL1       -0.0473
     23 C          -3.2554   -0.9760   -0.5786 C.3     1  UNL1       -0.0362
     24 C          -2.4076    1.2372   -0.0180 C.3     1  UNL1       -0.0362
     25 C           0.9757   -1.7370    0.7686 C.3     1  UNL1        0.0305
     26 C           2.2627   -0.9543    0.8264 C.3     1  UNL1        0.0306
     27 H           9.0272    1.7900    0.0778 H       1  UNL1        0.0477
     28 H           9.5632    0.0852   -0.2210 H       1  UNL1        0.0477
     29 H           6.2966    0.4230   -1.5750 H       1  UNL1        0.1492
     30 H           5.2543   -1.1699    0.5531 H       1  UNL1        0.0558
     31 H           4.7825    0.5014    0.9462 H       1  UNL1        0.0558
     32 H           1.8654    0.0219   -2.3804 H       1  UNL1        0.0480
     33 H           1.4598   -1.7324   -1.9555 H       1  UNL1        0.0480
     34 H           0.3981    0.8598   -0.8701 H       1  UNL1        0.0480
     35 H          -0.4411   -0.4645   -1.8672 H       1  UNL1        0.0480
     36 H          -3.0406    0.4800    2.4742 H       1  UNL1        0.0278
     37 H          -3.6274   -1.1916    2.0524 H       1  UNL1        0.0278
     38 H          -5.5002    0.3970    2.2426 H       1  UNL1        0.0301
     39 H          -5.6667    2.1961    0.5805 H       1  UNL1        0.0271
     40 H          -4.3197    2.4644    1.6978 H       1  UNL1        0.0271
     41 H          -3.7032    2.8397   -0.7030 H       1  UNL1        0.0301
     42 H          -5.4397    1.4519   -1.6258 H       1  UNL1        0.0271
     43 H          -3.8007    1.0020   -2.2830 H       1  UNL1        0.0271
     44 H          -5.0216   -1.0644   -1.7216 H       1  UNL1        0.0301
     45 H          -6.5111   -0.1077    0.0545 H       1  UNL1        0.0271
     46 H          -5.5676   -1.4867    0.7195 H       1  UNL1        0.0271
     47 H          -2.6608   -0.9688   -1.4899 H       1  UNL1        0.0278
     48 H          -3.3655   -2.0242   -0.2194 H       1  UNL1        0.0278
     49 H          -1.9309    1.2137   -1.0439 H       1  UNL1        0.0278
     50 H          -1.9218    1.9339    0.6621 H       1  UNL1        0.0278
     51 H           0.6794   -2.1672    1.7312 H       1  UNL1        0.0480
     52 H           1.1221   -2.5631    0.0432 H       1  UNL1        0.0480
     53 H           2.0538   -0.0228    1.4082 H       1  UNL1        0.0480
     54 H           3.0109   -1.5745    1.3255 H       1  UNL1        0.0480
@<TRIPOS>BOND
     1     1     2    2
     2     2     3    1
     3     3     4    1
     4     2     5   am
     5     5     6    1
     6     6     7    1
     7     7     8    2
     8     7     9   am
     9     9    10    1
    10    10    11    1
    11    11    12    1
    12    12    13   am
    13    13    14    2
    14    13    15    1
    15    15    16    1
    16    16    17    1
    17    17    18    1
    18    18    19    1
    19    19    20    1
    20    20    21    1
    21    21    22    1
    22    21    23    1
    23    19    24    1
    24    12    25    1
    25    25    26    1
    26    26     9    1
    27    23    15    1
    28    24    15    1
    29    22    17    1
    30     3    27    1
    31     3    28    1
    32     5    29    1
    33     6    30    1
    34     6    31    1
    35    10    32    1
    36    10    33    1
    37    11    34    1
    38    11    35    1
    39    16    36    1
    40    16    37    1
    41    17    38    1
    42    18    39    1
    43    18    40    1
    44    19    41    1
    45    20    42    1
    46    20    43    1
    47    21    44    1
    48    22    45    1
    49    22    46    1
    50    23    47    1
    51    23    48    1
    52    24    49    1
    53    24    50    1
    54    25    51    1
    55    25    52    1
    56    26    53    1
    57    26    54    1
