@<TRIPOS>MOLECULE
*****
 60 64 0 0 0
SMALL
GASTEIGER

@<TRIPOS>ATOM
      1 O          -5.8940   -4.5814    0.5085 O.3     1  UNL1       -0.3947
      2 C          -6.3159   -3.3387    0.0378 C.3     1  UNL1        0.0471
      3 C          -5.2661   -2.2733    0.2578 C.3     1  UNL1       -0.0150
      4 C          -4.0064   -2.6245   -0.4557 C.3     1  UNL1       -0.0322
      5 C          -3.0488   -1.4911   -0.6625 C.3     1  UNL1        0.0140
      6 N          -3.6622   -0.2237   -0.8374 N.pl3   1  UNL1       -0.3110
      7 C          -3.2875    0.7700   -1.7687 C.ar    1  UNL1        0.1839
      8 N          -4.1379    1.2864   -2.6814 N.ar    1  UNL1       -0.2338
      9 C          -3.7392    2.2477   -3.5464 C.ar    1  UNL1        0.0480
     10 C          -2.4598    2.7205   -3.5164 C.ar    1  UNL1        0.0496
     11 N          -1.5830    2.2262   -2.6171 N.ar    1  UNL1       -0.2169
     12 C          -2.0003    1.2637   -1.7589 C.ar    1  UNL1        0.2564
     13 O          -1.1366    0.7309   -0.8284 O.3     1  UNL1       -0.4707
     14 C           0.1931    1.1981   -0.7594 C.3     1  UNL1        0.1048
     15 C           1.1632    0.1655   -1.3239 C.3     1  UNL1        0.0001
     16 C           2.4896    0.8763   -1.4868 C.3     1  UNL1        0.0168
     17 N           2.9216    1.2613   -0.1684 N.pl3   1  UNL1       -0.3149
     18 C           4.1352    0.8435    0.4451 C.ar    1  UNL1        0.1219
     19 C           5.1037    0.2339   -0.3066 C.ar    1  UNL1       -0.0211
     20 C           6.3007   -0.1927    0.2867 C.ar    1  UNL1       -0.0493
     21 C           6.4416    0.0317    1.6370 C.ar    1  UNL1        0.0005
     22 C           7.6141   -0.3790    2.2596 C.ar    1  UNL1       -0.0526
     23 C           7.7985   -0.1745    3.6186 C.ar    1  UNL1       -0.0611
     24 C           6.8277    0.4407    4.3894 C.ar    1  UNL1       -0.0597
     25 C           5.6797    0.8356    3.7428 C.ar    1  UNL1       -0.0357
     26 C           5.4578    0.6477    2.3842 C.ar    1  UNL1        0.0731
     27 N           4.3332    1.0388    1.7799 N.ar    1  UNL1       -0.2320
     28 C           2.0055    2.1613    0.5509 C.3     1  UNL1        0.0168
     29 C           0.6389    1.5612    0.6243 C.3     1  UNL1        0.0001
     30 C          -4.7911    0.0954    0.0291 C.3     1  UNL1        0.0140
     31 C          -5.8524   -0.9585   -0.2643 C.3     1  UNL1       -0.0322
     32 H          -5.3185   -4.4979    1.3125 H       1  UNL1        0.2094
     33 H          -6.5628   -3.3711   -1.0237 H       1  UNL1        0.0560
     34 H          -7.2410   -3.0900    0.6211 H       1  UNL1        0.0560
     35 H          -5.1130   -2.1172    1.3603 H       1  UNL1        0.0324
     36 H          -4.2664   -3.1535   -1.4004 H       1  UNL1        0.0284
     37 H          -3.4738   -3.3873    0.1757 H       1  UNL1        0.0284
     38 H          -2.3574   -1.7875   -1.4719 H       1  UNL1        0.0464
     39 H          -2.4023   -1.4220    0.2523 H       1  UNL1        0.0464
     40 H          -4.4431    2.6245   -4.2514 H       1  UNL1        0.0846
     41 H          -2.1460    3.5029   -4.2229 H       1  UNL1        0.0846
     42 H           0.2860    2.0796   -1.4286 H       1  UNL1        0.0734
     43 H           0.7683   -0.2480   -2.2535 H       1  UNL1        0.0316
     44 H           1.2434   -0.6553   -0.5871 H       1  UNL1        0.0316
     45 H           2.2429    1.8442   -2.0206 H       1  UNL1        0.0465
     46 H           3.1962    0.2896   -2.0707 H       1  UNL1        0.0465
     47 H           5.0068    0.0556   -1.3672 H       1  UNL1        0.0652
     48 H           7.0807   -0.6821   -0.3056 H       1  UNL1        0.0625
     49 H           8.3672   -0.8566    1.6524 H       1  UNL1        0.0624
     50 H           8.7084   -0.4906    4.1181 H       1  UNL1        0.0618
     51 H           7.0020    0.5862    5.4474 H       1  UNL1        0.0618
     52 H           4.9062    1.3187    4.3257 H       1  UNL1        0.0639
     53 H           1.9258    3.0585   -0.1207 H       1  UNL1        0.0465
     54 H           2.4278    2.4867    1.5011 H       1  UNL1        0.0465
     55 H           0.6300    0.6301    1.2444 H       1  UNL1        0.0316
     56 H          -0.0484    2.3335    1.0680 H       1  UNL1        0.0316
     57 H          -4.4634   -0.0809    1.0915 H       1  UNL1        0.0464
     58 H          -5.1631    1.1193   -0.0892 H       1  UNL1        0.0464
     59 H          -5.9159   -1.0502   -1.3620 H       1  UNL1        0.0284
     60 H          -6.7992   -0.7647    0.2351 H       1  UNL1        0.0284
@<TRIPOS>BOND
     1     1     2    1
     2     2     3    1
     3     3     4    1
     4     4     5    1
     5     5     6    1
     6     6     7    1
     7     7     8   ar
     8     8     9   ar
     9     9    10   ar
    10    10    11   ar
    11    11    12   ar
    12    12    13    1
    13    13    14    1
    14    14    15    1
    15    15    16    1
    16    16    17    1
    17    17    18    1
    18    18    19   ar
    19    19    20   ar
    20    20    21   ar
    21    21    22   ar
    22    22    23   ar
    23    23    24   ar
    24    24    25   ar
    25    25    26   ar
    26    26    27   ar
    27    17    28    1
    28    28    29    1
    29     6    30    1
    30    30    31    1
    31    31     3    1
    32    12     7   ar
    33    29    14    1
    34    27    18   ar
    35    26    21   ar
    36     1    32    1
    37     2    33    1
    38     2    34    1
    39     3    35    1
    40     4    36    1
    41     4    37    1
    42     5    38    1
    43     5    39    1
    44     9    40    1
    45    10    41    1
    46    14    42    1
    47    15    43    1
    48    15    44    1
    49    16    45    1
    50    16    46    1
    51    19    47    1
    52    20    48    1
    53    22    49    1
    54    23    50    1
    55    24    51    1
    56    25    52    1
    57    28    53    1
    58    28    54    1
    59    29    55    1
    60    29    56    1
    61    30    57    1
    62    30    58    1
    63    31    59    1
    64    31    60    1
