
     RDKit          3D

 60 64  0  0  0  0  0  0  0  0999 V2000
   -5.8940   -4.5814    0.5085 O   0  0  0  0  0  0  0  0  0  0  0  0
   -6.3159   -3.3387    0.0378 C   0  0  0  0  0  0  0  0  0  0  0  0
   -5.2661   -2.2733    0.2578 C   0  0  0  0  0  0  0  0  0  0  0  0
   -4.0064   -2.6245   -0.4557 C   0  0  0  0  0  0  0  0  0  0  0  0
   -3.0488   -1.4911   -0.6625 C   0  0  0  0  0  0  0  0  0  0  0  0
   -3.6622   -0.2237   -0.8374 N   0  0  0  0  0  0  0  0  0  0  0  0
   -3.2875    0.7700   -1.7687 C   0  0  0  0  0  0  0  0  0  0  0  0
   -4.1379    1.2864   -2.6814 N   0  0  0  0  0  0  0  0  0  0  0  0
   -3.7392    2.2477   -3.5464 C   0  0  0  0  0  0  0  0  0  0  0  0
   -2.4598    2.7205   -3.5164 C   0  0  0  0  0  0  0  0  0  0  0  0
   -1.5830    2.2262   -2.6171 N   0  0  0  0  0  0  0  0  0  0  0  0
   -2.0003    1.2637   -1.7589 C   0  0  0  0  0  0  0  0  0  0  0  0
   -1.1366    0.7309   -0.8284 O   0  0  0  0  0  0  0  0  0  0  0  0
    0.1931    1.1981   -0.7594 C   0  0  0  0  0  0  0  0  0  0  0  0
    1.1632    0.1655   -1.3239 C   0  0  0  0  0  0  0  0  0  0  0  0
    2.4896    0.8763   -1.4868 C   0  0  0  0  0  0  0  0  0  0  0  0
    2.9216    1.2613   -0.1684 N   0  0  0  0  0  0  0  0  0  0  0  0
    4.1352    0.8435    0.4451 C   0  0  0  0  0  0  0  0  0  0  0  0
    5.1037    0.2339   -0.3066 C   0  0  0  0  0  0  0  0  0  0  0  0
    6.3007   -0.1927    0.2867 C   0  0  0  0  0  0  0  0  0  0  0  0
    6.4416    0.0317    1.6370 C   0  0  0  0  0  0  0  0  0  0  0  0
    7.6141   -0.3790    2.2596 C   0  0  0  0  0  0  0  0  0  0  0  0
    7.7985   -0.1745    3.6186 C   0  0  0  0  0  0  0  0  0  0  0  0
    6.8277    0.4407    4.3894 C   0  0  0  0  0  0  0  0  0  0  0  0
    5.6797    0.8356    3.7428 C   0  0  0  0  0  0  0  0  0  0  0  0
    5.4578    0.6477    2.3842 C   0  0  0  0  0  0  0  0  0  0  0  0
    4.3332    1.0388    1.7799 N   0  0  0  0  0  0  0  0  0  0  0  0
    2.0055    2.1613    0.5509 C   0  0  0  0  0  0  0  0  0  0  0  0
    0.6389    1.5612    0.6243 C   0  0  0  0  0  0  0  0  0  0  0  0
   -4.7911    0.0954    0.0291 C   0  0  0  0  0  0  0  0  0  0  0  0
   -5.8524   -0.9585   -0.2643 C   0  0  0  0  0  0  0  0  0  0  0  0
   -5.3185   -4.4979    1.3125 H   0  0  0  0  0  0  0  0  0  0  0  0
   -6.5628   -3.3711   -1.0237 H   0  0  0  0  0  0  0  0  0  0  0  0
   -7.2410   -3.0900    0.6211 H   0  0  0  0  0  0  0  0  0  0  0  0
   -5.1130   -2.1172    1.3603 H   0  0  0  0  0  0  0  0  0  0  0  0
   -4.2664   -3.1535   -1.4004 H   0  0  0  0  0  0  0  0  0  0  0  0
   -3.4738   -3.3873    0.1757 H   0  0  0  0  0  0  0  0  0  0  0  0
   -2.3574   -1.7875   -1.4719 H   0  0  0  0  0  0  0  0  0  0  0  0
   -2.4023   -1.4220    0.2523 H   0  0  0  0  0  0  0  0  0  0  0  0
   -4.4431    2.6245   -4.2514 H   0  0  0  0  0  0  0  0  0  0  0  0
   -2.1460    3.5029   -4.2229 H   0  0  0  0  0  0  0  0  0  0  0  0
    0.2860    2.0796   -1.4286 H   0  0  0  0  0  0  0  0  0  0  0  0
    0.7683   -0.2480   -2.2535 H   0  0  0  0  0  0  0  0  0  0  0  0
    1.2434   -0.6553   -0.5871 H   0  0  0  0  0  0  0  0  0  0  0  0
    2.2429    1.8442   -2.0206 H   0  0  0  0  0  0  0  0  0  0  0  0
    3.1962    0.2896   -2.0707 H   0  0  0  0  0  0  0  0  0  0  0  0
    5.0068    0.0556   -1.3672 H   0  0  0  0  0  0  0  0  0  0  0  0
    7.0807   -0.6821   -0.3056 H   0  0  0  0  0  0  0  0  0  0  0  0
    8.3672   -0.8566    1.6524 H   0  0  0  0  0  0  0  0  0  0  0  0
    8.7084   -0.4906    4.1181 H   0  0  0  0  0  0  0  0  0  0  0  0
    7.0020    0.5862    5.4474 H   0  0  0  0  0  0  0  0  0  0  0  0
    4.9062    1.3187    4.3257 H   0  0  0  0  0  0  0  0  0  0  0  0
    1.9258    3.0585   -0.1207 H   0  0  0  0  0  0  0  0  0  0  0  0
    2.4278    2.4867    1.5011 H   0  0  0  0  0  0  0  0  0  0  0  0
    0.6300    0.6301    1.2444 H   0  0  0  0  0  0  0  0  0  0  0  0
   -0.0484    2.3335    1.0680 H   0  0  0  0  0  0  0  0  0  0  0  0
   -4.4634   -0.0809    1.0915 H   0  0  0  0  0  0  0  0  0  0  0  0
   -5.1631    1.1193   -0.0892 H   0  0  0  0  0  0  0  0  0  0  0  0
   -5.9159   -1.0502   -1.3620 H   0  0  0  0  0  0  0  0  0  0  0  0
   -6.7992   -0.7647    0.2351 H   0  0  0  0  0  0  0  0  0  0  0  0
  1  2  1  0
  2  3  1  0
  3  4  1  0
  4  5  1  0
  5  6  1  0
  6  7  1  0
  7  8  2  0
  8  9  1  0
  9 10  2  0
 10 11  1  0
 11 12  2  0
 12 13  1  0
 13 14  1  0
 14 15  1  0
 15 16  1  0
 16 17  1  0
 17 18  1  0
 18 19  2  0
 19 20  1  0
 20 21  2  0
 21 22  1  0
 22 23  2  0
 23 24  1  0
 24 25  2  0
 25 26  1  0
 26 27  2  0
 17 28  1  0
 28 29  1  0
  6 30  1  0
 30 31  1  0
 31  3  1  0
 12  7  1  0
 29 14  1  0
 27 18  1  0
 26 21  1  0
  1 32  1  0
  2 33  1  0
  2 34  1  0
  3 35  1  0
  4 36  1  0
  4 37  1  0
  5 38  1  0
  5 39  1  0
  9 40  1  0
 10 41  1  0
 14 42  1  0
 15 43  1  0
 15 44  1  0
 16 45  1  0
 16 46  1  0
 19 47  1  0
 20 48  1  0
 22 49  1  0
 23 50  1  0
 24 51  1  0
 25 52  1  0
 28 53  1  0
 28 54  1  0
 29 55  1  0
 29 56  1  0
 30 57  1  0
 30 58  1  0
 31 59  1  0
 31 60  1  0
M  END
$$$$
