
     RDKit          3D

 53 56  0  0  0  0  0  0  0  0999 V2000
   -0.6577   -3.6052    2.3798 C   0  0  0  0  0  0  0  0  0  0  0  0
   -0.4687   -2.7925    1.2542 O   0  0  0  0  0  0  0  0  0  0  0  0
   -1.2609   -1.7348    0.8965 C   0  0  0  0  0  0  0  0  0  0  0  0
   -2.2386   -1.5252    1.7009 O   0  0  0  0  0  0  0  0  0  0  0  0
   -1.1386   -0.8574   -0.2393 C   0  0  0  0  0  0  0  0  0  0  0  0
   -2.1084    0.1207   -0.4240 C   0  0  0  0  0  0  0  0  0  0  0  0
   -3.1783    0.2581    0.5343 C   0  0  0  0  0  0  0  0  0  0  0  0
   -4.3572   -0.4487    0.3584 C   0  0  0  0  0  0  0  0  0  0  0  0
   -5.3649   -0.2960    1.2815 C   0  0  0  0  0  0  0  0  0  0  0  0
   -5.1860    0.5460    2.3505 C   0  0  0  0  0  0  0  0  0  0  0  0
   -4.0092    1.2397    2.5092 C   0  0  0  0  0  0  0  0  0  0  0  0
   -2.9801    1.1088    1.6019 C   0  0  0  0  0  0  0  0  0  0  0  0
   -2.1215    0.9967   -1.4952 C   0  0  0  0  0  0  0  0  0  0  0  0
   -3.1006    1.9566   -1.6487 C   0  0  0  0  0  0  0  0  0  0  0  0
   -3.0971    2.8192   -2.7224 C   0  0  0  0  0  0  0  0  0  0  0  0
   -4.4477    4.1492   -2.9416 Br  0  0  0  0  0  0  0  0  0  0  0  0
   -2.0871    2.7285   -3.6795 C   0  0  0  0  0  0  0  0  0  0  0  0
   -1.1313    1.7655   -3.4974 C   0  0  0  0  0  0  0  0  0  0  0  0
   -1.1198    0.8951   -2.4300 C   0  0  0  0  0  0  0  0  0  0  0  0
   -0.1622   -0.0671   -2.2494 C   0  0  0  0  0  0  0  0  0  0  0  0
    0.7434   -0.1351   -3.1246 O   0  0  0  0  0  0  0  0  0  0  0  0
   -0.1830   -0.9178   -1.1709 N   0  0  0  0  0  0  0  0  0  0  0  0
    0.8915   -1.8857   -1.1017 C   0  0  0  0  0  0  0  0  0  0  0  0
    2.1380   -1.3366   -0.5198 C   0  0  0  0  0  0  0  0  0  0  0  0
    2.3207   -1.0465    0.7963 C   0  0  0  0  0  0  0  0  0  0  0  0
    3.5397   -0.5424    1.2900 C   0  0  0  0  0  0  0  0  0  0  0  0
    4.5984   -0.3240    0.4452 C   0  0  0  0  0  0  0  0  0  0  0  0
    6.1163    0.3041    1.0623 S   0  0  0  0  0  6  0  0  0  0  0  0
    6.1544    2.0656    1.0278 C   0  0  0  0  0  0  0  0  0  0  0  0
    7.2153   -0.2040    0.1516 O   0  0  0  0  0  0  0  0  0  0  0  0
    6.3814   -0.2240    2.4441 O   0  0  0  0  0  0  0  0  0  0  0  0
    4.4153   -0.6164   -0.8857 C   0  0  0  0  0  0  0  0  0  0  0  0
    3.2243   -1.1102   -1.3738 C   0  0  0  0  0  0  0  0  0  0  0  0
   -0.7552   -3.0234    3.3206 H   0  0  0  0  0  0  0  0  0  0  0  0
   -1.5586   -4.2442    2.3109 H   0  0  0  0  0  0  0  0  0  0  0  0
    0.2116   -4.3070    2.4430 H   0  0  0  0  0  0  0  0  0  0  0  0
   -4.5275   -1.1146   -0.4667 H   0  0  0  0  0  0  0  0  0  0  0  0
   -6.3156   -0.8342    1.1848 H   0  0  0  0  0  0  0  0  0  0  0  0
   -5.9697    0.6816    3.0924 H   0  0  0  0  0  0  0  0  0  0  0  0
   -3.8862    1.9013    3.3614 H   0  0  0  0  0  0  0  0  0  0  0  0
   -2.0769    1.6767    1.7742 H   0  0  0  0  0  0  0  0  0  0  0  0
   -3.8771    2.0148   -0.8986 H   0  0  0  0  0  0  0  0  0  0  0  0
   -2.1000    3.4117   -4.5132 H   0  0  0  0  0  0  0  0  0  0  0  0
   -0.3278    1.6697   -4.2295 H   0  0  0  0  0  0  0  0  0  0  0  0
    1.1010   -2.1775   -2.1881 H   0  0  0  0  0  0  0  0  0  0  0  0
    0.5922   -2.8323   -0.6456 H   0  0  0  0  0  0  0  0  0  0  0  0
    1.5321   -1.1849    1.4968 H   0  0  0  0  0  0  0  0  0  0  0  0
    3.6492   -0.3249    2.3341 H   0  0  0  0  0  0  0  0  0  0  0  0
    6.9713    2.4059    1.7014 H   0  0  0  0  0  0  0  0  0  0  0  0
    6.4339    2.4130    0.0093 H   0  0  0  0  0  0  0  0  0  0  0  0
    5.2124    2.5423    1.3093 H   0  0  0  0  0  0  0  0  0  0  0  0
    5.2634   -0.4394   -1.5517 H   0  0  0  0  0  0  0  0  0  0  0  0
    3.0875   -1.3415   -2.4253 H   0  0  0  0  0  0  0  0  0  0  0  0
  1  2  1  0
  2  3  1  0
  3  4  2  0
  3  5  1  0
  5  6  2  0
  6  7  1  0
  7  8  2  0
  8  9  1  0
  9 10  2  0
 10 11  1  0
 11 12  2  0
  6 13  1  0
 13 14  2  0
 14 15  1  0
 15 16  1  0
 15 17  2  0
 17 18  1  0
 18 19  2  0
 19 20  1  0
 20 21  2  0
 20 22  1  0
 22 23  1  0
 23 24  1  0
 24 25  2  0
 25 26  1  0
 26 27  2  0
 27 28  1  0
 28 29  1  0
 28 30  2  0
 28 31  2  0
 27 32  1  0
 32 33  2  0
 22  5  1  0
 33 24  1  0
 12  7  1  0
 19 13  1  0
  1 34  1  0
  1 35  1  0
  1 36  1  0
  8 37  1  0
  9 38  1  0
 10 39  1  0
 11 40  1  0
 12 41  1  0
 14 42  1  0
 17 43  1  0
 18 44  1  0
 23 45  1  0
 23 46  1  0
 25 47  1  0
 26 48  1  0
 29 49  1  0
 29 50  1  0
 29 51  1  0
 32 52  1  0
 33 53  1  0
M  END
$$$$
