@<TRIPOS>MOLECULE
*****
 53 56 0 0 0
SMALL
GASTEIGER

@<TRIPOS>ATOM
      1 C          -0.6577   -3.6052    2.3798 C.3     1  UNL1        0.0820
      2 O          -0.4687   -2.7925    1.2542 O.3     1  UNL1       -0.4634
      3 C          -1.2609   -1.7348    0.8965 C.2     1  UNL1        0.3563
      4 O          -2.2386   -1.5252    1.7009 O.2     1  UNL1       -0.2433
      5 C          -1.1386   -0.8574   -0.2393 C.ar    1  UNL1        0.1383
      6 C          -2.1084    0.1207   -0.4240 C.ar    1  UNL1        0.0206
      7 C          -3.1783    0.2581    0.5343 C.ar    1  UNL1       -0.0151
      8 C          -4.3572   -0.4487    0.3584 C.ar    1  UNL1       -0.0539
      9 C          -5.3649   -0.2960    1.2815 C.ar    1  UNL1       -0.0612
     10 C          -5.1860    0.5460    2.3505 C.ar    1  UNL1       -0.0617
     11 C          -4.0092    1.2397    2.5092 C.ar    1  UNL1       -0.0612
     12 C          -2.9801    1.1088    1.6019 C.ar    1  UNL1       -0.0539
     13 C          -2.1215    0.9967   -1.4952 C.ar    1  UNL1       -0.0018
     14 C          -3.1006    1.9566   -1.6487 C.ar    1  UNL1       -0.0392
     15 C          -3.0971    2.8192   -2.7224 C.ar    1  UNL1        0.0185
     16 BR         -4.4477    4.1492   -2.9416 Br      1  UNL1       -0.0503
     17 C          -2.0871    2.7285   -3.6795 C.ar    1  UNL1       -0.0470
     18 C          -1.1313    1.7655   -3.4974 C.ar    1  UNL1       -0.0478
     19 C          -1.1198    0.8951   -2.4300 C.ar    1  UNL1        0.0474
     20 C          -0.1622   -0.0671   -2.2494 C.ar    1  UNL1        0.2600
     21 O           0.7434   -0.1351   -3.1246 O.2     1  UNL1       -0.2670
     22 N          -0.1830   -0.9178   -1.1709 N.ar    1  UNL1       -0.2973
     23 C           0.8915   -1.8857   -1.1017 C.3     1  UNL1        0.0519
     24 C           2.1380   -1.3366   -0.5198 C.ar    1  UNL1       -0.0275
     25 C           2.3207   -1.0465    0.7963 C.ar    1  UNL1       -0.0551
     26 C           3.5397   -0.5424    1.2900 C.ar    1  UNL1       -0.0366
     27 C           4.5984   -0.3240    0.4452 C.ar    1  UNL1        0.0879
     28 S           6.1163    0.3041    1.0623 S.O2    1  UNL1       -0.0059
     29 C           6.1544    2.0656    1.0278 C.3     1  UNL1        0.0596
     30 O           7.2153   -0.2040    0.1516 O.2     1  UNL1       -0.1696
     31 O           6.3814   -0.2240    2.4441 O.2     1  UNL1       -0.1696
     32 C           4.4153   -0.6164   -0.8857 C.ar    1  UNL1       -0.0366
     33 C           3.2243   -1.1102   -1.3738 C.ar    1  UNL1       -0.0551
     34 H          -0.7552   -3.0234    3.3206 H       1  UNL1        0.0661
     35 H          -1.5586   -4.2442    2.3109 H       1  UNL1        0.0661
     36 H           0.2116   -4.3070    2.4430 H       1  UNL1        0.0661
     37 H          -4.5275   -1.1146   -0.4667 H       1  UNL1        0.0624
     38 H          -6.3156   -0.8342    1.1848 H       1  UNL1        0.0618
     39 H          -5.9697    0.6816    3.0924 H       1  UNL1        0.0618
     40 H          -3.8862    1.9013    3.3614 H       1  UNL1        0.0618
     41 H          -2.0769    1.6767    1.7742 H       1  UNL1        0.0624
     42 H          -3.8771    2.0148   -0.8986 H       1  UNL1        0.0635
     43 H          -2.1000    3.4117   -4.5132 H       1  UNL1        0.0629
     44 H          -0.3278    1.6697   -4.2295 H       1  UNL1        0.0626
     45 H           1.1010   -2.1775   -2.1881 H       1  UNL1        0.0542
     46 H           0.5922   -2.8323   -0.6456 H       1  UNL1        0.0542
     47 H           1.5321   -1.1849    1.4968 H       1  UNL1        0.0621
     48 H           3.6492   -0.3249    2.3341 H       1  UNL1        0.0637
     49 H           6.9713    2.4059    1.7014 H       1  UNL1        0.0468
     50 H           6.4339    2.4130    0.0093 H       1  UNL1        0.0468
     51 H           5.2124    2.5423    1.3093 H       1  UNL1        0.0468
     52 H           5.2634   -0.4394   -1.5517 H       1  UNL1        0.0637
     53 H           3.0875   -1.3415   -2.4253 H       1  UNL1        0.0621
@<TRIPOS>BOND
     1     1     2    1
     2     2     3    1
     3     3     4    2
     4     3     5    1
     5     5     6   ar
     6     6     7    1
     7     7     8   ar
     8     8     9   ar
     9     9    10   ar
    10    10    11   ar
    11    11    12   ar
    12     6    13   ar
    13    13    14   ar
    14    14    15   ar
    15    15    16    1
    16    15    17   ar
    17    17    18   ar
    18    18    19   ar
    19    19    20   ar
    20    20    21    2
    21    20    22   ar
    22    22    23    1
    23    23    24    1
    24    24    25   ar
    25    25    26   ar
    26    26    27   ar
    27    27    28    1
    28    28    29    1
    29    28    30    2
    30    28    31    2
    31    27    32   ar
    32    32    33   ar
    33    22     5   ar
    34    33    24   ar
    35    12     7   ar
    36    19    13   ar
    37     1    34    1
    38     1    35    1
    39     1    36    1
    40     8    37    1
    41     9    38    1
    42    10    39    1
    43    11    40    1
    44    12    41    1
    45    14    42    1
    46    17    43    1
    47    18    44    1
    48    23    45    1
    49    23    46    1
    50    25    47    1
    51    26    48    1
    52    29    49    1
    53    29    50    1
    54    29    51    1
    55    32    52    1
    56    33    53    1
