@<TRIPOS>MOLECULE
*****
 76 81 0 0 0
SMALL
GASTEIGER

@<TRIPOS>ATOM
      1 O           8.2558    4.2954    0.2451 O.2     1  UNL1       -0.2535
      2 P           7.1801    3.5735    1.0073 P.3     1  UNL1        0.3583
      3 O           7.6502    3.2268    2.5951 O.3     1  UNL1       -0.3207
      4 O           5.8025    4.5521    1.0903 O.3     1  UNL1       -0.3207
      5 C           6.8092    2.0153    0.2244 C.ar    1  UNL1        0.0639
      6 C           7.8106    1.1735   -0.2353 C.ar    1  UNL1       -0.0469
      7 C           7.5110   -0.0341   -0.8349 C.ar    1  UNL1       -0.0604
      8 C           6.1693   -0.4085   -0.9779 C.ar    1  UNL1       -0.0540
      9 C           5.1720    0.4123   -0.5292 C.ar    1  UNL1       -0.0171
     10 C           3.7779    0.0247   -0.6664 C.ar    1  UNL1       -0.0178
     11 C           3.3843   -1.3015   -0.6056 C.ar    1  UNL1       -0.0538
     12 C           2.0721   -1.6394   -0.7398 C.ar    1  UNL1       -0.0579
     13 C           1.0380   -0.6872   -0.9461 C.ar    1  UNL1       -0.0447
     14 C          -0.3309   -1.1163   -1.1029 C.3     1  UNL1        0.0022
     15 C          -1.2860   -1.2436    0.0040 C.3     1  UNL1        0.0986
     16 C          -1.7231    0.0232    0.6621 C.3     1  UNL1        0.0022
     17 C          -2.5294    1.0023   -0.0175 C.ar    1  UNL1       -0.0447
     18 C          -2.1592    1.9348   -0.9271 C.ar    1  UNL1       -0.0580
     19 C          -3.0222    2.8791   -1.4845 C.ar    1  UNL1       -0.0521
     20 C          -4.3288    2.9115   -1.1281 C.ar    1  UNL1        0.0328
     21 C          -5.2665    3.9055   -1.7050 C.3     1  UNL1        0.3711
     22 F          -6.2652    3.2797   -2.4174 F       1  UNL1       -0.1866
     23 F          -4.5559    4.7343   -2.5772 F       1  UNL1       -0.1866
     24 P          -5.9047    4.9651   -0.3919 P.3     1  UNL1        0.4007
     25 O          -6.1643    6.3775   -0.9084 O.2     1  UNL1       -0.2522
     26 O          -7.3993    4.3277    0.1069 O.3     1  UNL1       -0.3199
     27 O          -4.8405    5.0926    0.8986 O.3     1  UNL1       -0.3199
     28 C          -4.7581    1.9887   -0.2086 C.ar    1  UNL1       -0.0521
     29 C          -3.9105    1.0658    0.3359 C.ar    1  UNL1       -0.0580
     30 C          -0.7610   -2.0018    1.2144 C.ar    1  UNL1       -0.0194
     31 C          -1.3356   -3.1275    1.7164 C.ar    1  UNL1       -0.0563
     32 C          -0.8290   -3.7892    2.8408 C.ar    1  UNL1       -0.0614
     33 C           0.2887   -3.2544    3.4346 C.ar    1  UNL1       -0.0617
     34 C           0.8695   -2.1238    2.9375 C.ar    1  UNL1       -0.0614
     35 C           0.3478   -1.4811    1.8162 C.ar    1  UNL1       -0.0563
     36 N          -2.4892   -1.9571   -0.4899 N.ar    1  UNL1       -0.2329
     37 N          -3.7359   -1.5758   -0.5535 N.ar    1  UNL1       -0.0637
     38 N          -4.5231   -2.4477   -1.0859 N.ar    1  UNL1       -0.1294
     39 C          -3.8042   -3.5231   -1.4274 C.ar    1  UNL1        0.1127
     40 C          -4.0649   -4.7391   -2.0156 C.ar    1  UNL1       -0.0324
     41 C          -3.0662   -5.6766   -2.2447 C.ar    1  UNL1       -0.0596
     42 C          -1.7768   -5.3750   -1.8692 C.ar    1  UNL1       -0.0596
     43 C          -1.5475   -4.1492   -1.2821 C.ar    1  UNL1       -0.0344
     44 C          -2.4969   -3.2111   -1.0450 C.ar    1  UNL1        0.0900
     45 C           1.4906    0.5894   -0.9960 C.ar    1  UNL1       -0.0579
     46 C           2.8152    0.9570   -0.8625 C.ar    1  UNL1       -0.0538
     47 C           5.4759    1.6089    0.0649 C.ar    1  UNL1       -0.0392
     48 H           8.4197    2.5934    2.5799 H       1  UNL1        0.2201
     49 H           5.8058    5.1553    0.3200 H       1  UNL1        0.2201
     50 H           8.8277    1.5130   -0.0987 H       1  UNL1        0.0626
     51 H           8.2946   -0.6653   -1.1810 H       1  UNL1        0.0618
     52 H           5.9897   -1.3672   -1.4570 H       1  UNL1        0.0624
     53 H           4.1749   -2.0218   -0.4492 H       1  UNL1        0.0624
     54 H           1.7921   -2.6641   -0.6909 H       1  UNL1        0.0620
     55 H          -0.7850   -0.2582   -1.7580 H       1  UNL1        0.0340
     56 H          -0.4376   -1.9175   -1.9119 H       1  UNL1        0.0340
     57 H          -2.1903   -0.1600    1.6698 H       1  UNL1        0.0340
     58 H          -0.7506    0.5727    0.9485 H       1  UNL1        0.0340
     59 H          -1.1672    1.9926   -1.2601 H       1  UNL1        0.0620
     60 H          -2.6514    3.5858   -2.2010 H       1  UNL1        0.0622
     61 H          -7.7500    4.9069    0.8568 H       1  UNL1        0.2199
     62 H          -5.0687    4.4614    1.6402 H       1  UNL1        0.2199
     63 H          -5.8164    2.0202    0.0758 H       1  UNL1        0.0622
     64 H          -4.3079    0.3889    1.0816 H       1  UNL1        0.0620
     65 H          -2.2209   -3.5537    1.3060 H       1  UNL1        0.0621
     66 H          -1.3196   -4.6916    3.2120 H       1  UNL1        0.0618
     67 H           0.6909   -3.7678    4.3156 H       1  UNL1        0.0618
     68 H           1.7652   -1.7155    3.4326 H       1  UNL1        0.0618
     69 H           0.8552   -0.5598    1.5003 H       1  UNL1        0.0621
     70 H          -5.0834   -4.9496   -2.2999 H       1  UNL1        0.0640
     71 H          -3.2888   -6.6245   -2.7075 H       1  UNL1        0.0618
     72 H          -0.9477   -6.0638   -2.0197 H       1  UNL1        0.0618
     73 H          -0.5359   -3.9551   -0.9776 H       1  UNL1        0.0639
     74 H           0.8257    1.4166   -1.1532 H       1  UNL1        0.0620
     75 H           3.1207    1.9934   -0.9100 H       1  UNL1        0.0624
     76 H           4.7132    2.2817    0.4303 H       1  UNL1        0.0632
@<TRIPOS>BOND
     1     1     2    2
     2     2     3    1
     3     2     4    1
     4     2     5    1
     5     5     6   ar
     6     6     7   ar
     7     7     8   ar
     8     8     9   ar
     9     9    10    1
    10    10    11   ar
    11    11    12   ar
    12    12    13   ar
    13    13    14    1
    14    14    15    1
    15    15    16    1
    16    16    17    1
    17    17    18   ar
    18    18    19   ar
    19    19    20   ar
    20    20    21    1
    21    21    22    1
    22    21    23    1
    23    21    24    1
    24    24    25    2
    25    24    26    1
    26    24    27    1
    27    20    28   ar
    28    28    29   ar
    29    15    30    1
    30    30    31   ar
    31    31    32   ar
    32    32    33   ar
    33    33    34   ar
    34    34    35   ar
    35    15    36    1
    36    36    37   ar
    37    37    38   ar
    38    38    39   ar
    39    39    40   ar
    40    40    41   ar
    41    41    42   ar
    42    42    43   ar
    43    43    44   ar
    44    13    45   ar
    45    45    46   ar
    46     9    47   ar
    47    47     5   ar
    48    46    10   ar
    49    29    17   ar
    50    35    30   ar
    51    44    36   ar
    52    44    39   ar
    53     3    48    1
    54     4    49    1
    55     6    50    1
    56     7    51    1
    57     8    52    1
    58    11    53    1
    59    12    54    1
    60    14    55    1
    61    14    56    1
    62    16    57    1
    63    16    58    1
    64    18    59    1
    65    19    60    1
    66    26    61    1
    67    27    62    1
    68    28    63    1
    69    29    64    1
    70    31    65    1
    71    32    66    1
    72    33    67    1
    73    34    68    1
    74    35    69    1
    75    40    70    1
    76    41    71    1
    77    42    72    1
    78    43    73    1
    79    45    74    1
    80    46    75    1
    81    47    76    1
