
     RDKit          3D

 76 81  0  0  0  0  0  0  0  0999 V2000
    8.2558    4.2954    0.2451 O   0  0  0  0  0  0  0  0  0  0  0  0
    7.1801    3.5735    1.0073 P   0  0  0  0  0  5  0  0  0  0  0  0
    7.6502    3.2268    2.5951 O   0  0  0  0  0  0  0  0  0  0  0  0
    5.8025    4.5521    1.0903 O   0  0  0  0  0  0  0  0  0  0  0  0
    6.8092    2.0153    0.2244 C   0  0  0  0  0  0  0  0  0  0  0  0
    7.8106    1.1735   -0.2353 C   0  0  0  0  0  0  0  0  0  0  0  0
    7.5110   -0.0341   -0.8349 C   0  0  0  0  0  0  0  0  0  0  0  0
    6.1693   -0.4085   -0.9779 C   0  0  0  0  0  0  0  0  0  0  0  0
    5.1720    0.4123   -0.5292 C   0  0  0  0  0  0  0  0  0  0  0  0
    3.7779    0.0247   -0.6664 C   0  0  0  0  0  0  0  0  0  0  0  0
    3.3843   -1.3015   -0.6056 C   0  0  0  0  0  0  0  0  0  0  0  0
    2.0721   -1.6394   -0.7398 C   0  0  0  0  0  0  0  0  0  0  0  0
    1.0380   -0.6872   -0.9461 C   0  0  0  0  0  0  0  0  0  0  0  0
   -0.3309   -1.1163   -1.1029 C   0  0  0  0  0  0  0  0  0  0  0  0
   -1.2860   -1.2436    0.0040 C   0  0  0  0  0  0  0  0  0  0  0  0
   -1.7231    0.0232    0.6621 C   0  0  0  0  0  0  0  0  0  0  0  0
   -2.5294    1.0023   -0.0175 C   0  0  0  0  0  0  0  0  0  0  0  0
   -2.1592    1.9348   -0.9271 C   0  0  0  0  0  0  0  0  0  0  0  0
   -3.0222    2.8791   -1.4845 C   0  0  0  0  0  0  0  0  0  0  0  0
   -4.3288    2.9115   -1.1281 C   0  0  0  0  0  0  0  0  0  0  0  0
   -5.2665    3.9055   -1.7050 C   0  0  0  0  0  0  0  0  0  0  0  0
   -6.2652    3.2797   -2.4174 F   0  0  0  0  0  0  0  0  0  0  0  0
   -4.5559    4.7343   -2.5772 F   0  0  0  0  0  0  0  0  0  0  0  0
   -5.9047    4.9651   -0.3919 P   0  0  0  0  0  5  0  0  0  0  0  0
   -6.1643    6.3775   -0.9084 O   0  0  0  0  0  0  0  0  0  0  0  0
   -7.3993    4.3277    0.1069 O   0  0  0  0  0  0  0  0  0  0  0  0
   -4.8405    5.0926    0.8986 O   0  0  0  0  0  0  0  0  0  0  0  0
   -4.7581    1.9887   -0.2086 C   0  0  0  0  0  0  0  0  0  0  0  0
   -3.9105    1.0658    0.3359 C   0  0  0  0  0  0  0  0  0  0  0  0
   -0.7610   -2.0018    1.2144 C   0  0  0  0  0  0  0  0  0  0  0  0
   -1.3356   -3.1275    1.7164 C   0  0  0  0  0  0  0  0  0  0  0  0
   -0.8290   -3.7892    2.8408 C   0  0  0  0  0  0  0  0  0  0  0  0
    0.2887   -3.2544    3.4346 C   0  0  0  0  0  0  0  0  0  0  0  0
    0.8695   -2.1238    2.9375 C   0  0  0  0  0  0  0  0  0  0  0  0
    0.3478   -1.4811    1.8162 C   0  0  0  0  0  0  0  0  0  0  0  0
   -2.4892   -1.9571   -0.4899 N   0  0  0  0  0  0  0  0  0  0  0  0
   -3.7359   -1.5758   -0.5535 N   0  0  0  0  0  0  0  0  0  0  0  0
   -4.5231   -2.4477   -1.0859 N   0  0  0  0  0  0  0  0  0  0  0  0
   -3.8042   -3.5231   -1.4274 C   0  0  0  0  0  0  0  0  0  0  0  0
   -4.0649   -4.7391   -2.0156 C   0  0  0  0  0  0  0  0  0  0  0  0
   -3.0662   -5.6766   -2.2447 C   0  0  0  0  0  0  0  0  0  0  0  0
   -1.7768   -5.3750   -1.8692 C   0  0  0  0  0  0  0  0  0  0  0  0
   -1.5475   -4.1492   -1.2821 C   0  0  0  0  0  0  0  0  0  0  0  0
   -2.4969   -3.2111   -1.0450 C   0  0  0  0  0  0  0  0  0  0  0  0
    1.4906    0.5894   -0.9960 C   0  0  0  0  0  0  0  0  0  0  0  0
    2.8152    0.9570   -0.8625 C   0  0  0  0  0  0  0  0  0  0  0  0
    5.4759    1.6089    0.0649 C   0  0  0  0  0  0  0  0  0  0  0  0
    8.4197    2.5934    2.5799 H   0  0  0  0  0  0  0  0  0  0  0  0
    5.8058    5.1553    0.3200 H   0  0  0  0  0  0  0  0  0  0  0  0
    8.8277    1.5130   -0.0987 H   0  0  0  0  0  0  0  0  0  0  0  0
    8.2946   -0.6653   -1.1810 H   0  0  0  0  0  0  0  0  0  0  0  0
    5.9897   -1.3672   -1.4570 H   0  0  0  0  0  0  0  0  0  0  0  0
    4.1749   -2.0218   -0.4492 H   0  0  0  0  0  0  0  0  0  0  0  0
    1.7921   -2.6641   -0.6909 H   0  0  0  0  0  0  0  0  0  0  0  0
   -0.7850   -0.2582   -1.7580 H   0  0  0  0  0  0  0  0  0  0  0  0
   -0.4376   -1.9175   -1.9119 H   0  0  0  0  0  0  0  0  0  0  0  0
   -2.1903   -0.1600    1.6698 H   0  0  0  0  0  0  0  0  0  0  0  0
   -0.7506    0.5727    0.9485 H   0  0  0  0  0  0  0  0  0  0  0  0
   -1.1672    1.9926   -1.2601 H   0  0  0  0  0  0  0  0  0  0  0  0
   -2.6514    3.5858   -2.2010 H   0  0  0  0  0  0  0  0  0  0  0  0
   -7.7500    4.9069    0.8568 H   0  0  0  0  0  0  0  0  0  0  0  0
   -5.0687    4.4614    1.6402 H   0  0  0  0  0  0  0  0  0  0  0  0
   -5.8164    2.0202    0.0758 H   0  0  0  0  0  0  0  0  0  0  0  0
   -4.3079    0.3889    1.0816 H   0  0  0  0  0  0  0  0  0  0  0  0
   -2.2209   -3.5537    1.3060 H   0  0  0  0  0  0  0  0  0  0  0  0
   -1.3196   -4.6916    3.2120 H   0  0  0  0  0  0  0  0  0  0  0  0
    0.6909   -3.7678    4.3156 H   0  0  0  0  0  0  0  0  0  0  0  0
    1.7652   -1.7155    3.4326 H   0  0  0  0  0  0  0  0  0  0  0  0
    0.8552   -0.5598    1.5003 H   0  0  0  0  0  0  0  0  0  0  0  0
   -5.0834   -4.9496   -2.2999 H   0  0  0  0  0  0  0  0  0  0  0  0
   -3.2888   -6.6245   -2.7075 H   0  0  0  0  0  0  0  0  0  0  0  0
   -0.9477   -6.0638   -2.0197 H   0  0  0  0  0  0  0  0  0  0  0  0
   -0.5359   -3.9551   -0.9776 H   0  0  0  0  0  0  0  0  0  0  0  0
    0.8257    1.4166   -1.1532 H   0  0  0  0  0  0  0  0  0  0  0  0
    3.1207    1.9934   -0.9100 H   0  0  0  0  0  0  0  0  0  0  0  0
    4.7132    2.2817    0.4303 H   0  0  0  0  0  0  0  0  0  0  0  0
  1  2  2  0
  2  3  1  0
  2  4  1  0
  2  5  1  0
  5  6  2  0
  6  7  1  0
  7  8  2  0
  8  9  1  0
  9 10  1  0
 10 11  2  0
 11 12  1  0
 12 13  2  0
 13 14  1  0
 14 15  1  0
 15 16  1  0
 16 17  1  0
 17 18  2  0
 18 19  1  0
 19 20  2  0
 20 21  1  0
 21 22  1  0
 21 23  1  0
 21 24  1  0
 24 25  2  0
 24 26  1  0
 24 27  1  0
 20 28  1  0
 28 29  2  0
 15 30  1  0
 30 31  2  0
 31 32  1  0
 32 33  2  0
 33 34  1  0
 34 35  2  0
 15 36  1  0
 36 37  1  0
 37 38  2  0
 38 39  1  0
 39 40  2  0
 40 41  1  0
 41 42  2  0
 42 43  1  0
 43 44  2  0
 13 45  1  0
 45 46  2  0
  9 47  2  0
 47  5  1  0
 46 10  1  0
 29 17  1  0
 35 30  1  0
 44 36  1  0
 44 39  1  0
  3 48  1  0
  4 49  1  0
  6 50  1  0
  7 51  1  0
  8 52  1  0
 11 53  1  0
 12 54  1  0
 14 55  1  0
 14 56  1  0
 16 57  1  0
 16 58  1  0
 18 59  1  0
 19 60  1  0
 26 61  1  0
 27 62  1  0
 28 63  1  0
 29 64  1  0
 31 65  1  0
 32 66  1  0
 33 67  1  0
 34 68  1  0
 35 69  1  0
 40 70  1  0
 41 71  1  0
 42 72  1  0
 43 73  1  0
 45 74  1  0
 46 75  1  0
 47 76  1  0
M  END
$$$$
