@<TRIPOS>MOLECULE
*****
 55 58 0 0 0
SMALL
GASTEIGER

@<TRIPOS>ATOM
      1 C          -2.3824    2.4956    1.5030 C.3     1  UNL1       -0.0229
      2 C          -3.3569    1.3595    1.1594 C.3     1  UNL1        0.1321
      3 C          -4.7569    1.8050    1.1759 C.3     1  UNL1       -0.0229
      4 O          -3.0022    0.3226    2.0657 O.3     1  UNL1       -0.4420
      5 C          -1.7345   -0.1034    1.5967 C.2     1  UNL1        0.4043
      6 O          -0.9171   -0.7703    2.2415 O.2     1  UNL1       -0.2262
      7 N          -1.5436    0.3624    0.2455 N.am    1  UNL1       -0.2535
      8 C          -0.3863    0.4535   -0.5493 C.3     1  UNL1        0.0299
      9 C           0.6751    1.4024   -0.0537 C.3     1  UNL1       -0.0336
     10 C           1.6671    0.8180    0.8877 C.3     1  UNL1       -0.0445
     11 C           2.2612   -0.4838    0.3967 C.3     1  UNL1       -0.0143
     12 C           3.7437   -0.4535    0.3708 C.ar    1  UNL1       -0.0248
     13 C           4.4827   -1.3927    1.0480 C.ar    1  UNL1        0.0332
     14 N           5.8291   -1.3400    1.0066 N.ar    1  UNL1       -0.2391
     15 C           6.5230   -0.4159    0.3368 C.ar    1  UNL1        0.1336
     16 N           7.9402   -0.3969    0.3196 N.pl3   1  UNL1       -0.3421
     17 C           5.7964    0.5500   -0.3598 C.ar    1  UNL1        0.0914
     18 C           6.5506    1.5327   -1.0719 C.1     1  UNL1        0.1026
     19 N           7.1486    2.3441   -1.6542 N.1     1  UNL1       -0.1908
     20 C           4.4174    0.5177   -0.3332 C.ar    1  UNL1       -0.0361
     21 C           1.7256   -0.7714   -0.9918 C.3     1  UNL1       -0.0445
     22 C           0.2174   -0.9059   -0.8514 C.3     1  UNL1       -0.0336
     23 C          -2.9243    0.7523   -0.1283 C.3     1  UNL1        0.0938
     24 C          -3.6772   -0.3943   -0.6169 C.ar    1  UNL1       -0.0231
     25 C          -3.2305   -1.0287   -1.7867 C.ar    1  UNL1       -0.0567
     26 C          -3.8614   -2.1322   -2.3093 C.ar    1  UNL1       -0.0614
     27 C          -4.9708   -2.6743   -1.7075 C.ar    1  UNL1       -0.0617
     28 C          -5.4326   -2.0764   -0.5610 C.ar    1  UNL1       -0.0614
     29 C          -4.7867   -0.9677   -0.0482 C.ar    1  UNL1       -0.0567
     30 H          -2.0357    2.9740    0.5549 H       1  UNL1        0.0269
     31 H          -1.4729    2.1161    2.0100 H       1  UNL1        0.0269
     32 H          -2.8641    3.2193    2.1836 H       1  UNL1        0.0269
     33 H          -4.7438    2.9395    1.2998 H       1  UNL1        0.0269
     34 H          -5.3893    1.4540    2.0156 H       1  UNL1        0.0269
     35 H          -5.3011    1.6815    0.2072 H       1  UNL1        0.0269
     36 H          -0.6921    0.8695   -1.5581 H       1  UNL1        0.0502
     37 H           0.2638    2.3163    0.3721 H       1  UNL1        0.0283
     38 H           1.2771    1.7496   -0.9490 H       1  UNL1        0.0283
     39 H           1.3654    0.6995    1.9235 H       1  UNL1        0.0272
     40 H           2.5329    1.5464    0.9160 H       1  UNL1        0.0272
     41 H           1.9567   -1.3416    1.0288 H       1  UNL1        0.0349
     42 H           4.0210   -2.1954    1.6297 H       1  UNL1        0.0833
     43 H           8.4635   -0.0311    1.1398 H       1  UNL1        0.1437
     44 H           8.4585   -0.7570   -0.5328 H       1  UNL1        0.1437
     45 H           3.8998    1.2941   -0.8931 H       1  UNL1        0.0635
     46 H           2.1047   -1.7605   -1.3347 H       1  UNL1        0.0272
     47 H           2.0198   -0.0113   -1.7145 H       1  UNL1        0.0272
     48 H           0.0058   -1.6116   -0.0238 H       1  UNL1        0.0283
     49 H          -0.1406   -1.3146   -1.8166 H       1  UNL1        0.0283
     50 H          -2.8954    1.5441   -0.9025 H       1  UNL1        0.0591
     51 H          -2.3666   -0.6403   -2.3021 H       1  UNL1        0.0621
     52 H          -3.5107   -2.6259   -3.2227 H       1  UNL1        0.0618
     53 H          -5.4645   -3.5422   -2.1218 H       1  UNL1        0.0618
     54 H          -6.3076   -2.5071   -0.0898 H       1  UNL1        0.0618
     55 H          -5.1994   -0.5732    0.8499 H       1  UNL1        0.0621
@<TRIPOS>BOND
     1     1     2    1
     2     2     3    1
     3     2     4    1
     4     4     5    1
     5     5     6    2
     6     5     7   am
     7     7     8    1
     8     8     9    1
     9     9    10    1
    10    10    11    1
    11    11    12    1
    12    12    13   ar
    13    13    14   ar
    14    14    15   ar
    15    15    16    1
    16    15    17   ar
    17    17    18    1
    18    18    19    3
    19    17    20   ar
    20    11    21    1
    21    21    22    1
    22     7    23    1
    23    23    24    1
    24    24    25   ar
    25    25    26   ar
    26    26    27   ar
    27    27    28   ar
    28    28    29   ar
    29    23     2    1
    30    29    24   ar
    31    22     8    1
    32    20    12   ar
    33     1    30    1
    34     1    31    1
    35     1    32    1
    36     3    33    1
    37     3    34    1
    38     3    35    1
    39     8    36    1
    40     9    37    1
    41     9    38    1
    42    10    39    1
    43    10    40    1
    44    11    41    1
    45    13    42    1
    46    16    43    1
    47    16    44    1
    48    20    45    1
    49    21    46    1
    50    21    47    1
    51    22    48    1
    52    22    49    1
    53    23    50    1
    54    25    51    1
    55    26    52    1
    56    27    53    1
    57    28    54    1
    58    29    55    1
