
     RDKit          3D

 40 43  0  0  0  0  0  0  0  0999 V2000
    1.6466    2.0700    1.3091 N   0  0  0  0  0  0  0  0  0  0  0  0
    1.6024    0.8806    0.5257 C   0  0  0  0  0  0  0  0  0  0  0  0
    0.4500    0.2907    0.1576 N   0  0  0  0  0  0  0  0  0  0  0  0
    0.4661   -0.8321   -0.5830 C   0  0  0  0  0  0  0  0  0  0  0  0
   -0.7595   -1.4645   -0.9777 N   0  0  0  0  0  0  0  0  0  0  0  0
   -1.9743   -0.8087   -0.5233 C   0  0  0  0  0  0  0  0  0  0  0  0
   -3.2329   -1.5217   -0.9706 C   0  0  0  0  0  0  0  0  0  0  0  0
   -4.4520   -0.8027   -0.4745 C   0  0  0  0  0  0  0  0  0  0  0  0
   -5.0113    0.1906   -1.2772 C   0  0  0  0  0  0  0  0  0  0  0  0
   -6.1262    0.9309   -0.9519 C   0  0  0  0  0  0  0  0  0  0  0  0
   -6.7269    0.6621    0.2604 C   0  0  0  0  0  0  0  0  0  0  0  0
   -7.8466    1.4094    0.5811 O   0  0  0  0  0  0  0  0  0  0  0  0
   -6.2064   -0.3067    1.0766 C   0  0  0  0  0  0  0  0  0  0  0  0
   -5.0842   -1.0383    0.7281 C   0  0  0  0  0  0  0  0  0  0  0  0
    1.6578   -1.3285   -0.9320 N   0  0  0  0  0  0  0  0  0  0  0  0
    2.8196   -0.7532   -0.5738 C   0  0  0  0  0  0  0  0  0  0  0  0
    4.1224   -1.0832   -0.8152 N   0  0  0  0  0  0  0  0  0  0  0  0
    4.8893   -0.1534   -0.2160 C   0  0  0  0  0  0  0  0  0  0  0  0
    4.0674    0.7355    0.3851 N   0  0  0  0  0  0  0  0  0  0  0  0
    2.7994    0.3762    0.1713 N   0  0  0  0  0  0  0  0  0  0  0  0
    6.3012    0.1689   -0.0292 C   0  0  0  0  0  0  0  0  0  0  0  0
    7.1769    0.1089    1.0372 C   0  0  0  0  0  0  0  0  0  0  0  0
    8.3809    0.5746    0.4978 C   0  0  0  0  0  0  0  0  0  0  0  0
    8.1589    0.8842   -0.8491 C   0  0  0  0  0  0  0  0  0  0  0  0
    6.9015    0.6217   -1.1050 O   0  0  0  0  0  0  0  0  0  0  0  0
    1.9497    2.8742    0.7184 H   0  0  0  0  0  0  0  0  0  0  0  0
    1.3516    1.7723    2.2775 H   0  0  0  0  0  0  0  0  0  0  0  0
   -0.6904   -2.3356   -1.5533 H   0  0  0  0  0  0  0  0  0  0  0  0
   -1.9808   -0.7678    0.5868 H   0  0  0  0  0  0  0  0  0  0  0  0
   -2.0433    0.2373   -0.9441 H   0  0  0  0  0  0  0  0  0  0  0  0
   -3.3222   -1.5560   -2.0674 H   0  0  0  0  0  0  0  0  0  0  0  0
   -3.2342   -2.5537   -0.5524 H   0  0  0  0  0  0  0  0  0  0  0  0
   -4.5341    0.3919   -2.2213 H   0  0  0  0  0  0  0  0  0  0  0  0
   -6.4836    1.6840   -1.6488 H   0  0  0  0  0  0  0  0  0  0  0  0
   -8.7924    1.0947    0.5523 H   0  0  0  0  0  0  0  0  0  0  0  0
   -6.6961   -0.4950    2.0169 H   0  0  0  0  0  0  0  0  0  0  0  0
   -4.6546   -1.8078    1.3550 H   0  0  0  0  0  0  0  0  0  0  0  0
    6.8373   -0.2400    1.9849 H   0  0  0  0  0  0  0  0  0  0  0  0
    9.2639    0.6287    1.1539 H   0  0  0  0  0  0  0  0  0  0  0  0
    9.0093    1.2615   -1.4070 H   0  0  0  0  0  0  0  0  0  0  0  0
  1  2  1  0
  2  3  2  0
  3  4  1  0
  4  5  1  0
  5  6  1  0
  6  7  1  0
  7  8  1  0
  8  9  2  0
  9 10  1  0
 10 11  2  0
 11 12  1  0
 11 13  1  0
 13 14  2  0
  4 15  2  0
 15 16  1  0
 16 17  2  0
 17 18  1  0
 18 19  2  0
 19 20  1  0
 18 21  1  0
 21 22  2  0
 22 23  1  0
 23 24  2  0
 24 25  1  0
 20  2  1  0
 25 21  1  0
 14  8  1  0
 20 16  1  0
  1 26  1  0
  1 27  1  0
  5 28  1  0
  6 29  1  0
  6 30  1  0
  7 31  1  0
  7 32  1  0
  9 33  1  0
 10 34  1  0
 12 35  1  0
 13 36  1  0
 14 37  1  0
 22 38  1  0
 23 39  1  0
 24 40  1  0
M  END
$$$$
