@<TRIPOS>MOLECULE
*****
 40 43 0 0 0
SMALL
GASTEIGER

@<TRIPOS>ATOM
      1 N           1.6466    2.0700    1.3091 N.pl3   1  UNL1       -0.3273
      2 C           1.6024    0.8806    0.5257 C.ar    1  UNL1        0.2198
      3 N           0.4500    0.2907    0.1576 N.ar    1  UNL1       -0.1812
      4 C           0.4661   -0.8321   -0.5830 C.ar    1  UNL1        0.2213
      5 N          -0.7595   -1.4645   -0.9777 N.pl3   1  UNL1       -0.3130
      6 C          -1.9743   -0.8087   -0.5233 C.3     1  UNL1        0.0158
      7 C          -3.2329   -1.5217   -0.9706 C.3     1  UNL1       -0.0120
      8 C          -4.4520   -0.8027   -0.4745 C.ar    1  UNL1       -0.0457
      9 C          -5.0113    0.1906   -1.2772 C.ar    1  UNL1       -0.0551
     10 C          -6.1262    0.9309   -0.9519 C.ar    1  UNL1       -0.0199
     11 C          -6.7269    0.6621    0.2604 C.ar    1  UNL1        0.1169
     12 O          -7.8466    1.4094    0.5811 O.3     1  UNL1       -0.5068
     13 C          -6.2064   -0.3067    1.0766 C.ar    1  UNL1       -0.0199
     14 C          -5.0842   -1.0383    0.7281 C.ar    1  UNL1       -0.0551
     15 N           1.6578   -1.3285   -0.9320 N.ar    1  UNL1       -0.1771
     16 C           2.8196   -0.7532   -0.5738 C.ar    1  UNL1        0.2593
     17 N           4.1224   -1.0832   -0.8152 N.ar    1  UNL1       -0.1861
     18 C           4.8893   -0.1534   -0.2160 C.ar    1  UNL1        0.2189
     19 N           4.0674    0.7355    0.3851 N.ar    1  UNL1       -0.1375
     20 N           2.7994    0.3762    0.1713 N.ar    1  UNL1       -0.1644
     21 C           6.3012    0.1689   -0.0292 C.ar    1  UNL1        0.1734
     22 C           7.1769    0.1089    1.0372 C.ar    1  UNL1       -0.0127
     23 C           8.3809    0.5746    0.4978 C.ar    1  UNL1       -0.0232
     24 C           8.1589    0.8842   -0.8491 C.ar    1  UNL1        0.0927
     25 O           6.9015    0.6217   -1.1050 O.2     1  UNL1       -0.4597
     26 H           1.9497    2.8742    0.7184 H       1  UNL1        0.1452
     27 H           1.3516    1.7723    2.2775 H       1  UNL1        0.1452
     28 H          -0.6904   -2.3356   -1.5533 H       1  UNL1        0.1489
     29 H          -1.9808   -0.7678    0.5868 H       1  UNL1        0.0465
     30 H          -2.0433    0.2373   -0.9441 H       1  UNL1        0.0465
     31 H          -3.3222   -1.5560   -2.0674 H       1  UNL1        0.0328
     32 H          -3.2342   -2.5537   -0.5524 H       1  UNL1        0.0328
     33 H          -4.5341    0.3919   -2.2213 H       1  UNL1        0.0621
     34 H          -6.4836    1.6840   -1.6488 H       1  UNL1        0.0654
     35 H          -8.7924    1.0947    0.5523 H       1  UNL1        0.2921
     36 H          -6.6961   -0.4950    2.0169 H       1  UNL1        0.0654
     37 H          -4.6546   -1.8078    1.3550 H       1  UNL1        0.0621
     38 H           6.8373   -0.2400    1.9849 H       1  UNL1        0.0656
     39 H           9.2639    0.6287    1.1539 H       1  UNL1        0.0649
     40 H           9.0093    1.2615   -1.4070 H       1  UNL1        0.1029
@<TRIPOS>BOND
     1     1     2    1
     2     2     3   ar
     3     3     4   ar
     4     4     5    1
     5     5     6    1
     6     6     7    1
     7     7     8    1
     8     8     9   ar
     9     9    10   ar
    10    10    11   ar
    11    11    12    1
    12    11    13   ar
    13    13    14   ar
    14     4    15   ar
    15    15    16   ar
    16    16    17   ar
    17    17    18   ar
    18    18    19   ar
    19    19    20   ar
    20    18    21    1
    21    21    22   ar
    22    22    23   ar
    23    23    24   ar
    24    24    25   ar
    25    20     2   ar
    26    25    21   ar
    27    14     8   ar
    28    20    16   ar
    29     1    26    1
    30     1    27    1
    31     5    28    1
    32     6    29    1
    33     6    30    1
    34     7    31    1
    35     7    32    1
    36     9    33    1
    37    10    34    1
    38    12    35    1
    39    13    36    1
    40    14    37    1
    41    22    38    1
    42    23    39    1
    43    24    40    1
