@<TRIPOS>MOLECULE
*****
 45 47 0 0 0
SMALL
GASTEIGER

@<TRIPOS>ATOM
      1 C          -0.1775    0.7890   -0.6915 C.3     1  UNL1        0.0867
      2 O          -0.9744    1.9379   -0.8683 O.3     1  UNL1       -0.3890
      3 C           1.2518    1.2698   -0.3698 C.3     1  UNL1        0.0213
      4 C           1.6529    0.3546    0.7427 C.3     1  UNL1        0.1422
      5 O           0.7259   -0.6369    0.8151 O.3     1  UNL1       -0.3493
      6 C          -0.5222   -0.0185    0.5015 C.3     1  UNL1        0.0997
      7 C          -1.5536   -1.0788    0.3805 C.3     1  UNL1        0.0277
      8 N          -2.8403   -0.6617    0.0973 N.3     1  UNL1       -0.2998
      9 C          -3.2576   -0.1675   -1.1419 C.3     1  UNL1       -0.0010
     10 C          -4.0775    1.0996   -0.8618 C.3     1  UNL1       -0.0402
     11 C          -5.3902    0.6339   -0.2704 C.3     1  UNL1       -0.0507
     12 C          -5.2542   -0.6234    0.5266 C.3     1  UNL1       -0.0402
     13 C          -3.8721   -0.8934    1.0601 C.3     1  UNL1       -0.0010
     14 N           2.9657   -0.1929    0.3757 N.ar    1  UNL1       -0.2737
     15 C           4.0767    0.5580    0.4395 C.ar    1  UNL1        0.0199
     16 C           5.3141    0.0577    0.0954 C.ar    1  UNL1        0.0302
     17 C           6.5913    0.8144    0.1367 C.3     1  UNL1       -0.0332
     18 C           5.3036   -1.2568   -0.3107 C.ar    1  UNL1        0.2568
     19 O           6.4250   -1.7719   -0.6411 O.2     1  UNL1       -0.2674
     20 N           4.2271   -2.0620   -0.3960 N.ar    1  UNL1       -0.2747
     21 C           3.0733   -1.4801   -0.0399 C.ar    1  UNL1        0.3313
     22 O           2.0028   -2.1376   -0.0812 O.2     1  UNL1       -0.2464
     23 H          -0.0701    0.2015   -1.6262 H       1  UNL1        0.0621
     24 H          -1.0089    2.0546   -1.8632 H       1  UNL1        0.2099
     25 H           1.9078    1.2423   -1.2581 H       1  UNL1        0.0335
     26 H           1.1521    2.2950    0.0707 H       1  UNL1        0.0335
     27 H           1.7181    0.8816    1.7248 H       1  UNL1        0.0840
     28 H          -0.7516    0.6877    1.3362 H       1  UNL1        0.0635
     29 H          -1.4871   -1.8174    1.2307 H       1  UNL1        0.0453
     30 H          -1.2071   -1.7328   -0.5025 H       1  UNL1        0.0453
     31 H          -3.9961   -0.8945   -1.6307 H       1  UNL1        0.0426
     32 H          -2.4373    0.0125   -1.8298 H       1  UNL1        0.0426
     33 H          -4.1709    1.7114   -1.7617 H       1  UNL1        0.0278
     34 H          -3.5357    1.6538   -0.0667 H       1  UNL1        0.0278
     35 H          -5.8604    1.4756    0.2790 H       1  UNL1        0.0266
     36 H          -6.0574    0.4104   -1.1277 H       1  UNL1        0.0266
     37 H          -5.5777   -1.5333   -0.0456 H       1  UNL1        0.0278
     38 H          -5.9343   -0.5524    1.3975 H       1  UNL1        0.0278
     39 H          -3.6455   -0.3154    1.9703 H       1  UNL1        0.0426
     40 H          -3.8284   -1.9716    1.3203 H       1  UNL1        0.0426
     41 H           4.0329    1.5918    0.7647 H       1  UNL1        0.0816
     42 H           7.2527    0.4521    0.9441 H       1  UNL1        0.0280
     43 H           7.1074    0.7772   -0.8628 H       1  UNL1        0.0280
     44 H           6.3927    1.8869    0.3433 H       1  UNL1        0.0280
     45 H           4.3143   -3.0503   -0.7146 H       1  UNL1        0.1734
@<TRIPOS>BOND
     1     1     2    1
     2     1     3    1
     3     3     4    1
     4     4     5    1
     5     5     6    1
     6     6     7    1
     7     7     8    1
     8     8     9    1
     9     9    10    1
    10    10    11    1
    11    11    12    1
    12    12    13    1
    13     4    14    1
    14    14    15   ar
    15    15    16   ar
    16    16    17    1
    17    16    18   ar
    18    18    19    2
    19    18    20   ar
    20    20    21   ar
    21    21    22    2
    22     6     1    1
    23    13     8    1
    24    21    14   ar
    25     1    23    1
    26     2    24    1
    27     3    25    1
    28     3    26    1
    29     4    27    1
    30     6    28    1
    31     7    29    1
    32     7    30    1
    33     9    31    1
    34     9    32    1
    35    10    33    1
    36    10    34    1
    37    11    35    1
    38    11    36    1
    39    12    37    1
    40    12    38    1
    41    13    39    1
    42    13    40    1
    43    15    41    1
    44    17    42    1
    45    17    43    1
    46    17    44    1
    47    20    45    1
