
     RDKit          3D

 76 75  0  0  0  0  0  0  0  0999 V2000
   -0.4401    0.8046   -0.2086 C   0  0  2  0  0  0  0  0  0  0  0  0
    0.7611    0.7575    0.6971 C   0  0  0  0  0  0  0  0  0  0  0  0
    1.9032    0.5307   -0.0315 O   0  0  0  0  0  0  0  0  0  0  0  0
    1.8347   -0.6806   -0.6910 C   0  0  0  0  0  0  0  0  0  0  0  0
    3.0964   -0.9793   -1.4528 C   0  0  0  0  0  0  0  0  0  0  0  0
    4.2682   -0.9921   -0.4446 C   0  0  0  0  0  0  0  0  0  0  0  0
    4.0865   -2.0321    0.5764 C   0  0  0  0  0  0  0  0  0  0  0  0
    5.0359   -2.1987    1.6957 C   0  0  0  0  0  0  0  0  0  0  0  0
    6.4431   -2.5302    1.5310 C   0  0  0  0  0  0  0  0  0  0  0  0
    7.2844   -1.5432    0.8331 C   0  0  0  0  0  0  0  0  0  0  0  0
    8.7203   -2.1197    0.8573 C   0  0  0  0  0  0  0  0  0  0  0  0
   -0.2463    1.9386   -1.1893 C   0  0  0  0  0  0  0  0  0  0  0  0
   -0.0293    3.0819   -0.4158 O   0  0  0  0  0  0  0  0  0  0  0  0
    0.1636    4.4701   -1.3728 P   0  0  0  0  0  0  0  0  0  0  0  0
    1.6649    5.1301   -1.0279 O   0  0  0  0  0  0  0  0  0  0  0  0
    0.0575    4.1513   -2.8352 O   0  0  0  0  0  0  0  0  0  0  0  0
   -1.1058    5.5176   -0.9128 O   0  0  0  0  0  0  0  0  0  0  0  0
   -0.8748    6.8219   -1.2971 C   0  0  0  0  0  0  0  0  0  0  0  0
   -2.0814    7.6208   -0.7899 C   0  0  0  0  0  0  0  0  0  0  0  0
   -1.8980    8.9897   -1.1606 N   0  0  0  0  0  0  0  0  0  0  0  0
   -1.5486    1.0745    0.6220 O   0  0  0  0  0  0  0  0  0  0  0  0
   -2.6986   -0.1727    0.5330 P   0  0  0  0  0  0  0  0  0  0  0  0
   -2.2749   -1.3437    1.6765 O   0  0  0  0  0  0  0  0  0  0  0  0
   -4.0780    0.3436    0.8713 O   0  0  0  0  0  0  0  0  0  0  0  0
   -2.7126   -0.9394   -1.0937 C   0  0  0  0  0  0  0  0  0  0  0  0
   -4.0999   -1.4988   -1.3493 C   0  0  0  0  0  0  0  0  0  0  0  0
   -4.3854   -2.5450   -0.2410 C   0  0  0  0  0  0  0  0  0  0  0  0
   -5.7455   -3.1039   -0.4785 C   0  0  0  0  0  0  0  0  0  0  0  0
   -6.1944   -4.1786    0.4427 C   0  0  0  0  0  0  0  0  0  0  0  0
   -6.2875   -3.8945    1.8837 C   0  0  0  0  0  0  0  0  0  0  0  0
   -5.0230   -3.5663    2.5926 C   0  0  0  0  0  0  0  0  0  0  0  0
   -0.6423   -0.1697   -0.6889 H   0  0  0  0  0  0  0  0  0  0  0  0
    0.8330    1.7062    1.3008 H   0  0  0  0  0  0  0  0  0  0  0  0
    0.6621   -0.0445    1.4698 H   0  0  0  0  0  0  0  0  0  0  0  0
    1.0403   -0.6315   -1.5193 H   0  0  0  0  0  0  0  0  0  0  0  0
    1.4696   -1.4473   -0.0245 H   0  0  0  0  0  0  0  0  0  0  0  0
    3.3021   -0.2559   -2.2421 H   0  0  0  0  0  0  0  0  0  0  0  0
    3.0869   -1.9907   -1.9032 H   0  0  0  0  0  0  0  0  0  0  0  0
    5.1368   -1.1731   -1.1573 H   0  0  0  0  0  0  0  0  0  0  0  0
    4.3401    0.0350   -0.0872 H   0  0  0  0  0  0  0  0  0  0  0  0
    4.0979   -3.0339    0.0015 H   0  0  0  0  0  0  0  0  0  0  0  0
    3.0112   -2.0591    0.9705 H   0  0  0  0  0  0  0  0  0  0  0  0
    4.9278   -1.2281    2.3270 H   0  0  0  0  0  0  0  0  0  0  0  0
    4.6179   -3.0010    2.4286 H   0  0  0  0  0  0  0  0  0  0  0  0
    6.8660   -2.6869    2.5830 H   0  0  0  0  0  0  0  0  0  0  0  0
    6.5033   -3.5461    1.0246 H   0  0  0  0  0  0  0  0  0  0  0  0
    7.2520   -0.5756    1.3648 H   0  0  0  0  0  0  0  0  0  0  0  0
    6.9887   -1.3803   -0.1988 H   0  0  0  0  0  0  0  0  0  0  0  0
    9.3359   -1.5334    0.1745 H   0  0  0  0  0  0  0  0  0  0  0  0
    8.6077   -3.1872    0.5949 H   0  0  0  0  0  0  0  0  0  0  0  0
    9.1183   -1.9982    1.8857 H   0  0  0  0  0  0  0  0  0  0  0  0
   -1.0646    2.0475   -1.9152 H   0  0  0  0  0  0  0  0  0  0  0  0
    0.7082    1.7303   -1.7376 H   0  0  0  0  0  0  0  0  0  0  0  0
    1.6266    5.7922   -0.2734 H   0  0  0  0  0  0  0  0  0  0  0  0
    0.0702    7.1760   -0.8632 H   0  0  0  0  0  0  0  0  0  0  0  0
   -0.8594    6.8374   -2.4009 H   0  0  0  0  0  0  0  0  0  0  0  0
   -2.9732    7.1523   -1.2539 H   0  0  0  0  0  0  0  0  0  0  0  0
   -2.1564    7.5544    0.2968 H   0  0  0  0  0  0  0  0  0  0  0  0
   -2.7214    9.5221   -0.7992 H   0  0  0  0  0  0  0  0  0  0  0  0
   -1.0037    9.3084   -0.6949 H   0  0  0  0  0  0  0  0  0  0  0  0
   -1.5761   -1.9268    1.2957 H   0  0  0  0  0  0  0  0  0  0  0  0
   -2.4479   -0.2320   -1.9039 H   0  0  0  0  0  0  0  0  0  0  0  0
   -1.9653   -1.7591   -1.1196 H   0  0  0  0  0  0  0  0  0  0  0  0
   -4.8651   -0.7046   -1.2482 H   0  0  0  0  0  0  0  0  0  0  0  0
   -4.1385   -2.0086   -2.3153 H   0  0  0  0  0  0  0  0  0  0  0  0
   -4.3012   -1.9813    0.7217 H   0  0  0  0  0  0  0  0  0  0  0  0
   -3.6268   -3.3396   -0.2895 H   0  0  0  0  0  0  0  0  0  0  0  0
   -5.7457   -3.5181   -1.5276 H   0  0  0  0  0  0  0  0  0  0  0  0
   -6.5061   -2.2758   -0.5403 H   0  0  0  0  0  0  0  0  0  0  0  0
   -5.5219   -5.0925    0.3431 H   0  0  0  0  0  0  0  0  0  0  0  0
   -7.2013   -4.5913    0.1113 H   0  0  0  0  0  0  0  0  0  0  0  0
   -6.7194   -4.8275    2.3676 H   0  0  0  0  0  0  0  0  0  0  0  0
   -7.0341   -3.0642    2.1119 H   0  0  0  0  0  0  0  0  0  0  0  0
   -5.0215   -4.1331    3.5786 H   0  0  0  0  0  0  0  0  0  0  0  0
   -4.9596   -2.5022    2.8534 H   0  0  0  0  0  0  0  0  0  0  0  0
   -4.1472   -3.8766    2.0125 H   0  0  0  0  0  0  0  0  0  0  0  0
  1  2  1  0
  2  3  1  0
  3  4  1  0
  4  5  1  0
  5  6  1  0
  6  7  1  0
  7  8  1  0
  8  9  1  0
  9 10  1  0
 10 11  1  0
  1 12  1  0
 12 13  1  0
 13 14  1  0
 14 15  1  0
 14 16  2  0
 14 17  1  0
 17 18  1  0
 18 19  1  0
 19 20  1  0
  1 21  1  0
 21 22  1  0
 22 23  1  0
 22 24  2  0
 22 25  1  0
 25 26  1  0
 26 27  1  0
 27 28  1  0
 28 29  1  0
 29 30  1  0
 30 31  1  0
  1 32  1  6
  2 33  1  0
  2 34  1  0
  4 35  1  0
  4 36  1  0
  5 37  1  0
  5 38  1  0
  6 39  1  0
  6 40  1  0
  7 41  1  0
  7 42  1  0
  8 43  1  0
  8 44  1  0
  9 45  1  0
  9 46  1  0
 10 47  1  0
 10 48  1  0
 11 49  1  0
 11 50  1  0
 11 51  1  0
 12 52  1  0
 12 53  1  0
 15 54  1  0
 18 55  1  0
 18 56  1  0
 19 57  1  0
 19 58  1  0
 20 59  1  0
 20 60  1  0
 23 61  1  0
 25 62  1  0
 25 63  1  0
 26 64  1  0
 26 65  1  0
 27 66  1  0
 27 67  1  0
 28 68  1  0
 28 69  1  0
 29 70  1  0
 29 71  1  0
 30 72  1  0
 30 73  1  0
 31 74  1  0
 31 75  1  0
 31 76  1  0
M  END
$$$$
