
     RDKit          3D

 70 74  0  0  0  0  0  0  0  0999 V2000
    7.2010   -2.1346    0.8569 O   0  0  0  0  0  0  0  0  0  0  0  0
    7.2789   -1.1866    0.0113 C   0  0  0  0  0  0  0  0  0  0  0  0
    6.1504   -0.3305   -0.0728 N   0  0  0  0  0  0  0  0  0  0  0  0
    4.9769   -0.5271    0.7591 C   0  0  0  0  0  0  0  0  0  0  0  0
    3.9843    0.5093    0.4434 C   0  0  0  0  0  0  0  0  0  0  0  0
    4.2637    1.3711   -0.4466 O   0  0  0  0  0  0  0  0  0  0  0  0
    2.7489    0.5221    1.1342 N   0  0  0  0  0  0  0  0  0  0  0  0
    2.3272   -0.3986    2.1571 C   0  0  0  0  0  0  0  0  0  0  0  0
    0.8777   -0.6487    1.7927 C   0  0  0  0  0  0  0  0  0  0  0  0
    0.4365    0.6923    1.3188 C   0  0  2  0  0  0  0  0  0  0  0  0
   -0.5165    0.7015    0.2746 N   0  0  0  0  0  0  0  0  0  0  0  0
   -1.7617    0.0747    0.5372 C   0  0  1  0  0  0  0  0  0  0  0  0
   -2.5098    0.6989    1.7010 C   0  0  0  0  0  0  0  0  0  0  0  0
   -3.9668    0.9378    1.3563 C   0  0  0  0  0  0  0  0  0  0  0  0
   -4.5893   -0.2718    0.6951 C   0  0  1  0  0  0  0  0  0  0  0  0
   -4.5969   -1.3151    1.6449 O   0  0  0  0  0  0  0  0  0  0  0  0
   -6.0059    0.0596    0.3962 C   0  0  0  0  0  0  0  0  0  0  0  0
   -6.3895    0.6288   -0.7976 C   0  0  0  0  0  0  0  0  0  0  0  0
   -7.7225    0.9089   -1.0019 C   0  0  0  0  0  0  0  0  0  0  0  0
   -8.6839    0.6386   -0.0522 C   0  0  0  0  0  0  0  0  0  0  0  0
  -10.0952    0.9307   -0.2574 C   0  0  0  0  0  0  0  0  0  0  0  0
  -10.6614    1.4816   -1.3500 N   0  0  0  0  0  0  0  0  0  0  0  0
  -11.9879    1.5951   -1.1674 C   0  0  0  0  0  0  0  0  0  0  0  0
  -12.2318    1.0907    0.0896 C   0  0  0  0  0  0  0  0  0  0  0  0
  -11.0824    0.7176    0.5716 O   0  0  0  0  0  0  0  0  0  0  0  0
   -8.2583    0.0690    1.1287 C   0  0  0  0  0  0  0  0  0  0  0  0
   -6.9511   -0.2099    1.3387 N   0  0  0  0  0  0  0  0  0  0  0  0
   -3.8187   -0.6947   -0.5042 C   0  0  0  0  0  0  0  0  0  0  0  0
   -2.6480    0.2557   -0.6830 C   0  0  0  0  0  0  0  0  0  0  0  0
    1.6751    1.4656    0.9413 C   0  0  0  0  0  0  0  0  0  0  0  0
    8.4581   -1.0043   -0.8114 C   0  0  0  0  0  0  0  0  0  0  0  0
    9.5295   -1.8878   -0.6846 C   0  0  0  0  0  0  0  0  0  0  0  0
   10.6778   -1.7663   -1.4376 C   0  0  0  0  0  0  0  0  0  0  0  0
   10.7382   -0.7173   -2.3445 C   0  0  0  0  0  0  0  0  0  0  0  0
    9.7209    0.1667   -2.5024 C   0  0  0  0  0  0  0  0  0  0  0  0
    9.8364    1.2708   -3.4865 C   0  0  0  0  0  0  0  0  0  0  0  0
    9.7179    2.4529   -2.7734 F   0  0  0  0  0  0  0  0  0  0  0  0
   11.0730    1.2132   -4.0966 F   0  0  0  0  0  0  0  0  0  0  0  0
    8.8426    1.2605   -4.4294 F   0  0  0  0  0  0  0  0  0  0  0  0
    8.5753    0.0099   -1.7217 C   0  0  0  0  0  0  0  0  0  0  0  0
    6.1753    0.4562   -0.7526 H   0  0  0  0  0  0  0  0  0  0  0  0
    5.2333   -0.5332    1.8467 H   0  0  0  0  0  0  0  0  0  0  0  0
    4.6093   -1.5627    0.5293 H   0  0  0  0  0  0  0  0  0  0  0  0
    2.4349    0.0146    3.1801 H   0  0  0  0  0  0  0  0  0  0  0  0
    2.8943   -1.3668    2.0915 H   0  0  0  0  0  0  0  0  0  0  0  0
    0.3229   -1.0143    2.6807 H   0  0  0  0  0  0  0  0  0  0  0  0
    0.8698   -1.4341    1.0274 H   0  0  0  0  0  0  0  0  0  0  0  0
   -0.0177    1.2257    2.2025 H   0  0  0  0  0  0  0  0  0  0  0  0
   -0.5120    1.4978   -0.3655 H   0  0  0  0  0  0  0  0  0  0  0  0
   -1.6777   -1.0421    0.6613 H   0  0  0  0  0  0  0  0  0  0  0  0
   -2.4927    0.0835    2.6068 H   0  0  0  0  0  0  0  0  0  0  0  0
   -2.0598    1.7002    1.8681 H   0  0  0  0  0  0  0  0  0  0  0  0
   -4.1266    1.8723    0.7814 H   0  0  0  0  0  0  0  0  0  0  0  0
   -4.4956    1.0813    2.3240 H   0  0  0  0  0  0  0  0  0  0  0  0
   -4.2050   -1.0334    2.4961 H   0  0  0  0  0  0  0  0  0  0  0  0
   -5.6267    0.8423   -1.5475 H   0  0  0  0  0  0  0  0  0  0  0  0
   -8.0022    1.3496   -1.9320 H   0  0  0  0  0  0  0  0  0  0  0  0
  -12.7339    1.9893   -1.8347 H   0  0  0  0  0  0  0  0  0  0  0  0
  -13.2201    1.0333    0.5561 H   0  0  0  0  0  0  0  0  0  0  0  0
   -8.9534   -0.1719    1.9205 H   0  0  0  0  0  0  0  0  0  0  0  0
   -3.3784   -1.7029   -0.3287 H   0  0  0  0  0  0  0  0  0  0  0  0
   -4.4202   -0.7931   -1.4285 H   0  0  0  0  0  0  0  0  0  0  0  0
   -2.0812    0.0199   -1.6205 H   0  0  0  0  0  0  0  0  0  0  0  0
   -2.9745    1.3098   -0.8026 H   0  0  0  0  0  0  0  0  0  0  0  0
    1.8254    2.3618    1.5773 H   0  0  0  0  0  0  0  0  0  0  0  0
    1.6001    1.8152   -0.1150 H   0  0  0  0  0  0  0  0  0  0  0  0
    9.4317   -2.6830    0.0318 H   0  0  0  0  0  0  0  0  0  0  0  0
   11.5173   -2.4307   -1.3615 H   0  0  0  0  0  0  0  0  0  0  0  0
   11.6526   -0.6267   -2.9390 H   0  0  0  0  0  0  0  0  0  0  0  0
    7.7983    0.7326   -1.8814 H   0  0  0  0  0  0  0  0  0  0  0  0
  1  2  2  0
  2  3  1  0
  3  4  1  0
  4  5  1  0
  5  6  2  0
  5  7  1  0
  7  8  1  0
  8  9  1  0
  9 10  1  0
 10 11  1  0
 11 12  1  0
 12 13  1  0
 13 14  1  0
 14 15  1  0
 15 16  1  1
 15 17  1  0
 17 18  2  0
 18 19  1  0
 19 20  2  0
 20 21  1  0
 21 22  2  0
 22 23  1  0
 23 24  2  0
 24 25  1  0
 20 26  1  0
 26 27  2  0
 15 28  1  0
 28 29  1  0
 10 30  1  0
  2 31  1  0
 31 32  2  0
 32 33  1  0
 33 34  2  0
 34 35  1  0
 35 36  1  0
 36 37  1  0
 36 38  1  0
 36 39  1  0
 35 40  2  0
 30  7  1  0
 40 31  1  0
 29 12  1  0
 27 17  1  0
 25 21  1  0
  3 41  1  0
  4 42  1  0
  4 43  1  0
  8 44  1  0
  8 45  1  0
  9 46  1  0
  9 47  1  0
 10 48  1  1
 11 49  1  0
 12 50  1  1
 13 51  1  0
 13 52  1  0
 14 53  1  0
 14 54  1  0
 16 55  1  0
 18 56  1  0
 19 57  1  0
 23 58  1  0
 24 59  1  0
 26 60  1  0
 28 61  1  0
 28 62  1  0
 29 63  1  0
 29 64  1  0
 30 65  1  0
 30 66  1  0
 32 67  1  0
 33 68  1  0
 34 69  1  0
 40 70  1  0
M  END
$$$$
