@<TRIPOS>MOLECULE
*****
 70 74 0 0 0
SMALL
GASTEIGER

@<TRIPOS>ATOM
      1 O           7.2010   -2.1346    0.8569 O.2     1  UNL1       -0.2702
      2 C           7.2789   -1.1866    0.0113 C.2     1  UNL1        0.2445
      3 N           6.1504   -0.3305   -0.0728 N.am    1  UNL1       -0.3027
      4 C           4.9769   -0.5271    0.7591 C.3     1  UNL1        0.0886
      5 C           3.9843    0.5093    0.4434 C.2     1  UNL1        0.2328
      6 O           4.2637    1.3711   -0.4466 O.2     1  UNL1       -0.2739
      7 N           2.7489    0.5221    1.1342 N.am    1  UNL1       -0.2987
      8 C           2.3272   -0.3986    2.1571 C.3     1  UNL1        0.0162
      9 C           0.8777   -0.6487    1.7927 C.3     1  UNL1       -0.0202
     10 C           0.4365    0.6923    1.3188 C.3     1  UNL1        0.0250
     11 N          -0.5165    0.7015    0.2746 N.3     1  UNL1       -0.3090
     12 C          -1.7617    0.0747    0.5372 C.3     1  UNL1        0.0081
     13 C          -2.5098    0.6989    1.7010 C.3     1  UNL1       -0.0346
     14 C          -3.9668    0.9378    1.3563 C.3     1  UNL1       -0.0170
     15 C          -4.5893   -0.2718    0.6951 C.3     1  UNL1        0.1077
     16 O          -4.5969   -1.3151    1.6449 O.3     1  UNL1       -0.3824
     17 C          -6.0059    0.0596    0.3962 C.ar    1  UNL1        0.0727
     18 C          -6.3895    0.6288   -0.7976 C.ar    1  UNL1       -0.0368
     19 C          -7.7225    0.9089   -1.0019 C.ar    1  UNL1       -0.0462
     20 C          -8.6839    0.6386   -0.0522 C.ar    1  UNL1        0.0550
     21 C         -10.0952    0.9307   -0.2574 C.ar    1  UNL1        0.2285
     22 N         -10.6614    1.4816   -1.3500 N.ar    1  UNL1       -0.2174
     23 C         -11.9879    1.5951   -1.1674 C.ar    1  UNL1        0.0663
     24 C         -12.2318    1.0907    0.0896 C.ar    1  UNL1        0.1125
     25 O         -11.0824    0.7176    0.5716 O.2     1  UNL1       -0.4435
     26 C          -8.2583    0.0690    1.1287 C.ar    1  UNL1        0.0402
     27 N          -6.9511   -0.2099    1.3387 N.ar    1  UNL1       -0.2562
     28 C          -3.8187   -0.6947   -0.5042 C.3     1  UNL1       -0.0170
     29 C          -2.6480    0.2557   -0.6830 C.3     1  UNL1       -0.0346
     30 C           1.6751    1.4656    0.9413 C.3     1  UNL1        0.0302
     31 C           8.4581   -1.0043   -0.8114 C.ar    1  UNL1        0.0372
     32 C           9.5295   -1.8878   -0.6846 C.ar    1  UNL1       -0.0496
     33 C          10.6778   -1.7663   -1.4376 C.ar    1  UNL1       -0.0605
     34 C          10.7382   -0.7173   -2.3445 C.ar    1  UNL1       -0.0501
     35 C           9.7209    0.1667   -2.5024 C.ar    1  UNL1        0.0555
     36 C           9.8364    1.2708   -3.4865 C.3     1  UNL1        0.4174
     37 F           9.7179    2.4529   -2.7734 F       1  UNL1       -0.1659
     38 F          11.0730    1.2132   -4.0966 F       1  UNL1       -0.1659
     39 F           8.8426    1.2605   -4.4294 F       1  UNL1       -0.1659
     40 C           8.5753    0.0099   -1.7217 C.ar    1  UNL1       -0.0380
     41 H           6.1753    0.4562   -0.7526 H       1  UNL1        0.1495
     42 H           5.2333   -0.5332    1.8467 H       1  UNL1        0.0558
     43 H           4.6093   -1.5627    0.5293 H       1  UNL1        0.0558
     44 H           2.4349    0.0146    3.1801 H       1  UNL1        0.0465
     45 H           2.8943   -1.3668    2.0915 H       1  UNL1        0.0465
     46 H           0.3229   -1.0143    2.6807 H       1  UNL1        0.0296
     47 H           0.8698   -1.4341    1.0274 H       1  UNL1        0.0296
     48 H          -0.0177    1.2257    2.2025 H       1  UNL1        0.0476
     49 H          -0.5120    1.4978   -0.3655 H       1  UNL1        0.1225
     50 H          -1.6777   -1.0421    0.6613 H       1  UNL1        0.0460
     51 H          -2.4927    0.0835    2.6068 H       1  UNL1        0.0281
     52 H          -2.0598    1.7002    1.8681 H       1  UNL1        0.0281
     53 H          -4.1266    1.8723    0.7814 H       1  UNL1        0.0297
     54 H          -4.4956    1.0813    2.3240 H       1  UNL1        0.0297
     55 H          -4.2050   -1.0334    2.4961 H       1  UNL1        0.2107
     56 H          -5.6267    0.8423   -1.5475 H       1  UNL1        0.0637
     57 H          -8.0022    1.3496   -1.9320 H       1  UNL1        0.0626
     58 H         -12.7339    1.9893   -1.8347 H       1  UNL1        0.0862
     59 H         -13.2201    1.0333    0.5561 H       1  UNL1        0.1046
     60 H          -8.9534   -0.1719    1.9205 H       1  UNL1        0.0837
     61 H          -3.3784   -1.7029   -0.3287 H       1  UNL1        0.0297
     62 H          -4.4202   -0.7931   -1.4285 H       1  UNL1        0.0297
     63 H          -2.0812    0.0199   -1.6205 H       1  UNL1        0.0281
     64 H          -2.9745    1.3098   -0.8026 H       1  UNL1        0.0281
     65 H           1.8254    2.3618    1.5773 H       1  UNL1        0.0480
     66 H           1.6001    1.8152   -0.1150 H       1  UNL1        0.0480
     67 H           9.4317   -2.6830    0.0318 H       1  UNL1        0.0625
     68 H          11.5173   -2.4307   -1.3615 H       1  UNL1        0.0618
     69 H          11.6526   -0.6267   -2.9390 H       1  UNL1        0.0623
     70 H           7.7983    0.7326   -1.8814 H       1  UNL1        0.0631
@<TRIPOS>BOND
     1     1     2    2
     2     2     3   am
     3     3     4    1
     4     4     5    1
     5     5     6    2
     6     5     7   am
     7     7     8    1
     8     8     9    1
     9     9    10    1
    10    10    11    1
    11    11    12    1
    12    12    13    1
    13    13    14    1
    14    14    15    1
    15    15    16    1
    16    15    17    1
    17    17    18   ar
    18    18    19   ar
    19    19    20   ar
    20    20    21    1
    21    21    22   ar
    22    22    23   ar
    23    23    24   ar
    24    24    25   ar
    25    20    26   ar
    26    26    27   ar
    27    15    28    1
    28    28    29    1
    29    10    30    1
    30     2    31    1
    31    31    32   ar
    32    32    33   ar
    33    33    34   ar
    34    34    35   ar
    35    35    36    1
    36    36    37    1
    37    36    38    1
    38    36    39    1
    39    35    40   ar
    40    30     7    1
    41    40    31   ar
    42    29    12    1
    43    27    17   ar
    44    25    21   ar
    45     3    41    1
    46     4    42    1
    47     4    43    1
    48     8    44    1
    49     8    45    1
    50     9    46    1
    51     9    47    1
    52    10    48    1
    53    11    49    1
    54    12    50    1
    55    13    51    1
    56    13    52    1
    57    14    53    1
    58    14    54    1
    59    16    55    1
    60    18    56    1
    61    19    57    1
    62    23    58    1
    63    24    59    1
    64    26    60    1
    65    28    61    1
    66    28    62    1
    67    29    63    1
    68    29    64    1
    69    30    65    1
    70    30    66    1
    71    32    67    1
    72    33    68    1
    73    34    69    1
    74    40    70    1
