
     RDKit          3D

 21 20  0  0  0  0  0  0  0  0999 V2000
   -2.7589    0.0562   -0.5190 O   0  0  0  0  0  0  0  0  0  0  0  0
   -2.1055   -0.3486    0.6185 C   0  0  0  0  0  0  0  0  0  0  0  0
   -2.9980   -0.6921    1.4146 O   0  0  0  0  0  0  0  0  0  0  0  0
   -0.6392   -0.3703    0.8467 C   0  0  0  0  0  0  0  0  0  0  0  0
    0.0336    0.1340   -0.3924 C   0  0  0  0  0  0  0  0  0  0  0  0
   -0.3179   -0.7064   -1.4293 O   0  0  0  0  0  0  0  0  0  0  0  0
    1.5162    0.3132   -0.2383 C   0  0  0  0  0  0  0  0  0  0  0  0
    2.2342   -0.9243    0.1057 C   0  0  0  0  0  0  0  0  0  0  0  0
    2.7160   -1.3024    1.3749 O   0  0  0  0  0  0  0  0  0  0  0  0
    2.4588   -1.7662   -0.8319 O   0  0  0  0  0  0  0  0  0  0  0  0
   -0.5273    1.4722   -0.7160 C   0  0  0  0  0  0  0  0  0  0  0  0
   -0.3003    2.4783    0.1859 O   0  0  0  0  0  0  0  0  0  0  0  0
   -1.1897    1.7992   -1.7226 O   0  0  0  0  0  0  0  0  0  0  0  0
   -3.5082   -0.3879   -0.9895 H   0  0  0  0  0  0  0  0  0  0  0  0
   -0.3627   -1.4123    1.0774 H   0  0  0  0  0  0  0  0  0  0  0  0
   -0.3689    0.3126    1.6901 H   0  0  0  0  0  0  0  0  0  0  0  0
    0.0673   -1.6145   -1.3376 H   0  0  0  0  0  0  0  0  0  0  0  0
    1.8908    0.6935   -1.1935 H   0  0  0  0  0  0  0  0  0  0  0  0
    1.6607    1.1075    0.5213 H   0  0  0  0  0  0  0  0  0  0  0  0
    2.8596   -2.2898    1.6158 H   0  0  0  0  0  0  0  0  0  0  0  0
   -0.3607    3.4480   -0.0807 H   0  0  0  0  0  0  0  0  0  0  0  0
  1  2  1  0
  2  3  2  0
  2  4  1  0
  4  5  1  0
  5  6  1  0
  5  7  1  0
  7  8  1  0
  8  9  1  0
  8 10  2  0
  5 11  1  0
 11 12  1  0
 11 13  2  0
  1 14  1  0
  4 15  1  0
  4 16  1  0
  6 17  1  0
  7 18  1  0
  7 19  1  0
  9 20  1  0
 12 21  1  0
M  END
$$$$
