@<TRIPOS>MOLECULE
*****
 53 55 0 0 0
SMALL
GASTEIGER

@<TRIPOS>ATOM
      1 O          -1.0050    0.2052    4.6616 O.2     1  UNL1       -0.2510
      2 C          -1.8812    0.5092    3.8119 C.2     1  UNL1        0.3047
      3 O          -3.1588    0.8035    4.2417 O.3     1  UNL1       -0.4806
      4 C          -1.5647    0.5560    2.3617 C.3     1  UNL1        0.0456
      5 C          -1.5075   -0.8549    1.8184 C.3     1  UNL1       -0.0319
      6 C          -1.1787   -0.8271    0.3113 C.3     1  UNL1        0.0121
      7 C          -2.2236   -0.0721   -0.4115 C.ar    1  UNL1       -0.0397
      8 C          -3.3294   -0.7360   -0.8942 C.ar    1  UNL1       -0.0575
      9 C          -4.3599   -0.0848   -1.5803 C.ar    1  UNL1       -0.0498
     10 C          -4.2998    1.2563   -1.7969 C.ar    1  UNL1        0.0548
     11 C          -5.4082    1.9171   -2.5283 C.3     1  UNL1        0.4174
     12 F          -5.7272    1.1236   -3.6298 F       1  UNL1       -0.1659
     13 F          -6.5203    1.9929   -1.7296 F       1  UNL1       -0.1659
     14 F          -5.0160    3.1394   -3.0119 F       1  UNL1       -0.1659
     15 C          -3.2001    1.9274   -1.3187 C.ar    1  UNL1       -0.0498
     16 C          -2.1637    1.2896   -0.6317 C.ar    1  UNL1       -0.0575
     17 C          -1.2165   -2.2845   -0.1048 C.3     1  UNL1       -0.0405
     18 C          -0.9070   -2.2900   -1.5844 C.3     1  UNL1       -0.0362
     19 C           0.5760   -2.0863   -1.6867 C.3     1  UNL1        0.0162
     20 N           1.0369   -1.0873   -0.7718 N.am    1  UNL1       -0.2845
     21 C           2.4648   -0.8309   -0.7737 C.2     1  UNL1        0.3065
     22 O           3.1618   -1.4893   -1.5510 O.2     1  UNL1       -0.2523
     23 N           3.0477    0.1245    0.0679 N.am    1  UNL1       -0.2693
     24 C           4.4418    0.4581    0.1483 C.ar    1  UNL1        0.0349
     25 C           5.4217   -0.1056   -0.5952 C.ar    1  UNL1       -0.0391
     26 C           6.7321    0.2665   -0.4593 C.ar    1  UNL1       -0.0416
     27 C           7.1011    1.2322    0.4433 C.ar    1  UNL1        0.0411
     28 CL          8.8038    1.6737    0.5780 Cl      1  UNL1       -0.0835
     29 C           6.1314    1.8270    1.2160 C.ar    1  UNL1       -0.0416
     30 C           4.8252    1.4461    1.0704 C.ar    1  UNL1       -0.0391
     31 C           0.2105   -0.3447    0.1181 C.3     1  UNL1        0.0258
     32 H          -3.5222    0.4660    5.1173 H       1  UNL1        0.2951
     33 H          -2.3250    1.1530    1.8170 H       1  UNL1        0.0378
     34 H          -0.5968    1.0553    2.2190 H       1  UNL1        0.0378
     35 H          -2.4603   -1.3812    1.9604 H       1  UNL1        0.0279
     36 H          -0.7048   -1.4294    2.3033 H       1  UNL1        0.0279
     37 H          -3.4751   -1.7875   -0.7789 H       1  UNL1        0.0621
     38 H          -5.2125   -0.6346   -1.9451 H       1  UNL1        0.0623
     39 H          -3.1308    2.9843   -1.4778 H       1  UNL1        0.0623
     40 H          -1.3319    1.8526   -0.2733 H       1  UNL1        0.0621
     41 H          -2.1043   -2.8289    0.1929 H       1  UNL1        0.0275
     42 H          -0.3550   -2.8318    0.3962 H       1  UNL1        0.0275
     43 H          -1.3956   -1.4537   -2.1315 H       1  UNL1        0.0281
     44 H          -1.2265   -3.2475   -2.0541 H       1  UNL1        0.0281
     45 H           1.0345   -3.0725   -1.3688 H       1  UNL1        0.0465
     46 H           0.9092   -1.8942   -2.7303 H       1  UNL1        0.0465
     47 H           2.3637    0.6405    0.6990 H       1  UNL1        0.1564
     48 H           5.2158   -0.8651   -1.3200 H       1  UNL1        0.0636
     49 H           7.5299   -0.1937   -1.0665 H       1  UNL1        0.0633
     50 H           6.4511    2.5785    1.9134 H       1  UNL1        0.0633
     51 H           4.0519    1.9206    1.6864 H       1  UNL1        0.0636
     52 H           0.2842    0.7481   -0.0854 H       1  UNL1        0.0474
     53 H           0.7133   -0.4331    1.1381 H       1  UNL1        0.0474
@<TRIPOS>BOND
     1     1     2    2
     2     2     3    1
     3     2     4    1
     4     4     5    1
     5     5     6    1
     6     6     7    1
     7     7     8   ar
     8     8     9   ar
     9     9    10   ar
    10    10    11    1
    11    11    12    1
    12    11    13    1
    13    11    14    1
    14    10    15   ar
    15    15    16   ar
    16     6    17    1
    17    17    18    1
    18    18    19    1
    19    19    20    1
    20    20    21   am
    21    21    22    2
    22    21    23   am
    23    23    24    1
    24    24    25   ar
    25    25    26   ar
    26    26    27   ar
    27    27    28    1
    28    27    29   ar
    29    29    30   ar
    30    20    31    1
    31    31     6    1
    32    16     7   ar
    33    30    24   ar
    34     3    32    1
    35     4    33    1
    36     4    34    1
    37     5    35    1
    38     5    36    1
    39     8    37    1
    40     9    38    1
    41    15    39    1
    42    16    40    1
    43    17    41    1
    44    17    42    1
    45    18    43    1
    46    18    44    1
    47    19    45    1
    48    19    46    1
    49    23    47    1
    50    25    48    1
    51    26    49    1
    52    29    50    1
    53    30    51    1
    54    31    52    1
    55    31    53    1
