@<TRIPOS>MOLECULE
*****
 36 38 0 0 0
SMALL
GASTEIGER

@<TRIPOS>ATOM
      1 C          -2.5173   -1.8853   -2.7095 C.3     1  UNL1        0.0789
      2 O          -3.0141   -1.0890   -1.6532 O.3     1  UNL1       -0.4930
      3 C          -2.1522   -0.2099   -1.0214 C.ar    1  UNL1        0.1462
      4 C          -0.8217   -0.0644   -1.3517 C.ar    1  UNL1       -0.0143
      5 C           0.0133    0.8108   -0.7097 C.ar    1  UNL1       -0.0388
      6 C           1.4694    0.9589   -1.0540 C.3     1  UNL1        0.0024
      7 C           2.3436    0.1616   -0.1619 C.ar    1  UNL1        0.0146
      8 C           2.9701    0.8717    0.8715 C.ar    1  UNL1        0.0379
      9 N           3.7437    0.2093    1.7096 N.ar    1  UNL1       -0.2227
     10 C           3.9567   -1.1044    1.6183 C.ar    1  UNL1        0.2142
     11 N           4.7971   -1.7646    2.5518 N.pl3   1  UNL1       -0.3274
     12 N           3.3443   -1.7754    0.6136 N.ar    1  UNL1       -0.1999
     13 C           2.5482   -1.1829   -0.2752 C.ar    1  UNL1        0.1247
     14 N           1.9099   -1.8777   -1.3355 N.pl3   1  UNL1       -0.3428
     15 C          -0.5264    1.5778    0.3174 C.ar    1  UNL1       -0.0488
     16 C          -1.8565    1.4476    0.6635 C.ar    1  UNL1        0.0042
     17 C          -2.3632    2.2298    1.6942 C.ar    1  UNL1       -0.0510
     18 C          -3.6820    2.1079    2.0445 C.ar    1  UNL1       -0.0430
     19 C          -4.4597    1.2042    1.3523 C.ar    1  UNL1        0.0284
     20 N          -3.9785    0.4498    0.3611 N.ar    1  UNL1       -0.2513
     21 C          -2.6853    0.5662    0.0139 C.ar    1  UNL1        0.1124
     22 H          -3.2762   -2.6767   -2.9914 H       1  UNL1        0.0660
     23 H          -1.5763   -2.4224   -2.4352 H       1  UNL1        0.0660
     24 H          -2.3080   -1.2135   -3.5696 H       1  UNL1        0.0660
     25 H          -0.4117   -0.6620   -2.1610 H       1  UNL1        0.0658
     26 H           1.6376    0.5979   -2.1006 H       1  UNL1        0.0363
     27 H           1.7654    2.0417   -1.0407 H       1  UNL1        0.0363
     28 H           2.7950    1.9611    0.9504 H       1  UNL1        0.0834
     29 H           5.7742   -2.0027    2.3267 H       1  UNL1        0.1452
     30 H           4.4138   -2.0092    3.4789 H       1  UNL1        0.1452
     31 H           1.8502   -1.4543   -2.3089 H       1  UNL1        0.1437
     32 H           1.4692   -2.8338   -1.2136 H       1  UNL1        0.1437
     33 H           0.0990    2.2797    0.8463 H       1  UNL1        0.0627
     34 H          -1.6808    2.9250    2.1954 H       1  UNL1        0.0625
     35 H          -4.0815    2.7207    2.8520 H       1  UNL1        0.0633
     36 H          -5.5093    1.1066    1.6318 H       1  UNL1        0.0830
@<TRIPOS>BOND
     1     1     2    1
     2     2     3    1
     3     3     4   ar
     4     4     5   ar
     5     5     6    1
     6     6     7    1
     7     7     8   ar
     8     8     9   ar
     9     9    10   ar
    10    10    11    1
    11    10    12   ar
    12    12    13   ar
    13    13    14    1
    14     5    15   ar
    15    15    16   ar
    16    16    17   ar
    17    17    18   ar
    18    18    19   ar
    19    19    20   ar
    20    20    21   ar
    21    21     3   ar
    22    13     7   ar
    23    21    16   ar
    24     1    22    1
    25     1    23    1
    26     1    24    1
    27     4    25    1
    28     6    26    1
    29     6    27    1
    30     8    28    1
    31    11    29    1
    32    11    30    1
    33    14    31    1
    34    14    32    1
    35    15    33    1
    36    17    34    1
    37    18    35    1
    38    19    36    1
