
     RDKit          3D

 36 38  0  0  0  0  0  0  0  0999 V2000
   -2.5173   -1.8853   -2.7095 C   0  0  0  0  0  0  0  0  0  0  0  0
   -3.0141   -1.0890   -1.6532 O   0  0  0  0  0  0  0  0  0  0  0  0
   -2.1522   -0.2099   -1.0214 C   0  0  0  0  0  0  0  0  0  0  0  0
   -0.8217   -0.0644   -1.3517 C   0  0  0  0  0  0  0  0  0  0  0  0
    0.0133    0.8108   -0.7097 C   0  0  0  0  0  0  0  0  0  0  0  0
    1.4694    0.9589   -1.0540 C   0  0  0  0  0  0  0  0  0  0  0  0
    2.3436    0.1616   -0.1619 C   0  0  0  0  0  0  0  0  0  0  0  0
    2.9701    0.8717    0.8715 C   0  0  0  0  0  0  0  0  0  0  0  0
    3.7437    0.2093    1.7096 N   0  0  0  0  0  0  0  0  0  0  0  0
    3.9567   -1.1044    1.6183 C   0  0  0  0  0  0  0  0  0  0  0  0
    4.7971   -1.7646    2.5518 N   0  0  0  0  0  0  0  0  0  0  0  0
    3.3443   -1.7754    0.6136 N   0  0  0  0  0  0  0  0  0  0  0  0
    2.5482   -1.1829   -0.2752 C   0  0  0  0  0  0  0  0  0  0  0  0
    1.9099   -1.8777   -1.3355 N   0  0  0  0  0  0  0  0  0  0  0  0
   -0.5264    1.5778    0.3174 C   0  0  0  0  0  0  0  0  0  0  0  0
   -1.8565    1.4476    0.6635 C   0  0  0  0  0  0  0  0  0  0  0  0
   -2.3632    2.2298    1.6942 C   0  0  0  0  0  0  0  0  0  0  0  0
   -3.6820    2.1079    2.0445 C   0  0  0  0  0  0  0  0  0  0  0  0
   -4.4597    1.2042    1.3523 C   0  0  0  0  0  0  0  0  0  0  0  0
   -3.9785    0.4498    0.3611 N   0  0  0  0  0  0  0  0  0  0  0  0
   -2.6853    0.5662    0.0139 C   0  0  0  0  0  0  0  0  0  0  0  0
   -3.2762   -2.6767   -2.9914 H   0  0  0  0  0  0  0  0  0  0  0  0
   -1.5763   -2.4224   -2.4352 H   0  0  0  0  0  0  0  0  0  0  0  0
   -2.3080   -1.2135   -3.5696 H   0  0  0  0  0  0  0  0  0  0  0  0
   -0.4117   -0.6620   -2.1610 H   0  0  0  0  0  0  0  0  0  0  0  0
    1.6376    0.5979   -2.1006 H   0  0  0  0  0  0  0  0  0  0  0  0
    1.7654    2.0417   -1.0407 H   0  0  0  0  0  0  0  0  0  0  0  0
    2.7950    1.9611    0.9504 H   0  0  0  0  0  0  0  0  0  0  0  0
    5.7742   -2.0027    2.3267 H   0  0  0  0  0  0  0  0  0  0  0  0
    4.4138   -2.0092    3.4789 H   0  0  0  0  0  0  0  0  0  0  0  0
    1.8502   -1.4543   -2.3089 H   0  0  0  0  0  0  0  0  0  0  0  0
    1.4692   -2.8338   -1.2136 H   0  0  0  0  0  0  0  0  0  0  0  0
    0.0990    2.2797    0.8463 H   0  0  0  0  0  0  0  0  0  0  0  0
   -1.6808    2.9250    2.1954 H   0  0  0  0  0  0  0  0  0  0  0  0
   -4.0815    2.7207    2.8520 H   0  0  0  0  0  0  0  0  0  0  0  0
   -5.5093    1.1066    1.6318 H   0  0  0  0  0  0  0  0  0  0  0  0
  1  2  1  0
  2  3  1  0
  3  4  2  0
  4  5  1  0
  5  6  1  0
  6  7  1  0
  7  8  2  0
  8  9  1  0
  9 10  2  0
 10 11  1  0
 10 12  1  0
 12 13  2  0
 13 14  1  0
  5 15  2  0
 15 16  1  0
 16 17  2  0
 17 18  1  0
 18 19  2  0
 19 20  1  0
 20 21  2  0
 21  3  1  0
 13  7  1  0
 21 16  1  0
  1 22  1  0
  1 23  1  0
  1 24  1  0
  4 25  1  0
  6 26  1  0
  6 27  1  0
  8 28  1  0
 11 29  1  0
 11 30  1  0
 14 31  1  0
 14 32  1  0
 15 33  1  0
 17 34  1  0
 18 35  1  0
 19 36  1  0
M  END
$$$$
