
     RDKit          3D

 53 56  0  0  0  0  0  0  0  0999 V2000
   -6.5465   -3.8570   -1.1237 C   0  0  0  0  0  0  0  0  0  0  0  0
   -5.1375   -3.8103   -1.0642 O   0  0  0  0  0  0  0  0  0  0  0  0
   -4.5186   -2.6114   -0.7672 C   0  0  0  0  0  0  0  0  0  0  0  0
   -3.1440   -2.4877   -0.6912 C   0  0  0  0  0  0  0  0  0  0  0  0
   -2.5343   -1.2714   -0.3905 C   0  0  0  0  0  0  0  0  0  0  0  0
   -1.0498   -1.2279   -0.3291 C   0  0  0  0  0  0  0  0  0  0  0  0
   -0.4347   -2.2969   -0.5536 O   0  0  0  0  0  0  0  0  0  0  0  0
   -0.3420   -0.0693   -0.0383 N   0  0  0  0  0  0  0  0  0  0  0  0
    1.0586    0.0784    0.0441 C   0  0  0  0  0  0  0  0  0  0  0  0
    1.9316   -0.9245   -0.1563 C   0  0  0  0  0  0  0  0  0  0  0  0
    3.3176   -0.6994   -0.0566 C   0  0  0  0  0  0  0  0  0  0  0  0
    3.8630    0.5114    0.2406 C   0  0  0  0  0  0  0  0  0  0  0  0
    5.2276    0.8232    0.3595 N   0  0  0  0  0  0  0  0  0  0  0  0
    6.2438   -0.1396    0.1736 C   0  0  0  0  0  0  0  0  0  0  0  0
    6.0592   -1.3412   -0.1089 O   0  0  0  0  0  0  0  0  0  0  0  0
    7.6699    0.2613    0.3151 C   0  0  0  0  0  0  0  0  0  0  0  0
    8.6441   -0.6618    0.1368 C   0  0  0  0  0  0  0  0  0  0  0  0
    9.9694   -0.2786    0.2708 C   0  0  0  0  0  0  0  0  0  0  0  0
   10.2591    1.0301    0.5815 C   0  0  0  0  0  0  0  0  0  0  0  0
    9.2387    1.9443    0.7562 C   0  0  0  0  0  0  0  0  0  0  0  0
    7.9611    1.5562    0.6227 N   0  0  0  0  0  0  0  0  0  0  0  0
    2.9508    1.5706    0.4526 C   0  0  0  0  0  0  0  0  0  0  0  0
    1.6108    1.3341    0.3519 C   0  0  0  0  0  0  0  0  0  0  0  0
   -3.3324   -0.1913   -0.1698 C   0  0  0  0  0  0  0  0  0  0  0  0
   -4.7179   -0.2636   -0.2343 C   0  0  0  0  0  0  0  0  0  0  0  0
   -5.5503    0.9104    0.0068 C   0  0  0  0  0  0  0  0  0  0  0  0
   -5.1970    2.0979   -0.5827 C   0  0  0  0  0  0  0  0  0  0  0  0
   -5.9564    3.2089   -0.3744 N   0  0  0  0  0  0  0  0  0  0  0  0
   -7.0572    3.1705    0.4042 C   0  0  0  0  0  0  0  0  0  0  0  0
   -7.7394    4.2248    0.5751 O   0  0  0  0  0  0  0  0  0  0  0  0
   -7.4224    2.0173    0.9920 N   0  0  0  0  0  0  0  0  0  0  0  0
   -6.6770    0.9013    0.7949 C   0  0  0  0  0  0  0  0  0  0  0  0
   -7.0361   -0.1540    1.3503 O   0  0  0  0  0  0  0  0  0  0  0  0
   -5.2654   -1.4902   -0.5353 C   0  0  0  0  0  0  0  0  0  0  0  0
   -6.9665   -3.6457   -0.1173 H   0  0  0  0  0  0  0  0  0  0  0  0
   -6.9118   -3.0653   -1.8406 H   0  0  0  0  0  0  0  0  0  0  0  0
   -6.8732   -4.8428   -1.5087 H   0  0  0  0  0  0  0  0  0  0  0  0
   -2.5641   -3.3796   -0.8762 H   0  0  0  0  0  0  0  0  0  0  0  0
   -0.9248    0.8026    0.1419 H   0  0  0  0  0  0  0  0  0  0  0  0
    1.6430   -1.9244   -0.3961 H   0  0  0  0  0  0  0  0  0  0  0  0
    3.9671   -1.5411   -0.2276 H   0  0  0  0  0  0  0  0  0  0  0  0
    5.5567    1.8022    0.5959 H   0  0  0  0  0  0  0  0  0  0  0  0
    8.4527   -1.7033   -0.1091 H   0  0  0  0  0  0  0  0  0  0  0  0
   10.7847   -0.9689    0.1405 H   0  0  0  0  0  0  0  0  0  0  0  0
   11.2802    1.3602    0.6928 H   0  0  0  0  0  0  0  0  0  0  0  0
    9.4782    2.9874    1.0041 H   0  0  0  0  0  0  0  0  0  0  0  0
    3.3559    2.5569    0.6933 H   0  0  0  0  0  0  0  0  0  0  0  0
    0.9301    2.1742    0.5214 H   0  0  0  0  0  0  0  0  0  0  0  0
   -2.9012    0.7643    0.0649 H   0  0  0  0  0  0  0  0  0  0  0  0
   -4.3203    2.1453   -1.2077 H   0  0  0  0  0  0  0  0  0  0  0  0
   -5.6901    4.1288   -0.8260 H   0  0  0  0  0  0  0  0  0  0  0  0
   -8.2797    2.0362    1.5843 H   0  0  0  0  0  0  0  0  0  0  0  0
   -6.3633   -1.5514   -0.5873 H   0  0  0  0  0  0  0  0  0  0  0  0
  1  2  1  0
  2  3  1  0
  3  4  2  0
  4  5  1  0
  5  6  1  0
  6  7  2  0
  6  8  1  0
  8  9  1  0
  9 10  2  0
 10 11  1  0
 11 12  2  0
 12 13  1  0
 13 14  1  0
 14 15  2  0
 14 16  1  0
 16 17  2  0
 17 18  1  0
 18 19  2  0
 19 20  1  0
 20 21  2  0
 12 22  1  0
 22 23  2  0
  5 24  2  0
 24 25  1  0
 25 26  1  0
 26 27  2  0
 27 28  1  0
 28 29  1  0
 29 30  2  0
 29 31  1  0
 31 32  1  0
 32 33  2  0
 25 34  2  0
 34  3  1  0
 23  9  1  0
 32 26  1  0
 21 16  1  0
  1 35  1  0
  1 36  1  0
  1 37  1  0
  4 38  1  0
  8 39  1  0
 10 40  1  0
 11 41  1  0
 13 42  1  0
 17 43  1  0
 18 44  1  0
 19 45  1  0
 20 46  1  0
 22 47  1  0
 23 48  1  0
 24 49  1  0
 27 50  1  0
 28 51  1  0
 31 52  1  0
 34 53  1  0
M  END
$$$$
