@<TRIPOS>MOLECULE
*****
 53 56 0 0 0
SMALL
GASTEIGER

@<TRIPOS>ATOM
      1 C          -6.5465   -3.8570   -1.1237 C.3     1  UNL1        0.0788
      2 O          -5.1375   -3.8103   -1.0642 O.3     1  UNL1       -0.4951
      3 C          -4.5186   -2.6114   -0.7672 C.ar    1  UNL1        0.1214
      4 C          -3.1440   -2.4877   -0.6912 C.ar    1  UNL1       -0.0078
      5 C          -2.5343   -1.2714   -0.3905 C.ar    1  UNL1        0.0411
      6 C          -1.0498   -1.2279   -0.3291 C.2     1  UNL1        0.2484
      7 O          -0.4347   -2.2969   -0.5536 O.2     1  UNL1       -0.2699
      8 N          -0.3420   -0.0693   -0.0383 N.am    1  UNL1       -0.2815
      9 C           1.0586    0.0784    0.0441 C.ar    1  UNL1        0.0338
     10 C           1.9316   -0.9245   -0.1563 C.ar    1  UNL1       -0.0387
     11 C           3.3176   -0.6994   -0.0566 C.ar    1  UNL1       -0.0387
     12 C           3.8630    0.5114    0.2406 C.ar    1  UNL1        0.0338
     13 N           5.2276    0.8232    0.3595 N.am    1  UNL1       -0.2802
     14 C           6.2438   -0.1396    0.1736 C.2     1  UNL1        0.2666
     15 O           6.0592   -1.3412   -0.1089 O.2     1  UNL1       -0.2682
     16 C           7.6699    0.2613    0.3151 C.ar    1  UNL1        0.1256
     17 C           8.6441   -0.6618    0.1368 C.ar    1  UNL1       -0.0312
     18 C           9.9694   -0.2786    0.2708 C.ar    1  UNL1       -0.0582
     19 C          10.2591    1.0301    0.5815 C.ar    1  UNL1       -0.0436
     20 C           9.2387    1.9443    0.7562 C.ar    1  UNL1        0.0284
     21 N           7.9611    1.5562    0.6227 N.ar    1  UNL1       -0.2504
     22 C           2.9508    1.5706    0.4526 C.ar    1  UNL1       -0.0387
     23 C           1.6108    1.3341    0.3519 C.ar    1  UNL1       -0.0387
     24 C          -3.3324   -0.1913   -0.1698 C.ar    1  UNL1       -0.0415
     25 C          -4.7179   -0.2636   -0.2343 C.ar    1  UNL1       -0.0071
     26 C          -5.5503    0.9104    0.0068 C.ar    1  UNL1        0.0627
     27 C          -5.1970    2.0979   -0.5827 C.ar    1  UNL1        0.0192
     28 N          -5.9564    3.2089   -0.3744 N.ar    1  UNL1       -0.3137
     29 C          -7.0572    3.1705    0.4042 C.ar    1  UNL1        0.3267
     30 O          -7.7394    4.2248    0.5751 O.2     1  UNL1       -0.2467
     31 N          -7.4224    2.0173    0.9920 N.ar    1  UNL1       -0.2746
     32 C          -6.6770    0.9013    0.7949 C.ar    1  UNL1        0.2617
     33 O          -7.0361   -0.1540    1.3503 O.2     1  UNL1       -0.2671
     34 C          -5.2654   -1.4902   -0.5353 C.ar    1  UNL1       -0.0120
     35 H          -6.9665   -3.6457   -0.1173 H       1  UNL1        0.0660
     36 H          -6.9118   -3.0653   -1.8406 H       1  UNL1        0.0660
     37 H          -6.8732   -4.8428   -1.5087 H       1  UNL1        0.0660
     38 H          -2.5641   -3.3796   -0.8762 H       1  UNL1        0.0662
     39 H          -0.9248    0.8026    0.1419 H       1  UNL1        0.1551
     40 H           1.6430   -1.9244   -0.3961 H       1  UNL1        0.0637
     41 H           3.9671   -1.5411   -0.2276 H       1  UNL1        0.0637
     42 H           5.5567    1.8022    0.5959 H       1  UNL1        0.1552
     43 H           8.4527   -1.7033   -0.1091 H       1  UNL1        0.0640
     44 H          10.7847   -0.9689    0.1405 H       1  UNL1        0.0619
     45 H          11.2802    1.3602    0.6928 H       1  UNL1        0.0633
     46 H           9.4782    2.9874    1.0041 H       1  UNL1        0.0830
     47 H           3.3559    2.5569    0.6933 H       1  UNL1        0.0637
     48 H           0.9301    2.1742    0.5214 H       1  UNL1        0.0637
     49 H          -2.9012    0.7643    0.0649 H       1  UNL1        0.0631
     50 H          -4.3203    2.1453   -1.2077 H       1  UNL1        0.0816
     51 H          -5.6901    4.1288   -0.8260 H       1  UNL1        0.1698
     52 H          -8.2797    2.0362    1.5843 H       1  UNL1        0.1734
     53 H          -6.3633   -1.5514   -0.5873 H       1  UNL1        0.0660
@<TRIPOS>BOND
     1     1     2    1
     2     2     3    1
     3     3     4   ar
     4     4     5   ar
     5     5     6    1
     6     6     7    2
     7     6     8   am
     8     8     9    1
     9     9    10   ar
    10    10    11   ar
    11    11    12   ar
    12    12    13    1
    13    13    14   am
    14    14    15    2
    15    14    16    1
    16    16    17   ar
    17    17    18   ar
    18    18    19   ar
    19    19    20   ar
    20    20    21   ar
    21    12    22   ar
    22    22    23   ar
    23     5    24   ar
    24    24    25   ar
    25    25    26    1
    26    26    27   ar
    27    27    28   ar
    28    28    29   ar
    29    29    30    2
    30    29    31   ar
    31    31    32   ar
    32    32    33    2
    33    25    34   ar
    34    34     3   ar
    35    23     9   ar
    36    32    26   ar
    37    21    16   ar
    38     1    35    1
    39     1    36    1
    40     1    37    1
    41     4    38    1
    42     8    39    1
    43    10    40    1
    44    11    41    1
    45    13    42    1
    46    17    43    1
    47    18    44    1
    48    19    45    1
    49    20    46    1
    50    22    47    1
    51    23    48    1
    52    24    49    1
    53    27    50    1
    54    28    51    1
    55    31    52    1
    56    34    53    1
