
     RDKit          3D

 57 61  0  0  0  0  0  0  0  0999 V2000
    4.2730    1.1948    1.2405 O   0  0  0  0  0  0  0  0  0  0  0  0
    4.2118    0.3467    0.3371 C   0  0  0  0  0  0  0  0  0  0  0  0
    2.9551   -0.0911   -0.1397 N   0  0  0  0  0  0  0  0  0  0  0  0
    1.6976    0.3464    0.3153 C   0  0  0  0  0  0  0  0  0  0  0  0
    1.4869    1.2673    1.2940 C   0  0  0  0  0  0  0  0  0  0  0  0
    0.1898    1.6303    1.6694 C   0  0  0  0  0  0  0  0  0  0  0  0
   -0.9165    1.0743    1.0679 C   0  0  0  0  0  0  0  0  0  0  0  0
   -0.7186    0.1328    0.0672 C   0  0  0  0  0  0  0  0  0  0  0  0
   -1.9022   -0.4513   -0.5648 C   0  0  0  0  0  0  0  0  0  0  0  0
   -1.8396   -1.3931   -1.5670 C   0  0  0  0  0  0  0  0  0  0  0  0
   -2.9575   -1.9191   -2.1366 N   0  0  0  0  0  0  0  0  0  0  0  0
   -3.1638   -2.8306   -3.1088 C   0  0  0  0  0  0  0  0  0  0  0  0
   -4.5161   -3.0141   -3.3158 C   0  0  0  0  0  0  0  0  0  0  0  0
   -5.1232   -2.1780   -2.4307 N   0  0  0  0  0  0  0  0  0  0  0  0
   -4.1741   -1.5225   -1.7247 C   0  0  0  0  0  0  0  0  0  0  0  0
   -4.2640   -0.5803   -0.7223 C   0  0  0  0  0  0  0  0  0  0  0  0
   -5.5511   -0.1643   -0.2903 N   0  0  0  0  0  0  0  0  0  0  0  0
   -5.6698    0.8239    0.7609 C   0  0  0  0  0  0  0  0  0  0  0  0
   -7.0772    1.1185    1.0627 C   0  0  0  0  0  0  0  0  0  0  0  0
   -7.7887    0.4095    2.0185 C   0  0  0  0  0  0  0  0  0  0  0  0
   -9.1068    0.7045    2.2834 C   0  0  0  0  0  0  0  0  0  0  0  0
   -9.7190    1.6907    1.6115 N   0  0  0  0  0  0  0  0  0  0  0  0
   -9.0683    2.4026    0.6781 C   0  0  0  0  0  0  0  0  0  0  0  0
   -7.7497    2.1226    0.3989 C   0  0  0  0  0  0  0  0  0  0  0  0
   -3.1356   -0.0715   -0.1710 N   0  0  0  0  0  0  0  0  0  0  0  0
    0.5524   -0.1968   -0.2729 C   0  0  0  0  0  0  0  0  0  0  0  0
    5.4298   -0.1573   -0.1890 N   0  0  0  0  0  0  0  0  0  0  0  0
    6.7340    0.1846    0.1861 C   0  0  0  0  0  0  0  0  0  0  0  0
    7.0674    1.0886    1.1510 C   0  0  0  0  0  0  0  0  0  0  0  0
    8.4122    1.3624    1.4540 C   0  0  0  0  0  0  0  0  0  0  0  0
    9.3931    0.7056    0.7636 C   0  0  0  0  0  0  0  0  0  0  0  0
    9.0978   -0.2099   -0.2132 C   0  0  0  0  0  0  0  0  0  0  0  0
   10.1413   -0.9283   -0.9687 C   0  0  0  0  0  0  0  0  0  0  0  0
   10.8501   -1.7387   -0.0955 F   0  0  0  0  0  0  0  0  0  0  0  0
    9.5964   -1.7195   -1.9362 F   0  0  0  0  0  0  0  0  0  0  0  0
   10.9982    0.0007   -1.5741 F   0  0  0  0  0  0  0  0  0  0  0  0
    7.7798   -0.4636   -0.4946 C   0  0  0  0  0  0  0  0  0  0  0  0
    3.0130   -0.8229   -0.9183 H   0  0  0  0  0  0  0  0  0  0  0  0
    2.2748    1.7536    1.8185 H   0  0  0  0  0  0  0  0  0  0  0  0
    0.0767    2.3651    2.4508 H   0  0  0  0  0  0  0  0  0  0  0  0
   -1.9159    1.3647    1.3686 H   0  0  0  0  0  0  0  0  0  0  0  0
   -0.9099   -1.7473   -1.9363 H   0  0  0  0  0  0  0  0  0  0  0  0
   -2.3874   -3.3446   -3.6495 H   0  0  0  0  0  0  0  0  0  0  0  0
   -5.0087   -3.6743   -4.0229 H   0  0  0  0  0  0  0  0  0  0  0  0
   -6.3988   -0.5712   -0.7307 H   0  0  0  0  0  0  0  0  0  0  0  0
   -5.1087    0.4626    1.6660 H   0  0  0  0  0  0  0  0  0  0  0  0
   -5.1780    1.7790    0.4704 H   0  0  0  0  0  0  0  0  0  0  0  0
   -7.2964   -0.3901    2.5648 H   0  0  0  0  0  0  0  0  0  0  0  0
   -9.6223    0.1275    3.0351 H   0  0  0  0  0  0  0  0  0  0  0  0
   -9.6007    3.1865    0.1628 H   0  0  0  0  0  0  0  0  0  0  0  0
   -7.2690    2.7292   -0.3662 H   0  0  0  0  0  0  0  0  0  0  0  0
    0.6923   -0.9280   -1.0502 H   0  0  0  0  0  0  0  0  0  0  0  0
    5.3170   -0.8883   -0.9682 H   0  0  0  0  0  0  0  0  0  0  0  0
    6.3088    1.6084    1.6975 H   0  0  0  0  0  0  0  0  0  0  0  0
    8.5992    2.0892    2.2291 H   0  0  0  0  0  0  0  0  0  0  0  0
   10.4288    0.9258    1.0069 H   0  0  0  0  0  0  0  0  0  0  0  0
    7.5602   -1.1927   -1.2724 H   0  0  0  0  0  0  0  0  0  0  0  0
  1  2  2  0
  2  3  1  0
  3  4  1  0
  4  5  2  0
  5  6  1  0
  6  7  2  0
  7  8  1  0
  8  9  1  0
  9 10  2  0
 10 11  1  0
 11 12  1  0
 12 13  2  0
 13 14  1  0
 14 15  2  0
 15 16  1  0
 16 17  1  0
 17 18  1  0
 18 19  1  0
 19 20  2  0
 20 21  1  0
 21 22  2  0
 22 23  1  0
 23 24  2  0
 16 25  2  0
  8 26  2  0
  2 27  1  0
 27 28  1  0
 28 29  2  0
 29 30  1  0
 30 31  2  0
 31 32  1  0
 32 33  1  0
 33 34  1  0
 33 35  1  0
 33 36  1  0
 32 37  2  0
 26  4  1  0
 37 28  1  0
 25  9  1  0
 15 11  1  0
 24 19  1  0
  3 38  1  0
  5 39  1  0
  6 40  1  0
  7 41  1  0
 10 42  1  0
 12 43  1  0
 13 44  1  0
 17 45  1  0
 18 46  1  0
 18 47  1  0
 20 48  1  0
 21 49  1  0
 23 50  1  0
 24 51  1  0
 26 52  1  0
 27 53  1  0
 29 54  1  0
 30 55  1  0
 31 56  1  0
 37 57  1  0
M  END
$$$$
