@<TRIPOS>MOLECULE
*****
 57 61 0 0 0
SMALL
GASTEIGER

@<TRIPOS>ATOM
      1 O           4.2730    1.1948    1.2405 O.2     1  UNL1       -0.2522
      2 C           4.2118    0.3467    0.3371 C.2     1  UNL1        0.3081
      3 N           2.9551   -0.0911   -0.1397 N.am    1  UNL1       -0.2692
      4 C           1.6976    0.3464    0.3153 C.ar    1  UNL1        0.0354
      5 C           1.4869    1.2673    1.2940 C.ar    1  UNL1       -0.0404
      6 C           0.1898    1.6303    1.6694 C.ar    1  UNL1       -0.0594
      7 C          -0.9165    1.0743    1.0679 C.ar    1  UNL1       -0.0524
      8 C          -0.7186    0.1328    0.0672 C.ar    1  UNL1        0.0036
      9 C          -1.9022   -0.4513   -0.5648 C.ar    1  UNL1        0.0897
     10 C          -1.8396   -1.3931   -1.5670 C.ar    1  UNL1        0.0373
     11 N          -2.9575   -1.9191   -2.1366 N.ar    1  UNL1       -0.3018
     12 C          -3.1638   -2.8306   -3.1088 C.ar    1  UNL1        0.0294
     13 C          -4.5161   -3.0141   -3.3158 C.ar    1  UNL1        0.0465
     14 N          -5.1232   -2.1780   -2.4307 N.ar    1  UNL1       -0.2330
     15 C          -4.1741   -1.5225   -1.7247 C.ar    1  UNL1        0.1780
     16 C          -4.2640   -0.5803   -0.7223 C.ar    1  UNL1        0.1629
     17 N          -5.5511   -0.1643   -0.2903 N.pl3   1  UNL1       -0.3220
     18 C          -5.6698    0.8239    0.7609 C.3     1  UNL1        0.0359
     19 C          -7.0772    1.1185    1.0627 C.ar    1  UNL1       -0.0275
     20 C          -7.7887    0.4095    2.0185 C.ar    1  UNL1       -0.0389
     21 C          -9.1068    0.7045    2.2834 C.ar    1  UNL1        0.0279
     22 N          -9.7190    1.6907    1.6115 N.ar    1  UNL1       -0.2632
     23 C          -9.0683    2.4026    0.6781 C.ar    1  UNL1        0.0279
     24 C          -7.7497    2.1226    0.3989 C.ar    1  UNL1       -0.0389
     25 N          -3.1356   -0.0715   -0.1710 N.ar    1  UNL1       -0.2270
     26 C           0.5524   -0.1968   -0.2729 C.ar    1  UNL1       -0.0312
     27 N           5.4298   -0.1573   -0.1890 N.am    1  UNL1       -0.2692
     28 C           6.7340    0.1846    0.1861 C.ar    1  UNL1        0.0353
     29 C           7.0674    1.0886    1.1510 C.ar    1  UNL1       -0.0404
     30 C           8.4122    1.3624    1.4540 C.ar    1  UNL1       -0.0595
     31 C           9.3931    0.7056    0.7636 C.ar    1  UNL1       -0.0500
     32 C           9.0978   -0.2099   -0.2132 C.ar    1  UNL1        0.0566
     33 C          10.1413   -0.9283   -0.9687 C.3     1  UNL1        0.4175
     34 F          10.8501   -1.7387   -0.0955 F       1  UNL1       -0.1659
     35 F           9.5964   -1.7195   -1.9362 F       1  UNL1       -0.1659
     36 F          10.9982    0.0007   -1.5741 F       1  UNL1       -0.1659
     37 C           7.7798   -0.4636   -0.4946 C.ar    1  UNL1       -0.0288
     38 H           3.0130   -0.8229   -0.9183 H       1  UNL1        0.1564
     39 H           2.2748    1.7536    1.8185 H       1  UNL1        0.0636
     40 H           0.0767    2.3651    2.4508 H       1  UNL1        0.0618
     41 H          -1.9159    1.3647    1.3686 H       1  UNL1        0.0624
     42 H          -0.9099   -1.7473   -1.9363 H       1  UNL1        0.0835
     43 H          -2.3874   -3.3446   -3.6495 H       1  UNL1        0.0829
     44 H          -5.0087   -3.6743   -4.0229 H       1  UNL1        0.0845
     45 H          -6.3988   -0.5712   -0.7307 H       1  UNL1        0.1479
     46 H          -5.1087    0.4626    1.6660 H       1  UNL1        0.0511
     47 H          -5.1780    1.7790    0.4704 H       1  UNL1        0.0511
     48 H          -7.2964   -0.3901    2.5648 H       1  UNL1        0.0636
     49 H          -9.6223    0.1275    3.0351 H       1  UNL1        0.0829
     50 H          -9.6007    3.1865    0.1628 H       1  UNL1        0.0829
     51 H          -7.2690    2.7292   -0.3662 H       1  UNL1        0.0636
     52 H           0.6923   -0.9280   -1.0502 H       1  UNL1        0.0643
     53 H           5.3170   -0.8883   -0.9682 H       1  UNL1        0.1564
     54 H           6.3088    1.6084    1.6975 H       1  UNL1        0.0636
     55 H           8.5992    2.0892    2.2291 H       1  UNL1        0.0618
     56 H          10.4288    0.9258    1.0069 H       1  UNL1        0.0623
     57 H           7.5602   -1.1927   -1.2724 H       1  UNL1        0.0642
@<TRIPOS>BOND
     1     1     2    2
     2     2     3   am
     3     3     4    1
     4     4     5   ar
     5     5     6   ar
     6     6     7   ar
     7     7     8   ar
     8     8     9    1
     9     9    10   ar
    10    10    11   ar
    11    11    12   ar
    12    12    13   ar
    13    13    14   ar
    14    14    15   ar
    15    15    16   ar
    16    16    17    1
    17    17    18    1
    18    18    19    1
    19    19    20   ar
    20    20    21   ar
    21    21    22   ar
    22    22    23   ar
    23    23    24   ar
    24    16    25   ar
    25     8    26   ar
    26     2    27   am
    27    27    28    1
    28    28    29   ar
    29    29    30   ar
    30    30    31   ar
    31    31    32   ar
    32    32    33    1
    33    33    34    1
    34    33    35    1
    35    33    36    1
    36    32    37   ar
    37    26     4   ar
    38    37    28   ar
    39    25     9   ar
    40    15    11   ar
    41    24    19   ar
    42     3    38    1
    43     5    39    1
    44     6    40    1
    45     7    41    1
    46    10    42    1
    47    12    43    1
    48    13    44    1
    49    17    45    1
    50    18    46    1
    51    18    47    1
    52    20    48    1
    53    21    49    1
    54    23    50    1
    55    24    51    1
    56    26    52    1
    57    27    53    1
    58    29    54    1
    59    30    55    1
    60    31    56    1
    61    37    57    1
