@<TRIPOS>MOLECULE
*****
 57 60 0 0 0
SMALL
GASTEIGER

@<TRIPOS>ATOM
      1 C           7.0567   -3.2982   -0.2844 C.3     1  UNL1        0.0788
      2 O           6.9201   -2.3838   -1.3356 O.3     1  UNL1       -0.4951
      3 C           5.8114   -1.5652   -1.5074 C.ar    1  UNL1        0.1201
      4 C           4.7628   -1.6235   -0.6169 C.ar    1  UNL1       -0.0193
      5 C           3.6836   -0.7987   -0.8176 C.ar    1  UNL1       -0.0475
      6 C           3.5709    0.0976   -1.8618 C.ar    1  UNL1        0.0226
      7 C           2.4136    0.9673   -2.0359 C.2     1  UNL1        0.1955
      8 O           2.1700    1.2930   -3.2478 O.2     1  UNL1       -0.2866
      9 C           1.5831    1.4374   -0.9617 C.ar    1  UNL1        0.0520
     10 C           0.2082    1.6801   -0.9808 C.ar    1  UNL1        0.0293
     11 C          -0.6244    1.4352   -2.1795 C.3     1  UNL1       -0.0235
     12 N          -0.2054    2.1482    0.1957 N.ar    1  UNL1       -0.3243
     13 C          -1.5380    2.5315    0.5999 C.3     1  UNL1        0.0500
     14 C          -2.3475    1.4193    1.1442 C.ar    1  UNL1       -0.0241
     15 C          -2.1139    0.9561    2.4186 C.ar    1  UNL1       -0.0539
     16 C          -2.8661   -0.0772    2.9591 C.ar    1  UNL1       -0.0225
     17 C          -3.8719   -0.6518    2.1988 C.ar    1  UNL1        0.1648
     18 F          -4.6182   -1.6726    2.7436 F       1  UNL1       -0.2017
     19 C          -4.1410   -0.2220    0.9251 C.ar    1  UNL1        0.1570
     20 O          -5.1188   -0.7361    0.1167 O.3     1  UNL1       -0.4750
     21 C          -5.9994   -1.7663    0.3279 C.3     1  UNL1        0.1932
     22 C          -7.3985   -1.1906    0.6904 C.3     1  UNL1       -0.0172
     23 C          -6.2436   -2.4570   -0.9858 C.2     1  UNL1        0.3456
     24 O          -7.0300   -3.4289   -1.0169 O.2     1  UNL1       -0.2468
     25 O          -5.6207   -2.0350   -2.1297 O.3     1  UNL1       -0.4781
     26 C          -3.3452    0.8348    0.4188 C.ar    1  UNL1       -0.0122
     27 C           0.8747    2.2360    1.0323 C.ar    1  UNL1        0.1418
     28 N           0.9482    2.6704    2.2958 N.ar    1  UNL1       -0.2373
     29 C           2.1111    2.7095    2.9504 C.ar    1  UNL1        0.0299
     30 C           3.2383    2.2913    2.2929 C.ar    1  UNL1       -0.0429
     31 C           3.1860    1.8430    1.0013 C.ar    1  UNL1       -0.0489
     32 C           1.9811    1.7937    0.3050 C.ar    1  UNL1        0.0300
     33 C           4.6396    0.1278   -2.7330 C.ar    1  UNL1       -0.0475
     34 C           5.7463   -0.6926   -2.5591 C.ar    1  UNL1       -0.0193
     35 H           6.7504   -2.7931    0.6504 H       1  UNL1        0.0660
     36 H           8.1435   -3.5879   -0.2469 H       1  UNL1        0.0660
     37 H           6.4249   -4.2002   -0.4961 H       1  UNL1        0.0660
     38 H           4.8219   -2.3227    0.2177 H       1  UNL1        0.0654
     39 H           2.8511   -0.8452   -0.1109 H       1  UNL1        0.0626
     40 H          -1.6916    1.3455   -1.9588 H       1  UNL1        0.0292
     41 H          -0.2943    0.5257   -2.7277 H       1  UNL1        0.0292
     42 H          -0.5364    2.3192   -2.8772 H       1  UNL1        0.0292
     43 H          -2.0824    2.9775   -0.2698 H       1  UNL1        0.0542
     44 H          -1.4553    3.3389    1.3855 H       1  UNL1        0.0542
     45 H          -1.3481    1.3735    3.0467 H       1  UNL1        0.0622
     46 H          -2.7168   -0.4697    3.9508 H       1  UNL1        0.0647
     47 H          -5.8062   -2.4775    1.1265 H       1  UNL1        0.0849
     48 H          -7.6370   -0.4905   -0.1348 H       1  UNL1        0.0271
     49 H          -8.1022   -2.0390    0.6710 H       1  UNL1        0.0271
     50 H          -7.3335   -0.7026    1.6745 H       1  UNL1        0.0271
     51 H          -5.8724   -2.3128   -3.0662 H       1  UNL1        0.2952
     52 H          -3.5939    1.1554   -0.5974 H       1  UNL1        0.0658
     53 H           2.1726    3.0692    3.9971 H       1  UNL1        0.0830
     54 H           4.2119    2.2978    2.7626 H       1  UNL1        0.0633
     55 H           4.0706    1.5370    0.4580 H       1  UNL1        0.0625
     56 H           4.6139    0.8122   -3.5772 H       1  UNL1        0.0626
     57 H           6.5862   -0.6697   -3.2404 H       1  UNL1        0.0654
@<TRIPOS>BOND
     1     1     2    1
     2     2     3    1
     3     3     4   ar
     4     4     5   ar
     5     5     6   ar
     6     6     7    1
     7     7     8    2
     8     7     9    1
     9     9    10   ar
    10    10    11    1
    11    10    12   ar
    12    12    13    1
    13    13    14    1
    14    14    15   ar
    15    15    16   ar
    16    16    17   ar
    17    17    18    1
    18    17    19   ar
    19    19    20    1
    20    20    21    1
    21    21    22    1
    22    21    23    1
    23    23    24    2
    24    23    25    1
    25    19    26   ar
    26    12    27   ar
    27    27    28   ar
    28    28    29   ar
    29    29    30   ar
    30    30    31   ar
    31    31    32   ar
    32     6    33   ar
    33    33    34   ar
    34    34     3   ar
    35    32     9   ar
    36    26    14   ar
    37    32    27   ar
    38     1    35    1
    39     1    36    1
    40     1    37    1
    41     4    38    1
    42     5    39    1
    43    11    40    1
    44    11    41    1
    45    11    42    1
    46    13    43    1
    47    13    44    1
    48    15    45    1
    49    16    46    1
    50    21    47    1
    51    22    48    1
    52    22    49    1
    53    22    50    1
    54    25    51    1
    55    26    52    1
    56    29    53    1
    57    30    54    1
    58    31    55    1
    59    33    56    1
    60    34    57    1
