@<TRIPOS>MOLECULE
*****
 76 80 0 0 0
SMALL
GASTEIGER

@<TRIPOS>ATOM
      1 C           9.2801   -0.6310   -3.1964 C.3     1  UNL1       -0.0306
      2 C           8.0998    0.2265   -3.6059 C.3     1  UNL1        0.0885
      3 O           7.0550    0.1731   -2.6638 O.3     1  UNL1       -0.4744
      4 C           7.2228    0.5686   -1.3393 C.ar    1  UNL1        0.2555
      5 N           8.3153    1.0417   -0.7335 N.ar    1  UNL1       -0.1315
      6 N           8.1025    1.3135    0.5359 N.ar    1  UNL1       -0.2664
      7 C           9.0234    1.8354    1.5188 C.3     1  UNL1        0.0389
      8 C           9.7186    0.6809    2.2018 C.3     1  UNL1       -0.0455
      9 C           6.8033    1.0073    0.7928 C.ar    1  UNL1        0.0506
     10 C           6.2267    0.5410   -0.3526 C.ar    1  UNL1        0.1152
     11 N           4.9025    0.1021   -0.5694 N.pl3   1  UNL1       -0.2782
     12 C           3.9343    0.0994    0.4443 C.ar    1  UNL1        0.2202
     13 N           4.1420    0.4994    1.6954 N.ar    1  UNL1       -0.2224
     14 C           3.1599    0.4701    2.6088 C.ar    1  UNL1        0.0361
     15 C           1.9016    0.0268    2.2900 C.ar    1  UNL1       -0.0062
     16 C           0.8414    0.0057    3.3129 C.3     1  UNL1       -0.0362
     17 C           1.6709   -0.3906    0.9998 C.ar    1  UNL1        0.0809
     18 C           0.3463   -0.8741    0.6117 C.ar    1  UNL1        0.0258
     19 C          -0.5023   -1.7370    1.2661 C.ar    1  UNL1        0.0120
     20 N          -1.6108   -1.8693    0.5088 N.ar    1  UNL1       -0.3586
     21 C          -1.5020   -1.1187   -0.6118 C.ar    1  UNL1        0.0686
     22 C          -2.3542   -0.9276   -1.6693 C.ar    1  UNL1        0.0576
     23 N          -3.6225   -1.5734   -1.7284 N.am    1  UNL1       -0.2825
     24 C          -4.7435   -0.9166   -1.1723 C.2     1  UNL1        0.2342
     25 O          -4.5669    0.2304   -0.6410 O.2     1  UNL1       -0.2738
     26 C          -6.1071   -1.4875   -1.1740 C.3     1  UNL1        0.0848
     27 C          -6.0424   -2.8697   -0.5886 C.3     1  UNL1       -0.0409
     28 N          -7.0513   -0.6284   -0.5674 N.3     1  UNL1       -0.2893
     29 C          -6.8355   -0.2867    0.7955 C.3     1  UNL1        0.0124
     30 C          -8.2083    0.0757    1.3829 C.3     1  UNL1        0.0114
     31 N          -8.9305    0.9476    0.4947 N.3     1  UNL1       -0.3029
     32 C          -9.5841    2.0116    1.2484 C.3     1  UNL1       -0.0127
     33 C          -8.0582    1.5664   -0.4760 C.3     1  UNL1        0.0114
     34 C          -7.4526    0.4921   -1.3549 C.3     1  UNL1        0.0124
     35 C          -1.9446   -0.0816   -2.6827 C.ar    1  UNL1       -0.0384
     36 C          -0.7247    0.5592   -2.6521 C.ar    1  UNL1       -0.0593
     37 C           0.1289    0.3615   -1.5821 C.ar    1  UNL1       -0.0518
     38 C          -0.2623   -0.4798   -0.5605 C.ar    1  UNL1        0.0107
     39 N           2.6881   -0.3408    0.1255 N.ar    1  UNL1       -0.2139
     40 H           8.9423   -1.6286   -2.8792 H       1  UNL1        0.0262
     41 H           9.9156   -0.7439   -4.1128 H       1  UNL1        0.0262
     42 H           9.8187   -0.0993   -2.3922 H       1  UNL1        0.0262
     43 H           7.7617   -0.1300   -4.5795 H       1  UNL1        0.0694
     44 H           8.4535    1.2766   -3.7415 H       1  UNL1        0.0694
     45 H           8.4479    2.4097    2.2671 H       1  UNL1        0.0506
     46 H           9.7885    2.4727    1.0143 H       1  UNL1        0.0506
     47 H          10.4341    0.2217    1.5159 H       1  UNL1        0.0247
     48 H           8.9467   -0.0813    2.4912 H       1  UNL1        0.0247
     49 H          10.2291    1.0276    3.1284 H       1  UNL1        0.0247
     50 H           6.3471    1.1305    1.7634 H       1  UNL1        0.0846
     51 H           4.6457   -0.2327   -1.5334 H       1  UNL1        0.1552
     52 H           3.3814    0.8052    3.6106 H       1  UNL1        0.0834
     53 H           1.0419    0.8186    4.0388 H       1  UNL1        0.0279
     54 H          -0.1746    0.1413    2.8501 H       1  UNL1        0.0279
     55 H           0.8764   -0.9552    3.8869 H       1  UNL1        0.0279
     56 H          -0.3106   -2.2131    2.2055 H       1  UNL1        0.0814
     57 H          -2.4426   -2.4579    0.7317 H       1  UNL1        0.1654
     58 H          -3.7576   -2.5013   -2.1595 H       1  UNL1        0.1549
     59 H          -6.3947   -1.6083   -2.2476 H       1  UNL1        0.0556
     60 H          -6.9977   -3.4317   -0.7151 H       1  UNL1        0.0249
     61 H          -5.2812   -3.4373   -1.1651 H       1  UNL1        0.0249
     62 H          -5.6947   -2.8762    0.4657 H       1  UNL1        0.0249
     63 H          -6.4902   -1.1597    1.3809 H       1  UNL1        0.0439
     64 H          -6.1985    0.5810    0.9872 H       1  UNL1        0.0439
     65 H          -8.1101    0.4654    2.4127 H       1  UNL1        0.0439
     66 H          -8.7638   -0.8907    1.4285 H       1  UNL1        0.0439
     67 H          -9.5149    2.9556    0.6877 H       1  UNL1        0.0391
     68 H          -9.0548    2.1257    2.2351 H       1  UNL1        0.0391
     69 H         -10.6597    1.7906    1.4068 H       1  UNL1        0.0391
     70 H          -8.6375    2.2988   -1.0807 H       1  UNL1        0.0439
     71 H          -7.2412    2.0793    0.0781 H       1  UNL1        0.0439
     72 H          -8.2576    0.1506   -2.0524 H       1  UNL1        0.0439
     73 H          -6.6196    0.9265   -1.9565 H       1  UNL1        0.0439
     74 H          -2.6007    0.0706   -3.5059 H       1  UNL1        0.0637
     75 H          -0.3808    1.2244   -3.4311 H       1  UNL1        0.0618
     76 H           1.0927    0.8520   -1.5323 H       1  UNL1        0.0624
@<TRIPOS>BOND
     1     1     2    1
     2     2     3    1
     3     3     4    1
     4     4     5   ar
     5     5     6   ar
     6     6     7    1
     7     7     8    1
     8     6     9   ar
     9     9    10   ar
    10    10    11    1
    11    11    12    1
    12    12    13   ar
    13    13    14   ar
    14    14    15   ar
    15    15    16    1
    16    15    17   ar
    17    17    18    1
    18    18    19   ar
    19    19    20   ar
    20    20    21   ar
    21    21    22   ar
    22    22    23    1
    23    23    24   am
    24    24    25    2
    25    24    26    1
    26    26    27    1
    27    26    28    1
    28    28    29    1
    29    29    30    1
    30    30    31    1
    31    31    32    1
    32    31    33    1
    33    33    34    1
    34    22    35   ar
    35    35    36   ar
    36    36    37   ar
    37    37    38   ar
    38    17    39   ar
    39    10     4   ar
    40    39    12   ar
    41    38    18   ar
    42    38    21   ar
    43    34    28    1
    44     1    40    1
    45     1    41    1
    46     1    42    1
    47     2    43    1
    48     2    44    1
    49     7    45    1
    50     7    46    1
    51     8    47    1
    52     8    48    1
    53     8    49    1
    54     9    50    1
    55    11    51    1
    56    14    52    1
    57    16    53    1
    58    16    54    1
    59    16    55    1
    60    19    56    1
    61    20    57    1
    62    23    58    1
    63    26    59    1
    64    27    60    1
    65    27    61    1
    66    27    62    1
    67    29    63    1
    68    29    64    1
    69    30    65    1
    70    30    66    1
    71    32    67    1
    72    32    68    1
    73    32    69    1
    74    33    70    1
    75    33    71    1
    76    34    72    1
    77    34    73    1
    78    35    74    1
    79    36    75    1
    80    37    76    1
