
     RDKit          3D

 76 80  0  0  0  0  0  0  0  0999 V2000
    9.2801   -0.6310   -3.1964 C   0  0  0  0  0  0  0  0  0  0  0  0
    8.0998    0.2265   -3.6059 C   0  0  0  0  0  0  0  0  0  0  0  0
    7.0550    0.1731   -2.6638 O   0  0  0  0  0  0  0  0  0  0  0  0
    7.2228    0.5686   -1.3393 C   0  0  0  0  0  0  0  0  0  0  0  0
    8.3153    1.0417   -0.7335 N   0  0  0  0  0  0  0  0  0  0  0  0
    8.1025    1.3135    0.5359 N   0  0  0  0  0  0  0  0  0  0  0  0
    9.0234    1.8354    1.5188 C   0  0  0  0  0  0  0  0  0  0  0  0
    9.7186    0.6809    2.2018 C   0  0  0  0  0  0  0  0  0  0  0  0
    6.8033    1.0073    0.7928 C   0  0  0  0  0  0  0  0  0  0  0  0
    6.2267    0.5410   -0.3526 C   0  0  0  0  0  0  0  0  0  0  0  0
    4.9025    0.1021   -0.5694 N   0  0  0  0  0  0  0  0  0  0  0  0
    3.9343    0.0994    0.4443 C   0  0  0  0  0  0  0  0  0  0  0  0
    4.1420    0.4994    1.6954 N   0  0  0  0  0  0  0  0  0  0  0  0
    3.1599    0.4701    2.6088 C   0  0  0  0  0  0  0  0  0  0  0  0
    1.9016    0.0268    2.2900 C   0  0  0  0  0  0  0  0  0  0  0  0
    0.8414    0.0057    3.3129 C   0  0  0  0  0  0  0  0  0  0  0  0
    1.6709   -0.3906    0.9998 C   0  0  0  0  0  0  0  0  0  0  0  0
    0.3463   -0.8741    0.6117 C   0  0  0  0  0  0  0  0  0  0  0  0
   -0.5023   -1.7370    1.2661 C   0  0  0  0  0  0  0  0  0  0  0  0
   -1.6108   -1.8693    0.5088 N   0  0  0  0  0  0  0  0  0  0  0  0
   -1.5020   -1.1187   -0.6118 C   0  0  0  0  0  0  0  0  0  0  0  0
   -2.3542   -0.9276   -1.6693 C   0  0  0  0  0  0  0  0  0  0  0  0
   -3.6225   -1.5734   -1.7284 N   0  0  0  0  0  0  0  0  0  0  0  0
   -4.7435   -0.9166   -1.1723 C   0  0  0  0  0  0  0  0  0  0  0  0
   -4.5669    0.2304   -0.6410 O   0  0  0  0  0  0  0  0  0  0  0  0
   -6.1071   -1.4875   -1.1740 C   0  0  1  0  0  0  0  0  0  0  0  0
   -6.0424   -2.8697   -0.5886 C   0  0  0  0  0  0  0  0  0  0  0  0
   -7.0513   -0.6284   -0.5674 N   0  0  0  0  0  0  0  0  0  0  0  0
   -6.8355   -0.2867    0.7955 C   0  0  0  0  0  0  0  0  0  0  0  0
   -8.2083    0.0757    1.3829 C   0  0  0  0  0  0  0  0  0  0  0  0
   -8.9305    0.9476    0.4947 N   0  0  0  0  0  0  0  0  0  0  0  0
   -9.5841    2.0116    1.2484 C   0  0  0  0  0  0  0  0  0  0  0  0
   -8.0582    1.5664   -0.4760 C   0  0  0  0  0  0  0  0  0  0  0  0
   -7.4526    0.4921   -1.3549 C   0  0  0  0  0  0  0  0  0  0  0  0
   -1.9446   -0.0816   -2.6827 C   0  0  0  0  0  0  0  0  0  0  0  0
   -0.7247    0.5592   -2.6521 C   0  0  0  0  0  0  0  0  0  0  0  0
    0.1289    0.3615   -1.5821 C   0  0  0  0  0  0  0  0  0  0  0  0
   -0.2623   -0.4798   -0.5605 C   0  0  0  0  0  0  0  0  0  0  0  0
    2.6881   -0.3408    0.1255 N   0  0  0  0  0  0  0  0  0  0  0  0
    8.9423   -1.6286   -2.8792 H   0  0  0  0  0  0  0  0  0  0  0  0
    9.9156   -0.7439   -4.1128 H   0  0  0  0  0  0  0  0  0  0  0  0
    9.8187   -0.0993   -2.3922 H   0  0  0  0  0  0  0  0  0  0  0  0
    7.7617   -0.1300   -4.5795 H   0  0  0  0  0  0  0  0  0  0  0  0
    8.4535    1.2766   -3.7415 H   0  0  0  0  0  0  0  0  0  0  0  0
    8.4479    2.4097    2.2671 H   0  0  0  0  0  0  0  0  0  0  0  0
    9.7885    2.4727    1.0143 H   0  0  0  0  0  0  0  0  0  0  0  0
   10.4341    0.2217    1.5159 H   0  0  0  0  0  0  0  0  0  0  0  0
    8.9467   -0.0813    2.4912 H   0  0  0  0  0  0  0  0  0  0  0  0
   10.2291    1.0276    3.1284 H   0  0  0  0  0  0  0  0  0  0  0  0
    6.3471    1.1305    1.7634 H   0  0  0  0  0  0  0  0  0  0  0  0
    4.6457   -0.2327   -1.5334 H   0  0  0  0  0  0  0  0  0  0  0  0
    3.3814    0.8052    3.6106 H   0  0  0  0  0  0  0  0  0  0  0  0
    1.0419    0.8186    4.0388 H   0  0  0  0  0  0  0  0  0  0  0  0
   -0.1746    0.1413    2.8501 H   0  0  0  0  0  0  0  0  0  0  0  0
    0.8764   -0.9552    3.8869 H   0  0  0  0  0  0  0  0  0  0  0  0
   -0.3106   -2.2131    2.2055 H   0  0  0  0  0  0  0  0  0  0  0  0
   -2.4426   -2.4579    0.7317 H   0  0  0  0  0  0  0  0  0  0  0  0
   -3.7576   -2.5013   -2.1595 H   0  0  0  0  0  0  0  0  0  0  0  0
   -6.3947   -1.6083   -2.2476 H   0  0  0  0  0  0  0  0  0  0  0  0
   -6.9977   -3.4317   -0.7151 H   0  0  0  0  0  0  0  0  0  0  0  0
   -5.2812   -3.4373   -1.1651 H   0  0  0  0  0  0  0  0  0  0  0  0
   -5.6947   -2.8762    0.4657 H   0  0  0  0  0  0  0  0  0  0  0  0
   -6.4902   -1.1597    1.3809 H   0  0  0  0  0  0  0  0  0  0  0  0
   -6.1985    0.5810    0.9872 H   0  0  0  0  0  0  0  0  0  0  0  0
   -8.1101    0.4654    2.4127 H   0  0  0  0  0  0  0  0  0  0  0  0
   -8.7638   -0.8907    1.4285 H   0  0  0  0  0  0  0  0  0  0  0  0
   -9.5149    2.9556    0.6877 H   0  0  0  0  0  0  0  0  0  0  0  0
   -9.0548    2.1257    2.2351 H   0  0  0  0  0  0  0  0  0  0  0  0
  -10.6597    1.7906    1.4068 H   0  0  0  0  0  0  0  0  0  0  0  0
   -8.6375    2.2988   -1.0807 H   0  0  0  0  0  0  0  0  0  0  0  0
   -7.2412    2.0793    0.0781 H   0  0  0  0  0  0  0  0  0  0  0  0
   -8.2576    0.1506   -2.0524 H   0  0  0  0  0  0  0  0  0  0  0  0
   -6.6196    0.9265   -1.9565 H   0  0  0  0  0  0  0  0  0  0  0  0
   -2.6007    0.0706   -3.5059 H   0  0  0  0  0  0  0  0  0  0  0  0
   -0.3808    1.2244   -3.4311 H   0  0  0  0  0  0  0  0  0  0  0  0
    1.0927    0.8520   -1.5323 H   0  0  0  0  0  0  0  0  0  0  0  0
  1  2  1  0
  2  3  1  0
  3  4  1  0
  4  5  2  0
  5  6  1  0
  6  7  1  0
  7  8  1  0
  6  9  1  0
  9 10  2  0
 10 11  1  0
 11 12  1  0
 12 13  2  0
 13 14  1  0
 14 15  2  0
 15 16  1  0
 15 17  1  0
 17 18  1  0
 18 19  2  0
 19 20  1  0
 20 21  1  0
 21 22  2  0
 22 23  1  0
 23 24  1  0
 24 25  2  0
 24 26  1  0
 26 27  1  0
 26 28  1  0
 28 29  1  0
 29 30  1  0
 30 31  1  0
 31 32  1  0
 31 33  1  0
 33 34  1  0
 22 35  1  0
 35 36  2  0
 36 37  1  0
 37 38  2  0
 17 39  2  0
 10  4  1  0
 39 12  1  0
 38 18  1  0
 38 21  1  0
 34 28  1  0
  1 40  1  0
  1 41  1  0
  1 42  1  0
  2 43  1  0
  2 44  1  0
  7 45  1  0
  7 46  1  0
  8 47  1  0
  8 48  1  0
  8 49  1  0
  9 50  1  0
 11 51  1  0
 14 52  1  0
 16 53  1  0
 16 54  1  0
 16 55  1  0
 19 56  1  0
 20 57  1  0
 23 58  1  0
 26 59  1  6
 27 60  1  0
 27 61  1  0
 27 62  1  0
 29 63  1  0
 29 64  1  0
 30 65  1  0
 30 66  1  0
 32 67  1  0
 32 68  1  0
 32 69  1  0
 33 70  1  0
 33 71  1  0
 34 72  1  0
 34 73  1  0
 35 74  1  0
 36 75  1  0
 37 76  1  0
M  END
$$$$
