@<TRIPOS>MOLECULE
*****
 62 66 0 0 0
SMALL
GASTEIGER

@<TRIPOS>ATOM
      1 O          -3.9045   -1.9200   -1.2818 O.2     1  UNL1       -0.2572
      2 P          -2.8427   -2.6105   -0.4790 P.3     1  UNL1        0.3448
      3 O          -3.5488   -3.6495    0.6466 O.3     1  UNL1       -0.3230
      4 O          -1.8578   -3.5820   -1.4670 O.3     1  UNL1       -0.3230
      5 C          -1.7678   -1.4051    0.3903 C.3     1  UNL1        0.1147
      6 C          -2.5699   -0.7466    1.4560 C.3     1  UNL1       -0.0009
      7 C          -3.7302   -0.0146    0.8812 C.ar    1  UNL1       -0.0447
      8 C          -3.5923    1.2960    0.4201 C.ar    1  UNL1       -0.0579
      9 C          -4.6623    1.9930   -0.0926 C.ar    1  UNL1       -0.0538
     10 C          -5.9106    1.4472   -0.1792 C.ar    1  UNL1       -0.0179
     11 C          -7.0002    2.1388   -0.6948 C.ar    1  UNL1       -0.0540
     12 C          -8.2556    1.5539   -0.7686 C.ar    1  UNL1       -0.0612
     13 C          -8.4151    0.2684   -0.3218 C.ar    1  UNL1       -0.0612
     14 C          -7.3290   -0.4129    0.1891 C.ar    1  UNL1       -0.0540
     15 C          -6.0736    0.1534    0.2698 C.ar    1  UNL1       -0.0176
     16 C          -4.9889   -0.5603    0.7924 C.ar    1  UNL1       -0.0508
     17 N          -0.5951   -2.0683    0.7521 N.3     1  UNL1       -0.2934
     18 C           0.6720   -1.4934    0.7377 C.3     1  UNL1        0.0740
     19 C           1.0880   -1.1493   -0.7186 C.3     1  UNL1       -0.0051
     20 C           2.4373   -0.5492   -0.6956 C.ar    1  UNL1       -0.0454
     21 C           2.6184    0.8095   -0.6332 C.ar    1  UNL1       -0.0579
     22 C           3.8839    1.3850   -0.6018 C.ar    1  UNL1       -0.0538
     23 C           4.9893    0.5789   -0.6341 C.ar    1  UNL1       -0.0179
     24 C           6.3246    1.1360   -0.6038 C.ar    1  UNL1       -0.0179
     25 C           6.6491    2.3574   -1.1563 C.ar    1  UNL1       -0.0540
     26 C           7.9307    2.8754   -1.1186 C.ar    1  UNL1       -0.0612
     27 C           8.9464    2.1678   -0.5122 C.ar    1  UNL1       -0.0617
     28 C           8.6328    0.9458    0.0432 C.ar    1  UNL1       -0.0612
     29 C           7.3555    0.4261    0.0074 C.ar    1  UNL1       -0.0540
     30 C           4.8367   -0.8072   -0.6980 C.ar    1  UNL1       -0.0538
     31 C           3.5605   -1.3449   -0.7276 C.ar    1  UNL1       -0.0579
     32 C           1.0025   -0.3870    1.6206 C.ar    1  UNL1        0.1660
     33 N           2.0234   -0.3483    2.5373 N.ar    1  UNL1       -0.1120
     34 N           2.0328    0.8311    3.1289 N.ar    1  UNL1       -0.0232
     35 N           1.0647    1.5498    2.6331 N.ar    1  UNL1       -0.0466
     36 N           0.4305    0.8174    1.7128 N.ar    1  UNL1       -0.2414
     37 H          -2.8219   -4.1819    1.0913 H       1  UNL1        0.2198
     38 H          -2.3195   -4.4545   -1.5917 H       1  UNL1        0.2198
     39 H          -1.5043   -0.6499   -0.4141 H       1  UNL1        0.0590
     40 H          -2.0674   -0.0958    2.1540 H       1  UNL1        0.0334
     41 H          -2.9877   -1.6070    2.0986 H       1  UNL1        0.0334
     42 H          -2.6005    1.7268    0.4901 H       1  UNL1        0.0620
     43 H          -4.5022    2.9957   -0.4328 H       1  UNL1        0.0624
     44 H          -6.8231    3.1395   -1.0301 H       1  UNL1        0.0624
     45 H          -9.0820    2.1177   -1.1745 H       1  UNL1        0.0618
     46 H          -9.3657   -0.2138   -0.3628 H       1  UNL1        0.0618
     47 H          -7.4371   -1.4322    0.5474 H       1  UNL1        0.0624
     48 H          -5.1899   -1.5494    1.1231 H       1  UNL1        0.0626
     49 H          -0.6812   -3.0542    1.0508 H       1  UNL1        0.1234
     50 H           1.4103   -2.3292    0.9928 H       1  UNL1        0.0545
     51 H           1.0561   -2.0977   -1.3031 H       1  UNL1        0.0333
     52 H           0.3676   -0.4716   -1.1815 H       1  UNL1        0.0333
     53 H           1.7648    1.4479   -0.6152 H       1  UNL1        0.0620
     54 H           4.0105    2.4673   -0.5518 H       1  UNL1        0.0624
     55 H           5.8585    2.9142   -1.6314 H       1  UNL1        0.0624
     56 H           8.1454    3.8308   -1.5602 H       1  UNL1        0.0618
     57 H           9.9556    2.5786   -0.4842 H       1  UNL1        0.0618
     58 H           9.4247    0.3870    0.5197 H       1  UNL1        0.0618
     59 H           7.1426   -0.5278    0.4485 H       1  UNL1        0.0624
     60 H           5.7265   -1.4225   -0.7227 H       1  UNL1        0.0624
     61 H           3.4593   -2.4192   -0.7771 H       1  UNL1        0.0620
     62 H          -0.3740    1.2196    1.1935 H       1  UNL1        0.1920
@<TRIPOS>BOND
     1     1     2    2
     2     2     3    1
     3     2     4    1
     4     2     5    1
     5     5     6    1
     6     6     7    1
     7     7     8   ar
     8     8     9   ar
     9     9    10   ar
    10    10    11   ar
    11    11    12   ar
    12    12    13   ar
    13    13    14   ar
    14    14    15   ar
    15    15    16   ar
    16     5    17    1
    17    17    18    1
    18    18    19    1
    19    19    20    1
    20    20    21   ar
    21    21    22   ar
    22    22    23   ar
    23    23    24    1
    24    24    25   ar
    25    25    26   ar
    26    26    27   ar
    27    27    28   ar
    28    28    29   ar
    29    23    30   ar
    30    30    31   ar
    31    18    32    1
    32    32    33   ar
    33    33    34   ar
    34    34    35   ar
    35    35    36   ar
    36    16     7   ar
    37    31    20   ar
    38    36    32   ar
    39    15    10   ar
    40    29    24   ar
    41     3    37    1
    42     4    38    1
    43     5    39    1
    44     6    40    1
    45     6    41    1
    46     8    42    1
    47     9    43    1
    48    11    44    1
    49    12    45    1
    50    13    46    1
    51    14    47    1
    52    16    48    1
    53    17    49    1
    54    18    50    1
    55    19    51    1
    56    19    52    1
    57    21    53    1
    58    22    54    1
    59    25    55    1
    60    26    56    1
    61    27    57    1
    62    28    58    1
    63    29    59    1
    64    30    60    1
    65    31    61    1
    66    36    62    1
