
     RDKit          3D

 39 42  0  0  0  0  0  0  0  0999 V2000
   -2.3162   -0.6080   -0.2390 C   0  0  1  0  0  0  0  0  0  0  0  0
   -1.4591   -1.0894    0.8848 C   0  0  0  0  0  0  0  0  0  0  0  0
   -2.3120   -2.2588    1.3966 C   0  0  0  0  0  0  0  0  0  0  0  0
   -3.6581   -1.9495    0.7758 C   0  0  0  0  0  0  0  0  0  0  0  0
   -3.6133   -0.5602    0.3835 N   0  0  0  0  0  0  0  0  0  0  0  0
   -4.1261    0.7626    0.2826 C   0  0  0  0  0  0  0  0  0  0  0  0
   -5.2546    1.0512    0.7550 O   0  0  0  0  0  0  0  0  0  0  0  0
   -3.1066    1.5309   -0.4165 C   0  0  0  0  0  0  0  0  0  0  0  0
   -2.0251    0.7363   -0.7324 C   0  0  0  0  0  0  0  0  0  0  0  0
   -0.9442    1.2570   -1.3943 C   0  0  0  0  0  0  0  0  0  0  0  0
    0.2066    0.4783   -1.7478 N   0  0  0  0  0  0  0  0  0  0  0  0
    1.2764    0.3881   -0.8479 C   0  0  0  0  0  0  0  0  0  0  0  0
    1.1552    1.0014    0.2193 O   0  0  0  0  0  0  0  0  0  0  0  0
    2.4766   -0.3188   -1.0127 N   0  0  0  0  0  0  0  0  0  0  0  0
    3.5956   -0.4612   -0.1644 C   0  0  0  0  0  0  0  0  0  0  0  0
    3.7906    0.0807    1.0819 C   0  0  0  0  0  0  0  0  0  0  0  0
    4.9021   -0.0987    1.8510 C   0  0  0  0  0  0  0  0  0  0  0  0
    5.9238   -0.8776    1.3673 C   0  0  0  0  0  0  0  0  0  0  0  0
    5.7331   -1.4244    0.1158 C   0  0  0  0  0  0  0  0  0  0  0  0
    4.6201   -1.2170   -0.6005 N   0  0  0  0  0  0  0  0  0  0  0  0
   -0.9212    2.5936   -1.7575 C   0  0  0  0  0  0  0  0  0  0  0  0
   -2.0276    3.3715   -1.4253 C   0  0  0  0  0  0  0  0  0  0  0  0
   -3.1306    2.8624   -0.7556 C   0  0  0  0  0  0  0  0  0  0  0  0
   -2.3407   -1.3807   -1.0332 H   0  0  0  0  0  0  0  0  0  0  0  0
   -1.4876   -0.3414    1.7265 H   0  0  0  0  0  0  0  0  0  0  0  0
   -0.4537   -1.4163    0.6209 H   0  0  0  0  0  0  0  0  0  0  0  0
   -1.9202   -3.1771    0.9422 H   0  0  0  0  0  0  0  0  0  0  0  0
   -2.3477   -2.2794    2.5012 H   0  0  0  0  0  0  0  0  0  0  0  0
   -3.9170   -2.5681   -0.0829 H   0  0  0  0  0  0  0  0  0  0  0  0
   -4.4030   -2.1353    1.5798 H   0  0  0  0  0  0  0  0  0  0  0  0
    0.3095   -0.0488   -2.6663 H   0  0  0  0  0  0  0  0  0  0  0  0
    2.4594   -0.7885   -1.9404 H   0  0  0  0  0  0  0  0  0  0  0  0
    3.0193    0.6918    1.4916 H   0  0  0  0  0  0  0  0  0  0  0  0
    4.9932    0.3572    2.8260 H   0  0  0  0  0  0  0  0  0  0  0  0
    6.8351   -1.0645    1.9206 H   0  0  0  0  0  0  0  0  0  0  0  0
    6.5088   -2.0544   -0.3263 H   0  0  0  0  0  0  0  0  0  0  0  0
   -0.0773    3.0257   -2.2810 H   0  0  0  0  0  0  0  0  0  0  0  0
   -1.9822    4.4278   -1.7255 H   0  0  0  0  0  0  0  0  0  0  0  0
   -3.9813    3.5015   -0.5110 H   0  0  0  0  0  0  0  0  0  0  0  0
  1  2  1  0
  2  3  1  0
  3  4  1  0
  4  5  1  0
  5  6  1  0
  6  7  2  0
  6  8  1  0
  8  9  2  0
  9 10  1  0
 10 11  1  0
 11 12  1  0
 12 13  2  0
 12 14  1  0
 14 15  1  0
 15 16  2  0
 16 17  1  0
 17 18  2  0
 18 19  1  0
 19 20  2  0
 10 21  2  0
 21 22  1  0
 22 23  2  0
  5  1  1  0
 23  8  1  0
  9  1  1  0
 20 15  1  0
  1 24  1  6
  2 25  1  0
  2 26  1  0
  3 27  1  0
  3 28  1  0
  4 29  1  0
  4 30  1  0
 11 31  1  0
 14 32  1  0
 16 33  1  0
 17 34  1  0
 18 35  1  0
 19 36  1  0
 21 37  1  0
 22 38  1  0
 23 39  1  0
M  END
$$$$
