@<TRIPOS>MOLECULE
*****
 39 42 0 0 0
SMALL
GASTEIGER

@<TRIPOS>ATOM
      1 C          -2.3162   -0.6080   -0.2390 C.3     1  UNL1        0.0540
      2 C          -1.4591   -1.0894    0.8848 C.3     1  UNL1       -0.0286
      3 C          -2.3120   -2.2588    1.3966 C.3     1  UNL1       -0.0351
      4 C          -3.6581   -1.9495    0.7758 C.3     1  UNL1        0.0157
      5 N          -3.6133   -0.5602    0.3835 N.am    1  UNL1       -0.2904
      6 C          -4.1261    0.7626    0.2826 C.2     1  UNL1        0.2475
      7 O          -5.2546    1.0512    0.7550 O.2     1  UNL1       -0.2700
      8 C          -3.1066    1.5309   -0.4165 C.ar    1  UNL1        0.0436
      9 C          -2.0251    0.7363   -0.7324 C.ar    1  UNL1        0.0063
     10 C          -0.9442    1.2570   -1.3943 C.ar    1  UNL1        0.0404
     11 N           0.2066    0.4783   -1.7478 N.am    1  UNL1       -0.2688
     12 C           1.2764    0.3881   -0.8479 C.2     1  UNL1        0.3092
     13 O           1.1552    1.0014    0.2193 O.2     1  UNL1       -0.2521
     14 N           2.4766   -0.3188   -1.0127 N.am    1  UNL1       -0.2539
     15 C           3.5956   -0.4612   -0.1644 C.ar    1  UNL1        0.1260
     16 C           3.7906    0.0807    1.0819 C.ar    1  UNL1       -0.0215
     17 C           4.9021   -0.0987    1.8510 C.ar    1  UNL1       -0.0571
     18 C           5.9238   -0.8776    1.3673 C.ar    1  UNL1       -0.0435
     19 C           5.7331   -1.4244    0.1158 C.ar    1  UNL1        0.0297
     20 N           4.6201   -1.2170   -0.6005 N.ar    1  UNL1       -0.2401
     21 C          -0.9212    2.5936   -1.7575 C.ar    1  UNL1       -0.0401
     22 C          -2.0276    3.3715   -1.4253 C.ar    1  UNL1       -0.0593
     23 C          -3.1306    2.8624   -0.7556 C.ar    1  UNL1       -0.0492
     24 H          -2.3407   -1.3807   -1.0332 H       1  UNL1        0.0551
     25 H          -1.4876   -0.3414    1.7265 H       1  UNL1        0.0287
     26 H          -0.4537   -1.4163    0.6209 H       1  UNL1        0.0287
     27 H          -1.9202   -3.1771    0.9422 H       1  UNL1        0.0281
     28 H          -2.3477   -2.2794    2.5012 H       1  UNL1        0.0281
     29 H          -3.9170   -2.5681   -0.0829 H       1  UNL1        0.0465
     30 H          -4.4030   -2.1353    1.5798 H       1  UNL1        0.0465
     31 H           0.3095   -0.0488   -2.6663 H       1  UNL1        0.1564
     32 H           2.4594   -0.7885   -1.9404 H       1  UNL1        0.1578
     33 H           3.0193    0.6918    1.4916 H       1  UNL1        0.0652
     34 H           4.9932    0.3572    2.8260 H       1  UNL1        0.0619
     35 H           6.8351   -1.0645    1.9206 H       1  UNL1        0.0633
     36 H           6.5088   -2.0544   -0.3263 H       1  UNL1        0.0830
     37 H          -0.0773    3.0257   -2.2810 H       1  UNL1        0.0636
     38 H          -1.9822    4.4278   -1.7255 H       1  UNL1        0.0618
     39 H          -3.9813    3.5015   -0.5110 H       1  UNL1        0.0625
@<TRIPOS>BOND
     1     1     2    1
     2     2     3    1
     3     3     4    1
     4     4     5    1
     5     5     6   am
     6     6     7    2
     7     6     8    1
     8     8     9   ar
     9     9    10   ar
    10    10    11    1
    11    11    12   am
    12    12    13    2
    13    12    14   am
    14    14    15    1
    15    15    16   ar
    16    16    17   ar
    17    17    18   ar
    18    18    19   ar
    19    19    20   ar
    20    10    21   ar
    21    21    22   ar
    22    22    23   ar
    23     5     1    1
    24    23     8   ar
    25     9     1    1
    26    20    15   ar
    27     1    24    1
    28     2    25    1
    29     2    26    1
    30     3    27    1
    31     3    28    1
    32     4    29    1
    33     4    30    1
    34    11    31    1
    35    14    32    1
    36    16    33    1
    37    17    34    1
    38    18    35    1
    39    19    36    1
    40    21    37    1
    41    22    38    1
    42    23    39    1
