@<TRIPOS>MOLECULE
*****
 73 77 0 0 0
SMALL
GASTEIGER

@<TRIPOS>ATOM
      1 C          -5.5891    1.3055    1.6858 C.3     1  UNL1       -0.0634
      2 C          -5.7328    1.7250    0.2442 C.3     1  UNL1       -0.0317
      3 C          -4.9532    0.7380   -0.6081 C.3     1  UNL1        0.0874
      4 C          -3.5442    0.6909   -0.2467 C.2     1  UNL1        0.2345
      5 O          -2.9872    1.7627    0.1879 O.2     1  UNL1       -0.2737
      6 N          -2.6968   -0.4356   -0.3259 N.am    1  UNL1       -0.2825
      7 C          -1.3332   -0.3667    0.0575 C.ar    1  UNL1        0.0576
      8 C          -1.0003   -0.6260    1.3602 C.ar    1  UNL1       -0.0384
      9 C           0.3260   -0.5542    1.7101 C.ar    1  UNL1       -0.0593
     10 C           1.2947   -0.2271    0.7626 C.ar    1  UNL1       -0.0518
     11 C           0.9725    0.0381   -0.5614 C.ar    1  UNL1        0.0107
     12 C           1.7248    0.3856   -1.6907 C.ar    1  UNL1        0.0258
     13 C           3.1722    0.5003   -1.6820 C.ar    1  UNL1        0.0809
     14 N           3.8543    0.0960   -0.5614 N.ar    1  UNL1       -0.2139
     15 C           5.1725    0.1680   -0.4242 C.ar    1  UNL1        0.2202
     16 N           5.8209   -0.2802    0.7792 N.pl3   1  UNL1       -0.2782
     17 C           7.2120   -0.2262    0.9755 C.ar    1  UNL1        0.1152
     18 C           8.2181    0.2279    0.1585 C.ar    1  UNL1        0.0503
     19 N           9.4190    0.0777    0.7869 N.ar    1  UNL1       -0.2692
     20 C          10.7225    0.4335    0.2672 C.3     1  UNL1        0.0304
     21 N           9.1653   -0.4503    1.9502 N.ar    1  UNL1       -0.1317
     22 C           7.8520   -0.6553    2.1186 C.ar    1  UNL1        0.2552
     23 O           7.2773   -1.1968    3.2380 O.3     1  UNL1       -0.4774
     24 C           8.0392   -1.6010    4.3512 C.3     1  UNL1        0.0805
     25 N           5.8651    0.6705   -1.4556 N.ar    1  UNL1       -0.2224
     26 C           5.2739    1.0878   -2.5831 C.ar    1  UNL1        0.0361
     27 C           3.8767    1.0124   -2.7290 C.ar    1  UNL1       -0.0062
     28 C           3.2495    1.5158   -3.9626 C.3     1  UNL1       -0.0362
     29 C           0.8053    0.5089   -2.6880 C.ar    1  UNL1        0.0120
     30 N          -0.4361    0.2518   -2.1904 N.ar    1  UNL1       -0.3586
     31 C          -0.3684   -0.0418   -0.8827 C.ar    1  UNL1        0.0686
     32 N          -5.6741   -0.4480   -0.7992 N.3     1  UNL1       -0.2891
     33 C          -6.8087   -0.3773   -1.6400 C.3     1  UNL1        0.0124
     34 C          -8.0854   -0.5965   -0.8742 C.3     1  UNL1        0.0114
     35 N          -7.9156   -1.1774    0.3931 N.3     1  UNL1       -0.3029
     36 C          -8.8191   -0.8867    1.4240 C.3     1  UNL1       -0.0127
     37 C          -6.8144   -2.0147    0.6309 C.3     1  UNL1        0.0114
     38 C          -5.5006   -1.5510    0.0425 C.3     1  UNL1        0.0124
     39 H          -5.7786    2.1498    2.3860 H       1  UNL1        0.0230
     40 H          -4.5855    0.8521    1.8599 H       1  UNL1        0.0230
     41 H          -6.3382    0.5254    1.8961 H       1  UNL1        0.0230
     42 H          -5.3138    2.7579    0.1390 H       1  UNL1        0.0282
     43 H          -6.8014    1.7267   -0.0242 H       1  UNL1        0.0282
     44 H          -4.9814    1.2353   -1.6799 H       1  UNL1        0.0558
     45 H          -3.0232   -1.3548   -0.6760 H       1  UNL1        0.1549
     46 H          -1.7643   -0.8819    2.1021 H       1  UNL1        0.0637
     47 H           0.6548   -0.7469    2.7178 H       1  UNL1        0.0618
     48 H           2.3283   -0.1818    1.0948 H       1  UNL1        0.0624
     49 H           5.2234   -0.6720    1.5616 H       1  UNL1        0.1552
     50 H           8.0986    0.6391   -0.8228 H       1  UNL1        0.0846
     51 H          11.2484    1.1388    0.9415 H       1  UNL1        0.0473
     52 H          11.3587   -0.4574    0.1156 H       1  UNL1        0.0473
     53 H          10.6372    0.9427   -0.7142 H       1  UNL1        0.0473
     54 H           8.4589   -2.6139    4.2463 H       1  UNL1        0.0660
     55 H           7.4774   -1.5215    5.3039 H       1  UNL1        0.0660
     56 H           8.9065   -0.9046    4.4308 H       1  UNL1        0.0660
     57 H           5.8100    1.4941   -3.4240 H       1  UNL1        0.0834
     58 H           2.5299    2.2911   -3.7149 H       1  UNL1        0.0279
     59 H           2.9826    0.7353   -4.6625 H       1  UNL1        0.0279
     60 H           4.0483    2.1142   -4.5520 H       1  UNL1        0.0279
     61 H           0.9645    0.7467   -3.7280 H       1  UNL1        0.0814
     62 H          -1.3262    0.2806   -2.7593 H       1  UNL1        0.1654
     63 H          -6.7867   -1.1148   -2.4845 H       1  UNL1        0.0439
     64 H          -6.8077    0.6633   -2.0911 H       1  UNL1        0.0439
     65 H          -8.8185   -1.2100   -1.4957 H       1  UNL1        0.0439
     66 H          -8.6134    0.4036   -0.7946 H       1  UNL1        0.0439
     67 H          -9.8486   -1.2017    1.1371 H       1  UNL1        0.0391
     68 H          -8.5635   -1.5368    2.3079 H       1  UNL1        0.0391
     69 H          -8.8013    0.1648    1.7894 H       1  UNL1        0.0391
     70 H          -7.0769   -3.0359    0.2195 H       1  UNL1        0.0439
     71 H          -6.6899   -2.1207    1.7382 H       1  UNL1        0.0439
     72 H          -4.7975   -1.3047    0.8704 H       1  UNL1        0.0439
     73 H          -5.0657   -2.4487   -0.4532 H       1  UNL1        0.0439
@<TRIPOS>BOND
     1     1     2    1
     2     2     3    1
     3     3     4    1
     4     4     5    2
     5     4     6   am
     6     6     7    1
     7     7     8   ar
     8     8     9   ar
     9     9    10   ar
    10    10    11   ar
    11    11    12   ar
    12    12    13    1
    13    13    14   ar
    14    14    15   ar
    15    15    16    1
    16    16    17    1
    17    17    18   ar
    18    18    19   ar
    19    19    20    1
    20    19    21   ar
    21    21    22   ar
    22    22    23    1
    23    23    24    1
    24    15    25   ar
    25    25    26   ar
    26    26    27   ar
    27    27    28    1
    28    12    29   ar
    29    29    30   ar
    30    30    31   ar
    31     3    32    1
    32    32    33    1
    33    33    34    1
    34    34    35    1
    35    35    36    1
    36    35    37    1
    37    37    38    1
    38    31     7   ar
    39    38    32    1
    40    31    11   ar
    41    27    13   ar
    42    22    17   ar
    43     1    39    1
    44     1    40    1
    45     1    41    1
    46     2    42    1
    47     2    43    1
    48     3    44    1
    49     6    45    1
    50     8    46    1
    51     9    47    1
    52    10    48    1
    53    16    49    1
    54    18    50    1
    55    20    51    1
    56    20    52    1
    57    20    53    1
    58    24    54    1
    59    24    55    1
    60    24    56    1
    61    26    57    1
    62    28    58    1
    63    28    59    1
    64    28    60    1
    65    29    61    1
    66    30    62    1
    67    33    63    1
    68    33    64    1
    69    34    65    1
    70    34    66    1
    71    36    67    1
    72    36    68    1
    73    36    69    1
    74    37    70    1
    75    37    71    1
    76    38    72    1
    77    38    73    1
