@<TRIPOS>MOLECULE
*****
 47 49 0 0 0
SMALL
GASTEIGER

@<TRIPOS>ATOM
      1 C          -3.9686   -5.2543   -0.5612 C.3     1  UNL1        0.0820
      2 O          -3.8245   -3.8482   -0.4263 O.3     1  UNL1       -0.4644
      3 C          -2.5486   -3.3065   -0.2190 C.2     1  UNL1        0.3390
      4 O          -1.6961   -4.2223   -0.1837 O.2     1  UNL1       -0.2450
      5 C          -2.2876   -1.8811   -0.0695 C.ar    1  UNL1        0.0613
      6 C          -3.3246   -0.9782   -0.1296 C.ar    1  UNL1       -0.0399
      7 C          -2.9456    0.3521    0.0227 C.ar    1  UNL1       -0.0153
      8 C          -3.9983    1.2442   -0.0428 C.ar    1  UNL1       -0.0531
      9 C          -3.7684    2.5724    0.0892 C.ar    1  UNL1       -0.0463
     10 C          -2.5107    3.0496    0.2866 C.ar    1  UNL1        0.0654
     11 C          -1.4914    2.1345    0.3452 C.ar    1  UNL1       -0.0374
     12 C          -1.6367    0.7736    0.2215 C.ar    1  UNL1        0.0042
     13 C          -0.6317   -0.1537    0.2753 C.ar    1  UNL1        0.0422
     14 N           0.6873    0.3078    0.4639 N.am    1  UNL1       -0.2809
     15 C           1.8381   -0.4715    0.5425 C.2     1  UNL1        0.2486
     16 O           1.8367   -1.7178    0.4577 O.2     1  UNL1       -0.2698
     17 C           3.2452   -0.2670    0.7161 C.ar    1  UNL1        0.0434
     18 C           3.7726    0.1373    1.9252 C.ar    1  UNL1       -0.0491
     19 C           5.1080    0.3561    2.1874 C.ar    1  UNL1       -0.0576
     20 C           5.9875    0.1519    1.1478 C.ar    1  UNL1       -0.0199
     21 C           5.5709   -0.2514   -0.1004 C.ar    1  UNL1        0.1205
     22 O           6.4344   -0.4716   -1.1893 O.3     1  UNL1       -0.5065
     23 C           4.2190   -0.4442   -0.2660 C.ar    1  UNL1        0.0031
     24 C           3.7484   -0.8779   -1.6207 C.3     1  UNL1       -0.0355
     25 C          -0.9911   -1.4644    0.1272 C.ar    1  UNL1       -0.0259
     26 C          -2.2915    4.4985    0.4228 C.2     1  UNL1        0.3081
     27 N          -3.1348    5.3274   -0.3530 N.pl3   1  UNL1       -0.2466
     28 N          -1.3628    4.9038    1.2249 N.2     1  UNL1       -0.0994
     29 H          -4.8462   -5.4906   -1.1896 H       1  UNL1        0.0661
     30 H          -3.0592   -5.6031   -1.1099 H       1  UNL1        0.0661
     31 H          -4.1070   -5.7441    0.4108 H       1  UNL1        0.0661
     32 H          -4.3333   -1.2916   -0.2841 H       1  UNL1        0.0632
     33 H          -5.0221    0.9376   -0.1977 H       1  UNL1        0.0624
     34 H          -4.5828    3.2814    0.0379 H       1  UNL1        0.0626
     35 H          -0.5090    2.5370    0.5030 H       1  UNL1        0.0633
     36 H           0.9940    1.2829    0.5717 H       1  UNL1        0.1552
     37 H           3.1187    0.3109    2.7831 H       1  UNL1        0.0625
     38 H           5.4600    0.6704    3.1604 H       1  UNL1        0.0619
     39 H           7.0639    0.2950    1.2513 H       1  UNL1        0.0654
     40 H           6.5480   -1.4718   -1.4229 H       1  UNL1        0.2921
     41 H           3.2239    0.0125   -2.0733 H       1  UNL1        0.0279
     42 H           3.1070   -1.7488   -1.4887 H       1  UNL1        0.0279
     43 H           4.6146   -1.0737   -2.2994 H       1  UNL1        0.0279
     44 H          -0.2763   -2.2491    0.1590 H       1  UNL1        0.0644
     45 H          -2.5575    5.6395   -1.1674 H       1  UNL1        0.2884
     46 H          -4.0477    5.3430    0.1559 H       1  UNL1        0.2884
     47 H          -0.8240    4.1635    1.7279 H       1  UNL1        0.3633
@<TRIPOS>BOND
     1     1     2    1
     2     2     3    1
     3     3     4    2
     4     3     5    1
     5     5     6   ar
     6     6     7   ar
     7     7     8   ar
     8     8     9   ar
     9     9    10   ar
    10    10    11   ar
    11    11    12   ar
    12    12    13   ar
    13    13    14    1
    14    14    15   am
    15    15    16    2
    16    15    17    1
    17    17    18   ar
    18    18    19   ar
    19    19    20   ar
    20    20    21   ar
    21    21    22    1
    22    21    23   ar
    23    23    24    1
    24    13    25   ar
    25    10    26    1
    26    26    27    1
    27    26    28    2
    28    25     5   ar
    29    12     7   ar
    30    23    17   ar
    31     1    29    1
    32     1    30    1
    33     1    31    1
    34     6    32    1
    35     8    33    1
    36     9    34    1
    37    11    35    1
    38    14    36    1
    39    18    37    1
    40    19    38    1
    41    20    39    1
    42    22    40    1
    43    24    41    1
    44    24    42    1
    45    24    43    1
    46    25    44    1
    47    27    45    1
    48    27    46    1
    49    28    47    1
