
     RDKit          3D

 46 48  0  0  0  0  0  0  0  0999 V2000
   -1.3432   -3.6032    1.5458 C   0  0  0  0  0  0  0  0  0  0  0  0
   -1.9837   -2.4039    1.1831 O   0  0  0  0  0  0  0  0  0  0  0  0
   -1.3265   -1.4619    0.3780 C   0  0  0  0  0  0  0  0  0  0  0  0
   -0.0452   -1.6509   -0.0938 C   0  0  0  0  0  0  0  0  0  0  0  0
    0.6008   -0.7263   -0.8846 C   0  0  0  0  0  0  0  0  0  0  0  0
    1.9389   -0.9350   -1.4015 C   0  0  0  0  0  0  0  0  0  0  0  0
    3.0818   -0.4881   -0.6212 C   0  0  0  0  0  0  0  0  0  0  0  0
    4.3576   -0.6615   -1.1967 C   0  0  0  0  0  0  0  0  0  0  0  0
    5.4642   -0.2805   -0.5568 N   0  0  0  0  0  0  0  0  0  0  0  0
    5.4426    0.2847    0.6579 C   0  0  0  0  0  0  0  0  0  0  0  0
    6.6284    0.6878    1.3333 N   0  0  0  0  0  0  0  0  0  0  0  0
    4.2449    0.4587    1.2223 N   0  0  0  0  0  0  0  0  0  0  0  0
    3.0655    0.0870    0.6139 C   0  0  0  0  0  0  0  0  0  0  0  0
    1.8439    0.3038    1.2814 N   0  0  0  0  0  0  0  0  0  0  0  0
   -0.0820    0.4264   -1.2033 C   0  0  0  0  0  0  0  0  0  0  0  0
   -1.3611    0.6410   -0.7463 C   0  0  0  0  0  0  0  0  0  0  0  0
   -1.9953   -0.2916    0.0434 C   0  0  0  0  0  0  0  0  0  0  0  0
   -3.3352   -0.0565    0.5168 N   0  0  0  0  0  0  0  0  0  0  0  0
   -3.8623   -0.7995    1.6264 C   0  0  0  0  0  0  0  0  0  0  0  0
   -4.1128    0.9479   -0.1679 C   0  0  0  0  0  0  0  0  0  0  0  0
   -3.3186    2.1782   -0.4846 C   0  0  0  0  0  0  0  0  0  0  0  0
   -2.0100    1.9222   -1.1499 C   0  0  0  0  0  0  0  0  0  0  0  0
   -1.0937    3.0895   -0.8376 C   0  0  0  0  0  0  0  0  0  0  0  0
   -0.8649   -4.0721    0.6617 H   0  0  0  0  0  0  0  0  0  0  0  0
   -2.0967   -4.2803    2.0090 H   0  0  0  0  0  0  0  0  0  0  0  0
   -0.5747   -3.4021    2.3142 H   0  0  0  0  0  0  0  0  0  0  0  0
    0.4392   -2.5764    0.1907 H   0  0  0  0  0  0  0  0  0  0  0  0
    2.1353   -2.0361   -1.6286 H   0  0  0  0  0  0  0  0  0  0  0  0
    2.0726   -0.4734   -2.4378 H   0  0  0  0  0  0  0  0  0  0  0  0
    4.3981   -1.1224   -2.1905 H   0  0  0  0  0  0  0  0  0  0  0  0
    7.5736    0.6250    0.9145 H   0  0  0  0  0  0  0  0  0  0  0  0
    6.5642    1.0661    2.2939 H   0  0  0  0  0  0  0  0  0  0  0  0
    1.3210    1.1846    1.1267 H   0  0  0  0  0  0  0  0  0  0  0  0
    1.4579   -0.3991    1.9415 H   0  0  0  0  0  0  0  0  0  0  0  0
    0.4061    1.1846   -1.8332 H   0  0  0  0  0  0  0  0  0  0  0  0
   -4.2453   -1.7907    1.3673 H   0  0  0  0  0  0  0  0  0  0  0  0
   -3.1361   -0.8331    2.4910 H   0  0  0  0  0  0  0  0  0  0  0  0
   -4.7359   -0.2223    2.0335 H   0  0  0  0  0  0  0  0  0  0  0  0
   -4.6094    0.5546   -1.0770 H   0  0  0  0  0  0  0  0  0  0  0  0
   -4.9442    1.2660    0.5195 H   0  0  0  0  0  0  0  0  0  0  0  0
   -3.9412    2.7853   -1.2033 H   0  0  0  0  0  0  0  0  0  0  0  0
   -3.1906    2.8408    0.4012 H   0  0  0  0  0  0  0  0  0  0  0  0
   -2.1132    1.8915   -2.2561 H   0  0  0  0  0  0  0  0  0  0  0  0
   -0.8166    3.0272    0.2362 H   0  0  0  0  0  0  0  0  0  0  0  0
   -1.6958    4.0111   -1.0358 H   0  0  0  0  0  0  0  0  0  0  0  0
   -0.2026    3.1030   -1.4996 H   0  0  0  0  0  0  0  0  0  0  0  0
  1  2  1  0
  2  3  1  0
  3  4  2  0
  4  5  1  0
  5  6  1  0
  6  7  1  0
  7  8  2  0
  8  9  1  0
  9 10  2  0
 10 11  1  0
 10 12  1  0
 12 13  2  0
 13 14  1  0
  5 15  2  0
 15 16  1  0
 16 17  2  0
 17 18  1  0
 18 19  1  0
 18 20  1  0
 20 21  1  0
 21 22  1  0
 22 23  1  0
 17  3  1  0
 13  7  1  0
 22 16  1  0
  1 24  1  0
  1 25  1  0
  1 26  1  0
  4 27  1  0
  6 28  1  0
  6 29  1  0
  8 30  1  0
 11 31  1  0
 11 32  1  0
 14 33  1  0
 14 34  1  0
 15 35  1  0
 19 36  1  0
 19 37  1  0
 19 38  1  0
 20 39  1  0
 20 40  1  0
 21 41  1  0
 21 42  1  0
 22 43  1  0
 23 44  1  0
 23 45  1  0
 23 46  1  0
M  END
$$$$
