@<TRIPOS>MOLECULE
*****
 46 48 0 0 0
SMALL
GASTEIGER

@<TRIPOS>ATOM
      1 C          -1.3432   -3.6032    1.5458 C.3     1  UNL1        0.0789
      2 O          -1.9837   -2.4039    1.1831 O.3     1  UNL1       -0.4932
      3 C          -1.3265   -1.4619    0.3780 C.ar    1  UNL1        0.1415
      4 C          -0.0452   -1.6509   -0.0938 C.ar    1  UNL1       -0.0146
      5 C           0.6008   -0.7263   -0.8846 C.ar    1  UNL1       -0.0391
      6 C           1.9389   -0.9350   -1.4015 C.3     1  UNL1        0.0024
      7 C           3.0818   -0.4881   -0.6212 C.ar    1  UNL1        0.0146
      8 C           4.3576   -0.6615   -1.1967 C.ar    1  UNL1        0.0379
      9 N           5.4642   -0.2805   -0.5568 N.ar    1  UNL1       -0.2227
     10 C           5.4426    0.2847    0.6579 C.ar    1  UNL1        0.2142
     11 N           6.6284    0.6878    1.3333 N.pl3   1  UNL1       -0.3274
     12 N           4.2449    0.4587    1.2223 N.ar    1  UNL1       -0.1999
     13 C           3.0655    0.0870    0.6139 C.ar    1  UNL1        0.1247
     14 N           1.8439    0.3038    1.2814 N.pl3   1  UNL1       -0.3428
     15 C          -0.0820    0.4264   -1.2033 C.ar    1  UNL1       -0.0528
     16 C          -1.3611    0.6410   -0.7463 C.ar    1  UNL1       -0.0196
     17 C          -1.9953   -0.2916    0.0434 C.ar    1  UNL1        0.0752
     18 N          -3.3352   -0.0565    0.5168 N.pl3   1  UNL1       -0.3299
     19 C          -3.8623   -0.7995    1.6264 C.3     1  UNL1        0.0008
     20 C          -4.1128    0.9479   -0.1679 C.3     1  UNL1        0.0125
     21 C          -3.3186    2.1782   -0.4846 C.3     1  UNL1       -0.0306
     22 C          -2.0100    1.9222   -1.1499 C.3     1  UNL1       -0.0154
     23 C          -1.0937    3.0895   -0.8376 C.3     1  UNL1       -0.0583
     24 H          -0.8649   -4.0721    0.6617 H       1  UNL1        0.0660
     25 H          -2.0967   -4.2803    2.0090 H       1  UNL1        0.0660
     26 H          -0.5747   -3.4021    2.3142 H       1  UNL1        0.0660
     27 H           0.4392   -2.5764    0.1907 H       1  UNL1        0.0657
     28 H           2.1353   -2.0361   -1.6286 H       1  UNL1        0.0363
     29 H           2.0726   -0.4734   -2.4378 H       1  UNL1        0.0363
     30 H           4.3981   -1.1224   -2.1905 H       1  UNL1        0.0834
     31 H           7.5736    0.6250    0.9145 H       1  UNL1        0.1452
     32 H           6.5642    1.0661    2.2939 H       1  UNL1        0.1452
     33 H           1.3210    1.1846    1.1267 H       1  UNL1        0.1437
     34 H           1.4579   -0.3991    1.9415 H       1  UNL1        0.1437
     35 H           0.4061    1.1846   -1.8332 H       1  UNL1        0.0624
     36 H          -4.2453   -1.7907    1.3673 H       1  UNL1        0.0428
     37 H          -3.1361   -0.8331    2.4910 H       1  UNL1        0.0428
     38 H          -4.7359   -0.2223    2.0335 H       1  UNL1        0.0428
     39 H          -4.6094    0.5546   -1.0770 H       1  UNL1        0.0464
     40 H          -4.9442    1.2660    0.5195 H       1  UNL1        0.0464
     41 H          -3.9412    2.7853   -1.2033 H       1  UNL1        0.0286
     42 H          -3.1906    2.8408    0.4012 H       1  UNL1        0.0286
     43 H          -2.1132    1.8915   -2.2561 H       1  UNL1        0.0347
     44 H          -0.8166    3.0272    0.2362 H       1  UNL1        0.0236
     45 H          -1.6958    4.0111   -1.0358 H       1  UNL1        0.0236
     46 H          -0.2026    3.1030   -1.4996 H       1  UNL1        0.0236
@<TRIPOS>BOND
     1     1     2    1
     2     2     3    1
     3     3     4   ar
     4     4     5   ar
     5     5     6    1
     6     6     7    1
     7     7     8   ar
     8     8     9   ar
     9     9    10   ar
    10    10    11    1
    11    10    12   ar
    12    12    13   ar
    13    13    14    1
    14     5    15   ar
    15    15    16   ar
    16    16    17   ar
    17    17    18    1
    18    18    19    1
    19    18    20    1
    20    20    21    1
    21    21    22    1
    22    22    23    1
    23    17     3   ar
    24    13     7   ar
    25    22    16    1
    26     1    24    1
    27     1    25    1
    28     1    26    1
    29     4    27    1
    30     6    28    1
    31     6    29    1
    32     8    30    1
    33    11    31    1
    34    11    32    1
    35    14    33    1
    36    14    34    1
    37    15    35    1
    38    19    36    1
    39    19    37    1
    40    19    38    1
    41    20    39    1
    42    20    40    1
    43    21    41    1
    44    21    42    1
    45    22    43    1
    46    23    44    1
    47    23    45    1
    48    23    46    1
