@<TRIPOS>MOLECULE
*****
 54 58 0 0 0
SMALL
GASTEIGER

@<TRIPOS>ATOM
      1 C          -6.0764    2.0332   -0.3708 C.3     1  UNL1       -0.0260
      2 C          -5.3750    1.2718   -1.4801 C.3     1  UNL1        0.1182
      3 C          -6.1938    0.0403   -1.8122 C.3     1  UNL1        0.0798
      4 N          -5.5600   -0.9426   -0.9671 N.2     1  UNL1       -0.2498
      5 C          -4.4189   -0.5721   -0.5391 C.2     1  UNL1        0.2027
      6 C          -3.4406   -1.3021    0.3615 C.3     1  UNL1        0.1044
      7 C          -3.1445   -0.5853    1.6700 C.3     1  UNL1       -0.0219
      8 C          -2.1357   -0.7277    0.5672 C.3     1  UNL1        0.0135
      9 C          -0.9380   -1.5960    0.6458 C.3     1  UNL1        0.0935
     10 C          -0.4879   -1.7970   -0.8269 C.3     1  UNL1       -0.0351
     11 C           0.2014   -0.8849    1.2929 C.ar    1  UNL1        0.0158
     12 C           1.2330   -0.2777    0.5494 C.ar    1  UNL1       -0.0463
     13 C           2.2175    0.4420    1.1761 C.ar    1  UNL1       -0.0217
     14 C           3.2866    1.0860    0.4588 C.2     1  UNL1       -0.0172
     15 C           4.1341    0.4825   -0.3179 C.2     1  UNL1        0.1492
     16 F           4.1017   -0.8469   -0.5400 F       1  UNL1       -0.2032
     17 C           5.1910    1.2903   -0.9930 C.ar    1  UNL1        0.0990
     18 C           6.1719    0.6702   -1.7025 C.ar    1  UNL1       -0.0322
     19 C           7.1829    1.4238   -2.3226 C.ar    1  UNL1       -0.0408
     20 C           7.1488    2.7945   -2.1922 C.ar    1  UNL1        0.0699
     21 C           8.1726    3.6722   -2.7326 C.1     1  UNL1        0.1007
     22 N           8.9842    4.3852   -3.1718 N.1     1  UNL1       -0.1908
     23 C           6.1310    3.3731   -1.4648 C.ar    1  UNL1        0.0457
     24 N           5.1829    2.6157   -0.8854 N.ar    1  UNL1       -0.2514
     25 C           2.2317    0.5891    2.5376 C.ar    1  UNL1       -0.0518
     26 C           1.2586    0.0192    3.3087 C.ar    1  UNL1       -0.0255
     27 C           0.2810   -0.6987    2.6385 C.ar    1  UNL1        0.1289
     28 F          -0.6567   -1.2653    3.4422 F       1  UNL1       -0.2051
     29 N          -1.0646   -2.8954    1.1214 N.2     1  UNL1       -0.2521
     30 C          -2.0648   -3.6791    1.1538 C.2     1  UNL1        0.1485
     31 N          -1.9172   -4.9791    1.7059 N.pl3   1  UNL1       -0.3380
     32 S          -3.6079   -3.0648    0.4968 S.3     1  UNL1       -0.0745
     33 O          -4.1687    0.7059   -1.0564 O.2     1  UNL1       -0.4738
     34 H          -6.7133    1.3081    0.1715 H       1  UNL1        0.0266
     35 H          -6.7697    2.8000   -0.7522 H       1  UNL1        0.0266
     36 H          -5.3262    2.4342    0.3563 H       1  UNL1        0.0266
     37 H          -5.2744    1.8760   -2.3950 H       1  UNL1        0.0749
     38 H          -7.2496    0.2219   -1.6231 H       1  UNL1        0.0546
     39 H          -6.0284   -0.2772   -2.8733 H       1  UNL1        0.0546
     40 H          -3.6738    0.3800    1.8146 H       1  UNL1        0.0288
     41 H          -3.1268   -1.1850    2.5899 H       1  UNL1        0.0288
     42 H          -1.9541    0.2601    0.0357 H       1  UNL1        0.0346
     43 H           0.4836   -2.2990   -0.7764 H       1  UNL1        0.0256
     44 H          -1.2013   -2.5518   -1.2548 H       1  UNL1        0.0256
     45 H          -0.5232   -0.8621   -1.3968 H       1  UNL1        0.0256
     46 H           1.2182   -0.4040   -0.5216 H       1  UNL1        0.0628
     47 H           3.3930    2.1587    0.5678 H       1  UNL1        0.0653
     48 H           6.2669   -0.3840   -1.8505 H       1  UNL1        0.0640
     49 H           7.9636    0.9590   -2.8746 H       1  UNL1        0.0631
     50 H           6.1030    4.4696   -1.3651 H       1  UNL1        0.0843
     51 H           3.0491    1.1812    3.0225 H       1  UNL1        0.0624
     52 H           1.2611    0.1205    4.3666 H       1  UNL1        0.0646
     53 H          -1.4933   -5.1919    2.6201 H       1  UNL1        0.1442
     54 H          -2.2642   -5.7945    1.1567 H       1  UNL1        0.1442
@<TRIPOS>BOND
     1     1     2    1
     2     2     3    1
     3     3     4    1
     4     4     5    2
     5     6     5    1
     6     6     7    1
     7     7     8    1
     8     8     9    1
     9     9    10    1
    10     9    11    1
    11    11    12   ar
    12    12    13   ar
    13    13    14    1
    14    14    15    2
    15    15    16    1
    16    15    17    1
    17    17    18   ar
    18    18    19   ar
    19    19    20   ar
    20    20    21    1
    21    21    22    3
    22    20    23   ar
    23    23    24   ar
    24    13    25   ar
    25    25    26   ar
    26    26    27   ar
    27    27    28    1
    28     9    29    1
    29    29    30    2
    30    30    31    1
    31    30    32    1
    32     5    33    1
    33    33     2    1
    34     8     6    1
    35    27    11   ar
    36    32     6    1
    37    24    17   ar
    38     1    34    1
    39     1    35    1
    40     1    36    1
    41     2    37    1
    42     3    38    1
    43     3    39    1
    44     7    40    1
    45     7    41    1
    46     8    42    1
    47    10    43    1
    48    10    44    1
    49    10    45    1
    50    12    46    1
    51    14    47    1
    52    18    48    1
    53    19    49    1
    54    23    50    1
    55    25    51    1
    56    26    52    1
    57    31    53    1
    58    31    54    1
