@<TRIPOS>MOLECULE
*****
 47 52 0 0 0
SMALL
GASTEIGER

@<TRIPOS>ATOM
      1 C           0.8699   -3.0122    0.2347 C.3     1  UNL1        0.0125
      2 N           1.3259   -1.6789   -0.0693 N.ar    1  UNL1       -0.3413
      3 C           2.6420   -1.4646   -0.4191 C.ar    1  UNL1        0.0499
      4 C           3.6485   -2.3781   -0.6362 C.ar    1  UNL1       -0.0376
      5 C           4.9046   -1.9388   -0.9900 C.ar    1  UNL1       -0.0598
      6 C           5.1457   -0.6019   -1.1240 C.ar    1  UNL1       -0.0611
      7 C           4.1388    0.3309   -0.9085 C.ar    1  UNL1       -0.0520
      8 C           2.8883   -0.1195   -0.5555 C.ar    1  UNL1        0.0084
      9 C           1.7102    0.5326   -0.2901 C.ar    1  UNL1        0.0220
     10 C           1.4234    1.8933   -0.2585 C.ar    1  UNL1        0.0518
     11 C           0.1307    2.2095    0.0810 C.ar    1  UNL1       -0.0078
     12 C          -0.8227    1.2601    0.3696 C.ar    1  UNL1        0.0150
     13 C          -2.1522    1.3736    0.7008 C.ar    1  UNL1        0.0080
     14 C          -2.9369    2.4913    0.8737 C.ar    1  UNL1       -0.0520
     15 C          -4.2622    2.3511    1.2108 C.ar    1  UNL1       -0.0611
     16 C          -4.7573    1.0801    1.3639 C.ar    1  UNL1       -0.0598
     17 C          -3.9521   -0.0361    1.1859 C.ar    1  UNL1       -0.0376
     18 C          -2.6204    0.1120    0.8472 C.ar    1  UNL1        0.0502
     19 N          -1.6136   -0.8037    0.6138 N.ar    1  UNL1       -0.3372
     20 C          -1.9447   -2.1935    0.6538 C.3     1  UNL1        0.0367
     21 C          -2.5198   -2.5582   -0.7109 C.3     1  UNL1        0.0527
     22 C          -1.6754   -2.2642   -1.8387 C.1     1  UNL1        0.0643
     23 N          -0.9834   -2.0385   -2.7338 N.1     1  UNL1       -0.1965
     24 C          -0.5295   -0.0998    0.3310 C.ar    1  UNL1        0.0749
     25 C           0.7669   -0.4667    0.0013 C.ar    1  UNL1        0.0750
     26 C          -0.0376    3.6862    0.0505 C.3     1  UNL1        0.0385
     27 N           1.2497    4.2128   -0.2535 N.am    1  UNL1       -0.3072
     28 C           2.1566    3.1329   -0.4778 C.2     1  UNL1        0.2453
     29 O           3.3457    3.2458   -0.7994 O.2     1  UNL1       -0.2702
     30 H           0.1828   -3.5029   -0.3918 H       1  UNL1        0.0456
     31 H           1.7615   -3.7367    0.2568 H       1  UNL1        0.0456
     32 H           0.6435   -3.0252    1.3445 H       1  UNL1        0.0456
     33 H           3.4542   -3.4480   -0.5350 H       1  UNL1        0.0638
     34 H           5.6624   -2.7001   -1.1493 H       1  UNL1        0.0618
     35 H           6.1456   -0.2692   -1.4045 H       1  UNL1        0.0618
     36 H           4.4378    1.3326   -1.0430 H       1  UNL1        0.0624
     37 H          -2.5751    3.5125    0.7635 H       1  UNL1        0.0624
     38 H          -4.8745    3.2262    1.3459 H       1  UNL1        0.0618
     39 H          -5.8021    0.9881    1.6291 H       1  UNL1        0.0618
     40 H          -4.4343   -0.9805    1.3268 H       1  UNL1        0.0638
     41 H          -2.9357   -2.2865    1.3056 H       1  UNL1        0.0502
     42 H          -1.3887   -2.9125    1.1763 H       1  UNL1        0.0502
     43 H          -2.8090   -3.6467   -0.6620 H       1  UNL1        0.0435
     44 H          -3.4929   -2.0282   -0.8802 H       1  UNL1        0.0435
     45 H          -0.2778    4.0147    1.0918 H       1  UNL1        0.0512
     46 H          -0.8119    3.9901   -0.6931 H       1  UNL1        0.0512
     47 H           1.5751    5.2149   -0.3240 H       1  UNL1        0.1493
@<TRIPOS>BOND
     1     1     2    1
     2     2     3   ar
     3     3     4   ar
     4     4     5   ar
     5     5     6   ar
     6     6     7   ar
     7     7     8   ar
     8     8     9   ar
     9     9    10   ar
    10    10    11   ar
    11    11    12   ar
    12    12    13   ar
    13    13    14   ar
    14    14    15   ar
    15    15    16   ar
    16    16    17   ar
    17    17    18   ar
    18    18    19   ar
    19    19    20    1
    20    20    21    1
    21    21    22    1
    22    22    23    3
    23    19    24   ar
    24    24    25   ar
    25    11    26    1
    26    26    27    1
    27    27    28   am
    28    28    29    2
    29    25     2   ar
    30     8     3   ar
    31    25     9   ar
    32    28    10    1
    33    24    12   ar
    34    18    13   ar
    35     1    30    1
    36     1    31    1
    37     1    32    1
    38     4    33    1
    39     5    34    1
    40     6    35    1
    41     7    36    1
    42    14    37    1
    43    15    38    1
    44    16    39    1
    45    17    40    1
    46    20    41    1
    47    20    42    1
    48    21    43    1
    49    21    44    1
    50    26    45    1
    51    26    46    1
    52    27    47    1
