
     RDKit          3D

 47 52  0  0  0  0  0  0  0  0999 V2000
    0.8699   -3.0122    0.2347 C   0  0  0  0  0  0  0  0  0  0  0  0
    1.3259   -1.6789   -0.0693 N   0  0  0  0  0  0  0  0  0  0  0  0
    2.6420   -1.4646   -0.4191 C   0  0  0  0  0  0  0  0  0  0  0  0
    3.6485   -2.3781   -0.6362 C   0  0  0  0  0  0  0  0  0  0  0  0
    4.9046   -1.9388   -0.9900 C   0  0  0  0  0  0  0  0  0  0  0  0
    5.1457   -0.6019   -1.1240 C   0  0  0  0  0  0  0  0  0  0  0  0
    4.1388    0.3309   -0.9085 C   0  0  0  0  0  0  0  0  0  0  0  0
    2.8883   -0.1195   -0.5555 C   0  0  0  0  0  0  0  0  0  0  0  0
    1.7102    0.5326   -0.2901 C   0  0  0  0  0  0  0  0  0  0  0  0
    1.4234    1.8933   -0.2585 C   0  0  0  0  0  0  0  0  0  0  0  0
    0.1307    2.2095    0.0810 C   0  0  0  0  0  0  0  0  0  0  0  0
   -0.8227    1.2601    0.3696 C   0  0  0  0  0  0  0  0  0  0  0  0
   -2.1522    1.3736    0.7008 C   0  0  0  0  0  0  0  0  0  0  0  0
   -2.9369    2.4913    0.8737 C   0  0  0  0  0  0  0  0  0  0  0  0
   -4.2622    2.3511    1.2108 C   0  0  0  0  0  0  0  0  0  0  0  0
   -4.7573    1.0801    1.3639 C   0  0  0  0  0  0  0  0  0  0  0  0
   -3.9521   -0.0361    1.1859 C   0  0  0  0  0  0  0  0  0  0  0  0
   -2.6204    0.1120    0.8472 C   0  0  0  0  0  0  0  0  0  0  0  0
   -1.6136   -0.8037    0.6138 N   0  0  0  0  0  0  0  0  0  0  0  0
   -1.9447   -2.1935    0.6538 C   0  0  0  0  0  0  0  0  0  0  0  0
   -2.5198   -2.5582   -0.7109 C   0  0  0  0  0  0  0  0  0  0  0  0
   -1.6754   -2.2642   -1.8387 C   0  0  0  0  0  0  0  0  0  0  0  0
   -0.9834   -2.0385   -2.7338 N   0  0  0  0  0  0  0  0  0  0  0  0
   -0.5295   -0.0998    0.3310 C   0  0  0  0  0  0  0  0  0  0  0  0
    0.7669   -0.4667    0.0013 C   0  0  0  0  0  0  0  0  0  0  0  0
   -0.0376    3.6862    0.0505 C   0  0  0  0  0  0  0  0  0  0  0  0
    1.2497    4.2128   -0.2535 N   0  0  0  0  0  0  0  0  0  0  0  0
    2.1566    3.1329   -0.4778 C   0  0  0  0  0  0  0  0  0  0  0  0
    3.3457    3.2458   -0.7994 O   0  0  0  0  0  0  0  0  0  0  0  0
    0.1828   -3.5029   -0.3918 H   0  0  0  0  0  0  0  0  0  0  0  0
    1.7615   -3.7367    0.2568 H   0  0  0  0  0  0  0  0  0  0  0  0
    0.6435   -3.0252    1.3445 H   0  0  0  0  0  0  0  0  0  0  0  0
    3.4542   -3.4480   -0.5350 H   0  0  0  0  0  0  0  0  0  0  0  0
    5.6624   -2.7001   -1.1493 H   0  0  0  0  0  0  0  0  0  0  0  0
    6.1456   -0.2692   -1.4045 H   0  0  0  0  0  0  0  0  0  0  0  0
    4.4378    1.3326   -1.0430 H   0  0  0  0  0  0  0  0  0  0  0  0
   -2.5751    3.5125    0.7635 H   0  0  0  0  0  0  0  0  0  0  0  0
   -4.8745    3.2262    1.3459 H   0  0  0  0  0  0  0  0  0  0  0  0
   -5.8021    0.9881    1.6291 H   0  0  0  0  0  0  0  0  0  0  0  0
   -4.4343   -0.9805    1.3268 H   0  0  0  0  0  0  0  0  0  0  0  0
   -2.9357   -2.2865    1.3056 H   0  0  0  0  0  0  0  0  0  0  0  0
   -1.3887   -2.9125    1.1763 H   0  0  0  0  0  0  0  0  0  0  0  0
   -2.8090   -3.6467   -0.6620 H   0  0  0  0  0  0  0  0  0  0  0  0
   -3.4929   -2.0282   -0.8802 H   0  0  0  0  0  0  0  0  0  0  0  0
   -0.2778    4.0147    1.0918 H   0  0  0  0  0  0  0  0  0  0  0  0
   -0.8119    3.9901   -0.6931 H   0  0  0  0  0  0  0  0  0  0  0  0
    1.5751    5.2149   -0.3240 H   0  0  0  0  0  0  0  0  0  0  0  0
  1  2  1  0
  2  3  1  0
  3  4  2  0
  4  5  1  0
  5  6  2  0
  6  7  1  0
  7  8  2  0
  8  9  1  0
  9 10  2  0
 10 11  1  0
 11 12  2  0
 12 13  1  0
 13 14  2  0
 14 15  1  0
 15 16  2  0
 16 17  1  0
 17 18  2  0
 18 19  1  0
 19 20  1  0
 20 21  1  0
 21 22  1  0
 22 23  3  0
 19 24  1  0
 24 25  2  0
 11 26  1  0
 26 27  1  0
 27 28  1  0
 28 29  2  0
 25  2  1  0
  8  3  1  0
 25  9  1  0
 28 10  1  0
 24 12  1  0
 18 13  1  0
  1 30  1  0
  1 31  1  0
  1 32  1  0
  4 33  1  0
  5 34  1  0
  6 35  1  0
  7 36  1  0
 14 37  1  0
 15 38  1  0
 16 39  1  0
 17 40  1  0
 20 41  1  0
 20 42  1  0
 21 43  1  0
 21 44  1  0
 26 45  1  0
 26 46  1  0
 27 47  1  0
M  END
$$$$
