@<TRIPOS>MOLECULE
*****
 15 14 0 0 0
SMALL
GASTEIGER

@<TRIPOS>ATOM
      1 N           2.2109    0.4214    0.7642 N.pl3   1  UNL1       -0.2893
      2 C           1.1915   -0.1777   -0.0663 C.cat   1  UNL1        0.3767
      3 N           1.1762    0.0902   -1.3475 N.pl3   1  UNL1       -0.1298
      4 N           0.1653   -1.0697    0.4177 N.pl3   1  UNL1       -0.2656
      5 C          -1.1159   -1.0050   -0.2661 C.3     1  UNL1        0.1612
      6 C          -1.7146    0.3176    0.0642 C.2     1  UNL1        0.3389
      7 O          -2.8930    0.9551   -0.2730 O.3     1  UNL1       -0.4784
      8 O          -0.9436    0.9498    0.8116 O.2     1  UNL1       -0.2474
      9 H           2.7285   -0.0148    1.5567 H       1  UNL1        0.2546
     10 H           2.4191    1.4279    0.4923 H       1  UNL1        0.2546
     11 H           1.8851    0.7292   -1.7856 H       1  UNL1        0.3062
     12 H           0.4924   -1.6724    1.2343 H       1  UNL1        0.2584
     13 H          -1.7698   -1.7587    0.2163 H       1  UNL1        0.0773
     14 H          -1.0337   -1.1561   -1.3412 H       1  UNL1        0.0773
     15 H          -2.7985    1.9632   -0.4776 H       1  UNL1        0.2952
@<TRIPOS>BOND
     1     1     2    1
     2     2     3    2
     3     2     4    1
     4     4     5    1
     5     5     6    1
     6     6     7    1
     7     6     8    2
     8     1     9    1
     9     1    10    1
    10     3    11    1
    11     4    12    1
    12     5    13    1
    13     5    14    1
    14     7    15    1
