@<TRIPOS>MOLECULE
*****
 58 62 0 0 0
SMALL
GASTEIGER

@<TRIPOS>ATOM
      1 C          -3.8524    0.6701   -2.8932 C.3     1  UNL1       -0.0209
      2 C          -3.8664    0.2499   -1.4687 C.ar    1  UNL1        0.0569
      3 C          -5.0738   -0.2075   -0.9247 C.ar    1  UNL1        0.0329
      4 N          -5.1376   -0.5988    0.3614 N.ar    1  UNL1       -0.2948
      5 C          -6.1588   -1.0664    1.0950 C.ar    1  UNL1        0.0762
      6 C          -7.5516   -1.3187    0.7741 C.ar    1  UNL1        0.0375
      7 C          -8.4550   -1.8211    1.7180 C.ar    1  UNL1        0.0583
      8 N          -9.6482   -1.9448    1.1376 N.ar    1  UNL1       -0.1817
      9 N          -9.6069   -1.5645   -0.1157 N.ar    1  UNL1       -0.2841
     10 C          -8.3138   -1.1773   -0.3439 C.ar    1  UNL1        0.0315
     11 C          -5.5834   -1.2941    2.3588 C.ar    1  UNL1        0.0545
     12 N          -4.2867   -0.9635    2.3249 N.ar    1  UNL1       -0.2323
     13 C          -4.0130   -0.5339    1.0897 C.ar    1  UNL1        0.1788
     14 C          -2.7760   -0.0839    0.5951 C.ar    1  UNL1        0.1666
     15 N          -1.6453   -0.0445    1.4345 N.pl3   1  UNL1       -0.2943
     16 C          -0.3684    0.3596    1.0412 C.ar    1  UNL1        0.0682
     17 C          -0.0293    0.7655   -0.2134 C.ar    1  UNL1       -0.0370
     18 C           1.2895    1.1529   -0.4980 C.ar    1  UNL1       -0.0477
     19 C           2.2614    1.1361    0.4588 C.ar    1  UNL1        0.0397
     20 C           3.6177    1.5335    0.1578 C.2     1  UNL1        0.2472
     21 O           3.8547    2.7450   -0.0535 O.2     1  UNL1       -0.2700
     22 N           4.6373    0.5458    0.1095 N.am    1  UNL1       -0.2898
     23 C           4.2668   -0.8384    0.3821 C.3     1  UNL1        0.0281
     24 C           5.2478   -1.8205   -0.1547 C.3     1  UNL1        0.0118
     25 N           5.9319   -1.2274   -1.2890 N.3     1  UNL1       -0.3125
     26 C           6.8133   -0.1532   -0.8184 C.3     1  UNL1        0.0170
     27 C           5.9761    0.9650   -0.2047 C.3     1  UNL1        0.0445
     28 C           5.9233    2.0739   -1.2533 C.3     1  UNL1       -0.0426
     29 C           6.7126    1.5385    0.9817 C.3     1  UNL1       -0.0426
     30 C           1.9047    0.7264    1.7138 C.ar    1  UNL1       -0.0125
     31 C           0.6251    0.3470    2.0020 C.ar    1  UNL1        0.1452
     32 F           0.3633   -0.0450    3.2705 F       1  UNL1       -0.2035
     33 N          -2.7905    0.2845   -0.6785 N.ar    1  UNL1       -0.2320
     34 H          -4.8492    0.9831   -3.2396 H       1  UNL1        0.0293
     35 H          -3.4321   -0.1114   -3.5668 H       1  UNL1        0.0293
     36 H          -3.1894    1.5731   -2.9913 H       1  UNL1        0.0293
     37 H          -5.9436   -0.2388   -1.5465 H       1  UNL1        0.0831
     38 H          -8.2667   -2.0789    2.7494 H       1  UNL1        0.0854
     39 H         -10.3850   -1.5419   -0.8411 H       1  UNL1        0.1882
     40 H          -7.9915   -0.8128   -1.3032 H       1  UNL1        0.0830
     41 H          -6.1032   -1.6769    3.2227 H       1  UNL1        0.0852
     42 H          -1.7625   -0.3486    2.4654 H       1  UNL1        0.1537
     43 H          -0.7555    0.7968   -1.0103 H       1  UNL1        0.0637
     44 H           1.4891    1.4601   -1.5014 H       1  UNL1        0.0626
     45 H           4.1634   -0.9848    1.4910 H       1  UNL1        0.0477
     46 H           3.2405   -0.9765   -0.0390 H       1  UNL1        0.0477
     47 H           5.9640   -2.1335    0.6371 H       1  UNL1        0.0439
     48 H           4.7592   -2.7588   -0.5049 H       1  UNL1        0.0439
     49 H           6.5614   -1.9527   -1.7138 H       1  UNL1        0.1221
     50 H           7.4719   -0.5957   -0.0361 H       1  UNL1        0.0445
     51 H           7.3838    0.2002   -1.7096 H       1  UNL1        0.0445
     52 H           6.8527    1.9912   -1.8955 H       1  UNL1        0.0251
     53 H           6.0123    3.0831   -0.8025 H       1  UNL1        0.0251
     54 H           5.0207    1.9716   -1.8868 H       1  UNL1        0.0251
     55 H           6.3189    2.5491    1.2108 H       1  UNL1        0.0251
     56 H           7.7802    1.6404    0.6545 H       1  UNL1        0.0251
     57 H           6.7150    0.8613    1.8627 H       1  UNL1        0.0251
     58 H           2.6773    0.7111    2.4875 H       1  UNL1        0.0654
@<TRIPOS>BOND
     1     1     2    1
     2     2     3   ar
     3     3     4   ar
     4     4     5   ar
     5     5     6    1
     6     6     7   ar
     7     7     8   ar
     8     8     9   ar
     9     9    10   ar
    10     5    11   ar
    11    11    12   ar
    12    12    13   ar
    13    13    14   ar
    14    14    15    1
    15    15    16    1
    16    16    17   ar
    17    17    18   ar
    18    18    19   ar
    19    19    20    1
    20    20    21    2
    21    20    22   am
    22    22    23    1
    23    23    24    1
    24    24    25    1
    25    25    26    1
    26    26    27    1
    27    27    28    1
    28    27    29    1
    29    19    30   ar
    30    30    31   ar
    31    31    32    1
    32    14    33   ar
    33    33     2   ar
    34    13     4   ar
    35    31    16   ar
    36    10     6   ar
    37    27    22    1
    38     1    34    1
    39     1    35    1
    40     1    36    1
    41     3    37    1
    42     7    38    1
    43     9    39    1
    44    10    40    1
    45    11    41    1
    46    15    42    1
    47    17    43    1
    48    18    44    1
    49    23    45    1
    50    23    46    1
    51    24    47    1
    52    24    48    1
    53    25    49    1
    54    26    50    1
    55    26    51    1
    56    28    52    1
    57    28    53    1
    58    28    54    1
    59    29    55    1
    60    29    56    1
    61    29    57    1
    62    30    58    1
