@<TRIPOS>MOLECULE
*****
 115 116 0 0 0
SMALL
GASTEIGER

@<TRIPOS>ATOM
      1 C          -8.4247    1.6960    2.3201 C.3     1  UNL1       -0.0652
      2 C          -7.5324    0.4590    2.5660 C.3     1  UNL1       -0.0538
      3 C          -6.4298    0.5039    1.5733 C.3     1  UNL1       -0.0273
      4 C          -5.4164   -0.6071    1.6740 C.3     1  UNL1        0.0907
      5 N          -4.4283   -0.3739    0.6187 N.am    1  UNL1       -0.3036
      6 C          -3.0746   -0.0087    0.9233 C.2     1  UNL1        0.2341
      7 O          -2.7479    0.1087    2.1111 O.2     1  UNL1       -0.2738
      8 C          -2.1256    0.2161   -0.2073 C.3     1  UNL1        0.1023
      9 C          -1.5330   -1.1203   -0.5678 C.3     1  UNL1       -0.0243
     10 C          -0.2437   -0.7449   -1.2347 C.3     1  UNL1       -0.0350
     11 C           0.1809    0.5191   -0.4746 C.3     1  UNL1        0.0156
     12 N          -1.0058    1.0490    0.1302 N.am    1  UNL1       -0.2884
     13 C          -1.0852    2.2291    0.9232 C.2     1  UNL1        0.2368
     14 O          -2.2793    2.4867    1.3673 O.2     1  UNL1       -0.2735
     15 C          -0.0338    3.1523    1.2872 C.3     1  UNL1        0.1019
     16 N           1.2607    2.9451    0.7203 N.am    1  UNL1       -0.3022
     17 C           1.8310    3.6780   -0.3717 C.2     1  UNL1        0.2342
     18 O           1.0671    4.5538   -0.8720 O.2     1  UNL1       -0.2738
     19 C           3.2074    3.4463   -0.8880 C.3     1  UNL1        0.1020
     20 N           3.7739    2.5777    0.1146 N.am    1  UNL1       -0.3022
     21 C           4.3755    1.3564    0.1174 C.2     1  UNL1        0.2345
     22 O           4.5355    0.7121   -0.9148 O.2     1  UNL1       -0.2737
     23 C           4.8672    0.7559    1.4119 C.3     1  UNL1        0.1094
     24 C           5.5387    1.7313    2.2992 C.3     1  UNL1        0.0716
     25 C           6.7188    2.3298    1.6504 C.2     1  UNL1        0.3070
     26 O           7.1072    1.9545    0.5460 O.2     1  UNL1       -0.2509
     27 O           7.4375    3.3626    2.2923 O.3     1  UNL1       -0.4806
     28 N           5.6860   -0.3886    1.1242 N.am    1  UNL1       -0.3019
     29 C           5.2566   -1.7375    1.1873 C.2     1  UNL1        0.2345
     30 O           4.0954   -2.0219    1.5121 O.2     1  UNL1       -0.2737
     31 C           6.2145   -2.8302    0.8550 C.3     1  UNL1        0.1094
     32 C           7.0658   -2.5400   -0.3102 C.3     1  UNL1        0.0716
     33 C           7.9907   -3.6671   -0.5766 C.2     1  UNL1        0.3070
     34 O           8.0528   -4.7127    0.1093 O.2     1  UNL1       -0.2509
     35 O           8.8899   -3.6187   -1.6660 O.3     1  UNL1       -0.4806
     36 N           5.6247   -4.1307    0.7978 N.am    1  UNL1       -0.3037
     37 C           4.4134   -4.4607    0.1381 C.2     1  UNL1        0.2105
     38 C           3.8909   -5.8747    0.1593 C.3     1  UNL1        0.0122
     39 O           3.7927   -3.5531   -0.4596 O.2     1  UNL1       -0.2761
     40 C           3.1249    2.8862   -2.2707 C.3     1  UNL1       -0.0171
     41 C           2.1622    3.9266   -2.9875 C.3     1  UNL1       -0.0603
     42 C           4.3407    3.1006   -3.1369 C.3     1  UNL1       -0.0512
     43 C           5.6641    2.6375   -2.8177 C.3     1  UNL1       -0.0650
     44 C          -0.5039    4.6248    1.1611 C.3     1  UNL1       -0.0197
     45 C           0.6019    5.5272    1.5971 C.3     1  UNL1       -0.0605
     46 C          -1.6258    4.7679    2.1982 C.3     1  UNL1       -0.0605
     47 C          -6.0739   -1.9050    1.5960 C.2     1  UNL1        0.2371
     48 O          -6.9332   -2.2587    2.4611 O.2     1  UNL1       -0.2852
     49 C          -5.7920   -2.8570    0.5408 C.2     1  UNL1        0.2817
     50 O          -4.9281   -2.6719   -0.3660 O.2     1  UNL1       -0.2670
     51 N          -6.5157   -4.1001    0.4803 N.am    1  UNL1       -0.3048
     52 C          -6.3044   -5.0907   -0.5307 C.3     1  UNL1        0.0372
     53 C          -6.9406   -4.6742   -1.7938 C.ar    1  UNL1       -0.0303
     54 C          -6.3178   -4.0224   -2.8323 C.ar    1  UNL1       -0.0571
     55 C          -7.0023   -3.6479   -3.9945 C.ar    1  UNL1       -0.0615
     56 C          -8.3396   -3.9369   -4.1105 C.ar    1  UNL1       -0.0617
     57 C          -8.9797   -4.5871   -3.0856 C.ar    1  UNL1       -0.0615
     58 C          -8.2977   -4.9547   -1.9386 C.ar    1  UNL1       -0.0571
     59 H          -9.1367    1.8142    3.1460 H       1  UNL1        0.0230
     60 H          -7.7661    2.5821    2.2925 H       1  UNL1        0.0230
     61 H          -8.9372    1.5729    1.3515 H       1  UNL1        0.0230
     62 H          -7.1784    0.5429    3.6098 H       1  UNL1        0.0263
     63 H          -8.1988   -0.4274    2.5005 H       1  UNL1        0.0263
     64 H          -6.8193    0.4900    0.5227 H       1  UNL1        0.0287
     65 H          -5.8827    1.4723    1.7028 H       1  UNL1        0.0287
     66 H          -4.9164   -0.4662    2.6795 H       1  UNL1        0.0582
     67 H          -4.6764   -0.4490   -0.3848 H       1  UNL1        0.1495
     68 H          -2.6921    0.5968   -1.0837 H       1  UNL1        0.0597
     69 H          -2.2083   -1.7137   -1.2062 H       1  UNL1        0.0288
     70 H          -1.2786   -1.6341    0.3825 H       1  UNL1        0.0288
     71 H           0.4691   -1.5696   -1.0728 H       1  UNL1        0.0281
     72 H          -0.4431   -0.5165   -2.2862 H       1  UNL1        0.0281
     73 H           0.6761    1.2199   -1.1760 H       1  UNL1        0.0465
     74 H           0.9411    0.1730    0.2641 H       1  UNL1        0.0465
     75 H           0.1355    3.1085    2.4148 H       1  UNL1        0.0597
     76 H           1.8831    2.1793    1.1272 H       1  UNL1        0.1495
     77 H           3.7793    4.3628   -0.9660 H       1  UNL1        0.0597
     78 H           3.6916    3.0539    1.0939 H       1  UNL1        0.1495
     79 H           3.9247    0.3345    1.8788 H       1  UNL1        0.0600
     80 H           4.8444    2.5070    2.7060 H       1  UNL1        0.0401
     81 H           5.8641    1.1733    3.2287 H       1  UNL1        0.0401
     82 H           8.4441    3.4023    2.2109 H       1  UNL1        0.2951
     83 H           6.7086   -0.2732    0.8395 H       1  UNL1        0.1495
     84 H           6.8772   -2.8493    1.7911 H       1  UNL1        0.0600
     85 H           6.4073   -2.4717   -1.2168 H       1  UNL1        0.0401
     86 H           7.7137   -1.6419   -0.2215 H       1  UNL1        0.0401
     87 H           9.6825   -4.2476   -1.7191 H       1  UNL1        0.2951
     88 H           6.0937   -4.9561    1.2800 H       1  UNL1        0.1495
     89 H           2.9867   -5.9686   -0.4599 H       1  UNL1        0.0322
     90 H           3.8098   -6.2815    1.1656 H       1  UNL1        0.0322
     91 H           4.6844   -6.4608   -0.3943 H       1  UNL1        0.0322
     92 H           2.6364    1.9480   -2.3960 H       1  UNL1        0.0321
     93 H           2.3749    3.9075   -4.0824 H       1  UNL1        0.0233
     94 H           2.3768    4.9352   -2.6556 H       1  UNL1        0.0233
     95 H           1.1331    3.6519   -2.8640 H       1  UNL1        0.0233
     96 H           4.0614    2.6929   -4.1671 H       1  UNL1        0.0266
     97 H           4.4362    4.2182   -3.3943 H       1  UNL1        0.0266
     98 H           5.8623    1.5597   -3.1027 H       1  UNL1        0.0230
     99 H           6.0369    2.7708   -1.7951 H       1  UNL1        0.0230
    100 H           6.4689    3.1662   -3.4424 H       1  UNL1        0.0230
    101 H          -0.9501    4.8347    0.1917 H       1  UNL1        0.0318
    102 H           0.5941    6.4502    0.9768 H       1  UNL1        0.0233
    103 H           0.4004    5.9165    2.6506 H       1  UNL1        0.0233
    104 H           1.5950    5.0548    1.7009 H       1  UNL1        0.0233
    105 H          -1.5260    5.7476    2.7226 H       1  UNL1        0.0233
    106 H          -1.5420    3.9844    2.9740 H       1  UNL1        0.0233
    107 H          -2.6159    4.7336    1.7148 H       1  UNL1        0.0233
    108 H          -7.2432   -4.2732    1.2362 H       1  UNL1        0.1494
    109 H          -6.7698   -6.0525   -0.2013 H       1  UNL1        0.0512
    110 H          -5.2295   -5.2901   -0.7175 H       1  UNL1        0.0512
    111 H          -5.2822   -3.8000   -2.7646 H       1  UNL1        0.0621
    112 H          -6.4588   -3.1301   -4.7883 H       1  UNL1        0.0618
    113 H          -8.8338   -3.6299   -5.0253 H       1  UNL1        0.0618
    114 H         -10.0409   -4.7919   -3.2335 H       1  UNL1        0.0618
    115 H          -8.8207   -5.4597   -1.1541 H       1  UNL1        0.0621
@<TRIPOS>BOND
     1     1     2    1
     2     2     3    1
     3     3     4    1
     4     4     5    1
     5     5     6   am
     6     6     7    2
     7     6     8    1
     8     8     9    1
     9     9    10    1
    10    10    11    1
    11    11    12    1
    12    12    13   am
    13    13    14    2
    14    13    15    1
    15    15    16    1
    16    16    17   am
    17    17    18    2
    18    17    19    1
    19    19    20    1
    20    20    21   am
    21    21    22    2
    22    21    23    1
    23    23    24    1
    24    24    25    1
    25    25    26    2
    26    25    27    1
    27    23    28    1
    28    28    29   am
    29    29    30    2
    30    29    31    1
    31    31    32    1
    32    32    33    1
    33    33    34    2
    34    33    35    1
    35    31    36    1
    36    36    37   am
    37    37    38    1
    38    37    39    2
    39    19    40    1
    40    40    41    1
    41    40    42    1
    42    42    43    1
    43    15    44    1
    44    44    45    1
    45    44    46    1
    46     4    47    1
    47    47    48    2
    48    47    49    1
    49    49    50    2
    50    49    51   am
    51    51    52    1
    52    52    53    1
    53    53    54   ar
    54    54    55   ar
    55    55    56   ar
    56    56    57   ar
    57    57    58   ar
    58    12     8    1
    59    58    53   ar
    60     1    59    1
    61     1    60    1
    62     1    61    1
    63     2    62    1
    64     2    63    1
    65     3    64    1
    66     3    65    1
    67     4    66    1
    68     5    67    1
    69     8    68    1
    70     9    69    1
    71     9    70    1
    72    10    71    1
    73    10    72    1
    74    11    73    1
    75    11    74    1
    76    15    75    1
    77    16    76    1
    78    19    77    1
    79    20    78    1
    80    23    79    1
    81    24    80    1
    82    24    81    1
    83    27    82    1
    84    28    83    1
    85    31    84    1
    86    32    85    1
    87    32    86    1
    88    35    87    1
    89    36    88    1
    90    38    89    1
    91    38    90    1
    92    38    91    1
    93    40    92    1
    94    41    93    1
    95    41    94    1
    96    41    95    1
    97    42    96    1
    98    42    97    1
    99    43    98    1
   100    43    99    1
   101    43   100    1
   102    44   101    1
   103    45   102    1
   104    45   103    1
   105    45   104    1
   106    46   105    1
   107    46   106    1
   108    46   107    1
   109    51   108    1
   110    52   109    1
   111    52   110    1
   112    54   111    1
   113    55   112    1
   114    56   113    1
   115    57   114    1
   116    58   115    1
