
     RDKit          3D

 46 49  0  0  0  0  0  0  0  0999 V2000
    6.2680    1.9759   -0.5975 C   0  0  0  0  0  0  0  0  0  0  0  0
    4.9031    1.5954   -0.1143 C   0  0  0  0  0  0  0  0  0  0  0  0
    4.7020    1.5065    1.2365 C   0  0  0  0  0  0  0  0  0  0  0  0
    3.4585    1.1596    1.6914 C   0  0  0  0  0  0  0  0  0  0  0  0
    2.4133    0.9005    0.8132 C   0  0  0  0  0  0  0  0  0  0  0  0
    1.1157    0.5457    1.3946 C   0  0  0  0  0  0  0  0  0  0  0  0
    2.5794    0.9794   -0.5313 C   0  0  0  0  0  0  0  0  0  0  0  0
    1.3612    0.6684   -1.6769 S   0  0  0  0  0  6  0  0  0  0  0  0
    1.9066    0.9290   -3.0778 O   0  0  0  0  0  0  0  0  0  0  0  0
    0.2640    1.6855   -1.4893 O   0  0  0  0  0  0  0  0  0  0  0  0
    0.6814   -0.9184   -1.7117 C   0  0  0  0  0  0  0  0  0  0  0  0
    1.1276   -2.0330   -2.3011 N   0  0  0  0  0  0  0  0  0  0  0  0
    0.2629   -2.9895   -2.0869 N   0  0  0  0  0  0  0  0  0  0  0  0
   -0.7619   -2.5478   -1.3644 N   0  0  0  0  0  0  0  0  0  0  0  0
   -0.5300   -1.2589   -1.1146 C   0  0  0  0  0  0  0  0  0  0  0  0
   -1.3855   -0.4621   -0.3936 N   0  0  0  0  0  0  0  0  0  0  0  0
   -2.5002   -1.0603    0.0627 C   0  0  0  0  0  0  0  0  0  0  0  0
   -3.4769   -0.3616    0.8235 N   0  0  0  0  0  0  0  0  0  0  0  0
   -3.3082    1.0511    1.1450 C   0  0  0  0  0  0  0  0  0  0  0  0
   -4.4973    1.5120    1.9562 C   0  0  0  0  0  0  0  0  0  0  0  0
   -3.1691    1.8969   -0.0821 C   0  0  0  0  0  0  0  0  0  0  0  0
   -2.7328   -2.3958   -0.1997 C   0  0  0  0  0  0  0  0  0  0  0  0
   -4.0611   -3.4258    0.2508 S   0  0  0  0  0  0  0  0  0  0  0  0
   -3.3903   -4.9557   -0.5823 C   0  0  0  0  0  0  0  0  0  0  0  0
   -2.2516   -4.4821   -1.0893 C   0  0  0  0  0  0  0  0  0  0  0  0
   -1.8949   -3.1955   -0.9120 C   0  0  0  0  0  0  0  0  0  0  0  0
    3.8618    1.3364   -0.9659 C   0  0  0  0  0  0  0  0  0  0  0  0
    6.3355    2.0087   -1.6916 H   0  0  0  0  0  0  0  0  0  0  0  0
    7.0313    1.2462   -0.2444 H   0  0  0  0  0  0  0  0  0  0  0  0
    6.4651    2.9881   -0.1519 H   0  0  0  0  0  0  0  0  0  0  0  0
    5.5086    1.7062    1.9258 H   0  0  0  0  0  0  0  0  0  0  0  0
    3.3078    1.0910    2.7792 H   0  0  0  0  0  0  0  0  0  0  0  0
    1.1277    0.6720    2.5186 H   0  0  0  0  0  0  0  0  0  0  0  0
    0.9534   -0.5263    1.2473 H   0  0  0  0  0  0  0  0  0  0  0  0
    0.2891    1.2055    1.0685 H   0  0  0  0  0  0  0  0  0  0  0  0
   -4.3184   -0.8502    1.1570 H   0  0  0  0  0  0  0  0  0  0  0  0
   -2.3621    1.1057    1.7430 H   0  0  0  0  0  0  0  0  0  0  0  0
   -4.9575    0.6647    2.4906 H   0  0  0  0  0  0  0  0  0  0  0  0
   -4.1870    2.3397    2.6540 H   0  0  0  0  0  0  0  0  0  0  0  0
   -5.2375    1.9175    1.2186 H   0  0  0  0  0  0  0  0  0  0  0  0
   -2.3617    2.6698    0.0104 H   0  0  0  0  0  0  0  0  0  0  0  0
   -2.9541    1.3105   -0.9971 H   0  0  0  0  0  0  0  0  0  0  0  0
   -4.1096    2.4758   -0.2496 H   0  0  0  0  0  0  0  0  0  0  0  0
   -3.9219   -5.8842   -0.5545 H   0  0  0  0  0  0  0  0  0  0  0  0
   -1.5995   -5.2094   -1.6746 H   0  0  0  0  0  0  0  0  0  0  0  0
    4.0454    1.4133   -2.0288 H   0  0  0  0  0  0  0  0  0  0  0  0
  1  2  1  0
  2  3  2  0
  3  4  1  0
  4  5  2  0
  5  6  1  0
  5  7  1  0
  7  8  1  0
  8  9  2  0
  8 10  2  0
  8 11  1  0
 11 12  1  0
 12 13  2  0
 13 14  1  0
 14 15  1  0
 15 16  1  0
 16 17  2  0
 17 18  1  0
 18 19  1  0
 19 20  1  0
 19 21  1  0
 17 22  1  0
 22 23  1  0
 23 24  1  0
 24 25  2  0
 25 26  1  0
  7 27  2  0
 27  2  1  0
 15 11  2  0
 26 22  2  0
 26 14  1  0
  1 28  1  0
  1 29  1  0
  1 30  1  0
  3 31  1  0
  4 32  1  0
  6 33  1  0
  6 34  1  0
  6 35  1  0
 18 36  1  0
 19 37  1  0
 20 38  1  0
 20 39  1  0
 20 40  1  0
 21 41  1  0
 21 42  1  0
 21 43  1  0
 24 44  1  0
 25 45  1  0
 27 46  1  0
M  END
$$$$
