@<TRIPOS>MOLECULE
*****
 46 49 0 0 0
SMALL
GASTEIGER

@<TRIPOS>ATOM
      1 C           6.2680    1.9759   -0.5975 C.3     1  UNL1       -0.0397
      2 C           4.9031    1.5954   -0.1143 C.ar    1  UNL1       -0.0486
      3 C           4.7020    1.5065    1.2365 C.ar    1  UNL1       -0.0585
      4 C           3.4585    1.1596    1.6914 C.ar    1  UNL1       -0.0568
      5 C           2.4133    0.9005    0.8132 C.ar    1  UNL1       -0.0252
      6 C           1.1157    0.5457    1.3946 C.3     1  UNL1       -0.0379
      7 C           2.5794    0.9794   -0.5313 C.ar    1  UNL1        0.0986
      8 S           1.3612    0.6684   -1.6769 S.O2    1  UNL1        0.0477
      9 O           1.9066    0.9290   -3.0778 O.2     1  UNL1       -0.1627
     10 O           0.2640    1.6855   -1.4893 O.2     1  UNL1       -0.1627
     11 C           0.6814   -0.9184   -1.7117 C.ar    1  UNL1        0.2490
     12 N           1.1276   -2.0330   -2.3011 N.ar    1  UNL1       -0.1076
     13 N           0.2629   -2.9895   -2.0869 N.ar    1  UNL1       -0.0569
     14 N          -0.7619   -2.5478   -1.3644 N.ar    1  UNL1       -0.1915
     15 C          -0.5300   -1.2589   -1.1146 C.ar    1  UNL1        0.2040
     16 N          -1.3855   -0.4621   -0.3936 N.ar    1  UNL1       -0.2088
     17 C          -2.5002   -1.0603    0.0627 C.ar    1  UNL1        0.1373
     18 N          -3.4769   -0.3616    0.8235 N.pl3   1  UNL1       -0.3257
     19 C          -3.3082    1.0511    1.1450 C.3     1  UNL1        0.0163
     20 C          -4.4973    1.5120    1.9562 C.3     1  UNL1       -0.0469
     21 C          -3.1691    1.8969   -0.0821 C.3     1  UNL1       -0.0469
     22 C          -2.7328   -2.3958   -0.1997 C.ar    1  UNL1        0.0774
     23 S          -4.0611   -3.4258    0.2508 S.2     1  UNL1       -0.0917
     24 C          -3.3903   -4.9557   -0.5823 C.ar    1  UNL1       -0.0216
     25 C          -2.2516   -4.4821   -1.0893 C.ar    1  UNL1       -0.0284
     26 C          -1.8949   -3.1955   -0.9120 C.ar    1  UNL1        0.0869
     27 C           3.8618    1.3364   -0.9659 C.ar    1  UNL1       -0.0332
     28 H           6.3355    2.0087   -1.6916 H       1  UNL1        0.0278
     29 H           7.0313    1.2462   -0.2444 H       1  UNL1        0.0278
     30 H           6.4651    2.9881   -0.1519 H       1  UNL1        0.0278
     31 H           5.5086    1.7062    1.9258 H       1  UNL1        0.0620
     32 H           3.3078    1.0910    2.7792 H       1  UNL1        0.0621
     33 H           1.1277    0.6720    2.5186 H       1  UNL1        0.0278
     34 H           0.9534   -0.5263    1.2473 H       1  UNL1        0.0278
     35 H           0.2891    1.2055    1.0685 H       1  UNL1        0.0278
     36 H          -4.3184   -0.8502    1.1570 H       1  UNL1        0.1477
     37 H          -2.3621    1.1057    1.7430 H       1  UNL1        0.0492
     38 H          -4.9575    0.6647    2.4906 H       1  UNL1        0.0247
     39 H          -4.1870    2.3397    2.6540 H       1  UNL1        0.0247
     40 H          -5.2375    1.9175    1.2186 H       1  UNL1        0.0247
     41 H          -2.3617    2.6698    0.0104 H       1  UNL1        0.0247
     42 H          -2.9541    1.3105   -0.9971 H       1  UNL1        0.0247
     43 H          -4.1096    2.4758   -0.2496 H       1  UNL1        0.0247
     44 H          -3.9219   -5.8842   -0.5545 H       1  UNL1        0.0694
     45 H          -1.5995   -5.2094   -1.6746 H       1  UNL1        0.0644
     46 H           4.0454    1.4133   -2.0288 H       1  UNL1        0.0639
@<TRIPOS>BOND
     1     1     2    1
     2     2     3   ar
     3     3     4   ar
     4     4     5   ar
     5     5     6    1
     6     5     7   ar
     7     7     8    1
     8     8     9    2
     9     8    10    2
    10     8    11    1
    11    11    12   ar
    12    12    13   ar
    13    13    14   ar
    14    14    15   ar
    15    15    16   ar
    16    16    17   ar
    17    17    18    1
    18    18    19    1
    19    19    20    1
    20    19    21    1
    21    17    22   ar
    22    22    23   ar
    23    23    24   ar
    24    24    25   ar
    25    25    26   ar
    26     7    27   ar
    27    27     2   ar
    28    15    11   ar
    29    26    22   ar
    30    26    14   ar
    31     1    28    1
    32     1    29    1
    33     1    30    1
    34     3    31    1
    35     4    32    1
    36     6    33    1
    37     6    34    1
    38     6    35    1
    39    18    36    1
    40    19    37    1
    41    20    38    1
    42    20    39    1
    43    20    40    1
    44    21    41    1
    45    21    42    1
    46    21    43    1
    47    24    44    1
    48    25    45    1
    49    27    46    1
