@<TRIPOS>MOLECULE
*****
 37 38 0 0 0
SMALL
GASTEIGER

@<TRIPOS>ATOM
      1 C          -2.0537   -0.0398    2.8576 C.3     1  UNL1       -0.0493
      2 C          -1.5249    0.9467    1.8715 C.3     1  UNL1        0.0125
      3 N          -0.5565    0.3909    0.9643 N.am    1  UNL1       -0.2935
      4 C           0.8148    0.4050    1.2928 C.2     1  UNL1        0.2472
      5 O           1.1411    0.9214    2.4045 O.2     1  UNL1       -0.2700
      6 C           1.8315   -0.1513    0.3948 C.ar    1  UNL1        0.0413
      7 C           2.1911   -1.4785    0.5044 C.ar    1  UNL1       -0.0479
      8 C           3.1556   -2.0396   -0.3349 C.ar    1  UNL1       -0.0412
      9 C           3.7560   -1.2619   -1.2831 C.ar    1  UNL1        0.0595
     10 CL          4.9766   -1.9576   -2.3507 Cl      1  UNL1       -0.0820
     11 C           3.3796    0.0612   -1.3728 C.ar    1  UNL1        0.0629
     12 CL          4.1611    1.0375   -2.5935 Cl      1  UNL1       -0.0817
     13 C           2.4249    0.6244   -0.5451 C.ar    1  UNL1       -0.0186
     14 C           2.0818    2.0583   -0.7130 C.3     1  UNL1       -0.0376
     15 C          -0.9633   -0.1830   -0.2889 C.3     1  UNL1        0.0399
     16 C          -1.7535    0.8056   -1.1344 C.3     1  UNL1       -0.0205
     17 C          -3.0639    0.1403   -1.4804 C.3     1  UNL1       -0.0023
     18 N          -2.7123   -1.2675   -1.3905 N.3     1  UNL1       -0.3142
     19 C          -1.9151   -1.3467   -0.1594 C.3     1  UNL1        0.0146
     20 H          -1.8950    0.3141    3.9174 H       1  UNL1        0.0245
     21 H          -1.5444   -1.0231    2.8134 H       1  UNL1        0.0245
     22 H          -3.1329   -0.1562    2.7200 H       1  UNL1        0.0245
     23 H          -1.1064    1.8133    2.4502 H       1  UNL1        0.0462
     24 H          -2.3953    1.4043    1.3247 H       1  UNL1        0.0462
     25 H           1.7576   -2.1483    1.2299 H       1  UNL1        0.0626
     26 H           3.4287   -3.0890   -0.2360 H       1  UNL1        0.0633
     27 H           1.1592    2.1926   -1.2999 H       1  UNL1        0.0278
     28 H           2.8923    2.5739   -1.2967 H       1  UNL1        0.0278
     29 H           2.0499    2.5923    0.2680 H       1  UNL1        0.0278
     30 H          -0.0689   -0.5479   -0.8303 H       1  UNL1        0.0513
     31 H          -1.1915    0.9380   -2.0979 H       1  UNL1        0.0296
     32 H          -1.9533    1.7510   -0.6317 H       1  UNL1        0.0296
     33 H          -3.8635    0.3934   -0.7346 H       1  UNL1        0.0425
     34 H          -3.3852    0.4094   -2.5035 H       1  UNL1        0.0425
     35 H          -2.1185   -1.4739   -2.2369 H       1  UNL1        0.1220
     36 H          -1.4022   -2.3189   -0.1804 H       1  UNL1        0.0442
     37 H          -2.6018   -1.2903    0.6813 H       1  UNL1        0.0442
@<TRIPOS>BOND
     1     1     2    1
     2     2     3    1
     3     3     4   am
     4     4     5    2
     5     4     6    1
     6     6     7   ar
     7     7     8   ar
     8     8     9   ar
     9     9    10    1
    10     9    11   ar
    11    11    12    1
    12    11    13   ar
    13    13    14    1
    14     3    15    1
    15    15    16    1
    16    16    17    1
    17    17    18    1
    18    18    19    1
    19    13     6   ar
    20    19    15    1
    21     1    20    1
    22     1    21    1
    23     1    22    1
    24     2    23    1
    25     2    24    1
    26     7    25    1
    27     8    26    1
    28    14    27    1
    29    14    28    1
    30    14    29    1
    31    15    30    1
    32    16    31    1
    33    16    32    1
    34    17    33    1
    35    17    34    1
    36    18    35    1
    37    19    36    1
    38    19    37    1
