
     RDKit          3D

 34 36  0  0  0  0  0  0  0  0999 V2000
   -1.2509    3.6546    0.2083 C   0  0  0  0  0  0  0  0  0  0  0  0
   -1.0886    2.7775   -1.0077 C   0  0  0  0  0  0  0  0  0  0  0  0
   -0.6131    1.4595   -0.6887 N   0  0  0  0  0  0  0  0  0  0  0  0
    0.6774    1.1421   -0.6400 N   0  0  0  0  0  0  0  0  0  0  0  0
    1.1324   -0.0673   -0.3477 C   0  0  0  0  0  0  0  0  0  0  0  0
    2.5775   -0.3781   -0.3044 C   0  0  0  0  0  0  0  0  0  0  0  0
    3.0321   -1.6406    0.0012 C   0  0  0  0  0  0  0  0  0  0  0  0
    4.3798   -1.9317    0.0419 C   0  0  0  0  0  0  0  0  0  0  0  0
    5.3231   -0.9618   -0.2239 C   0  0  0  0  0  0  0  0  0  0  0  0
    4.8701    0.3034   -0.5302 C   0  0  0  0  0  0  0  0  0  0  0  0
    3.5208    0.5919   -0.5702 C   0  0  0  0  0  0  0  0  0  0  0  0
    0.2734   -1.0663   -0.0766 N   0  0  0  0  0  0  0  0  0  0  0  0
   -1.0644   -0.8740   -0.0928 C   0  0  0  0  0  0  0  0  0  0  0  0
   -1.9797   -1.8529    0.1746 C   0  0  0  0  0  0  0  0  0  0  0  0
   -1.5584   -3.0032    0.4529 O   0  0  0  0  0  0  0  0  0  0  0  0
   -3.2894   -1.5497    0.1300 N   0  0  0  0  0  0  0  0  0  0  0  0
   -4.2327   -2.6125    0.4191 C   0  0  0  0  0  0  0  0  0  0  0  0
   -3.6795   -0.3117   -0.1710 C   0  0  0  0  0  0  0  0  0  0  0  0
   -4.9171   -0.0174   -0.2152 O   0  0  0  0  0  0  0  0  0  0  0  0
   -2.8321    0.6944   -0.4436 N   0  0  0  0  0  0  0  0  0  0  0  0
   -1.5059    0.4878   -0.4236 C   0  0  0  0  0  0  0  0  0  0  0  0
   -1.6370    3.1169    1.0837 H   0  0  0  0  0  0  0  0  0  0  0  0
   -2.0024    4.4303   -0.0557 H   0  0  0  0  0  0  0  0  0  0  0  0
   -0.3190    4.1982    0.4572 H   0  0  0  0  0  0  0  0  0  0  0  0
   -2.1056    2.6779   -1.4708 H   0  0  0  0  0  0  0  0  0  0  0  0
   -0.4637    3.3091   -1.7382 H   0  0  0  0  0  0  0  0  0  0  0  0
    2.2962   -2.4044    0.2103 H   0  0  0  0  0  0  0  0  0  0  0  0
    4.6910   -2.9331    0.2854 H   0  0  0  0  0  0  0  0  0  0  0  0
    6.3963   -1.1788   -0.1952 H   0  0  0  0  0  0  0  0  0  0  0  0
    5.6130    1.0684   -0.7398 H   0  0  0  0  0  0  0  0  0  0  0  0
    3.1552    1.5874   -0.8110 H   0  0  0  0  0  0  0  0  0  0  0  0
   -4.5526   -3.0827   -0.5305 H   0  0  0  0  0  0  0  0  0  0  0  0
   -3.7465   -3.3909    1.0368 H   0  0  0  0  0  0  0  0  0  0  0  0
   -5.1000   -2.2424    1.0113 H   0  0  0  0  0  0  0  0  0  0  0  0
  1  2  1  0
  2  3  1  0
  3  4  1  0
  4  5  2  0
  5  6  1  0
  6  7  2  0
  7  8  1  0
  8  9  2  0
  9 10  1  0
 10 11  2  0
  5 12  1  0
 12 13  2  0
 13 14  1  0
 14 15  2  0
 14 16  1  0
 16 17  1  0
 16 18  1  0
 18 19  2  0
 18 20  1  0
 20 21  2  0
 21  3  1  0
 11  6  1  0
 21 13  1  0
  1 22  1  0
  1 23  1  0
  1 24  1  0
  2 25  1  0
  2 26  1  0
  7 27  1  0
  8 28  1  0
  9 29  1  0
 10 30  1  0
 11 31  1  0
 17 32  1  0
 17 33  1  0
 17 34  1  0
M  END
$$$$
