@<TRIPOS>MOLECULE
*****
 34 36 0 0 0
SMALL
GASTEIGER

@<TRIPOS>ATOM
      1 C          -1.2509    3.6546    0.2083 C.3     1  UNL1       -0.0454
      2 C          -1.0886    2.7775   -1.0077 C.3     1  UNL1        0.0411
      3 N          -0.6131    1.4595   -0.6887 N.ar    1  UNL1       -0.2432
      4 N           0.6774    1.1421   -0.6400 N.ar    1  UNL1       -0.1493
      5 C           1.1324   -0.0673   -0.3477 C.ar    1  UNL1        0.1807
      6 C           2.5775   -0.3781   -0.3044 C.ar    1  UNL1        0.0208
      7 C           3.0321   -1.6406    0.0012 C.ar    1  UNL1       -0.0510
      8 C           4.3798   -1.9317    0.0419 C.ar    1  UNL1       -0.0611
      9 C           5.3231   -0.9618   -0.2239 C.ar    1  UNL1       -0.0617
     10 C           4.8701    0.3034   -0.5302 C.ar    1  UNL1       -0.0611
     11 C           3.5208    0.5919   -0.5702 C.ar    1  UNL1       -0.0510
     12 N           0.2734   -1.0663   -0.0766 N.ar    1  UNL1       -0.2172
     13 C          -1.0644   -0.8740   -0.0928 C.ar    1  UNL1        0.1744
     14 C          -1.9797   -1.8529    0.1746 C.ar    1  UNL1        0.2841
     15 O          -1.5584   -3.0032    0.4529 O.2     1  UNL1       -0.2651
     16 N          -3.2894   -1.5497    0.1300 N.ar    1  UNL1       -0.2607
     17 C          -4.2327   -2.6125    0.4191 C.3     1  UNL1        0.0197
     18 C          -3.6795   -0.3117   -0.1710 C.ar    1  UNL1        0.3529
     19 O          -4.9171   -0.0174   -0.2152 O.2     1  UNL1       -0.2443
     20 N          -2.8321    0.6944   -0.4436 N.ar    1  UNL1       -0.1717
     21 C          -1.5059    0.4878   -0.4236 C.ar    1  UNL1        0.1860
     22 H          -1.6370    3.1169    1.0837 H       1  UNL1        0.0247
     23 H          -2.0024    4.4303   -0.0557 H       1  UNL1        0.0247
     24 H          -0.3190    4.1982    0.4572 H       1  UNL1        0.0247
     25 H          -2.1056    2.6779   -1.4708 H       1  UNL1        0.0507
     26 H          -0.4637    3.3091   -1.7382 H       1  UNL1        0.0507
     27 H           2.2962   -2.4044    0.2103 H       1  UNL1        0.0625
     28 H           4.6910   -2.9331    0.2854 H       1  UNL1        0.0618
     29 H           6.3963   -1.1788   -0.1952 H       1  UNL1        0.0618
     30 H           5.6130    1.0684   -0.7398 H       1  UNL1        0.0618
     31 H           3.1552    1.5874   -0.8110 H       1  UNL1        0.0625
     32 H          -4.5526   -3.0827   -0.5305 H       1  UNL1        0.0458
     33 H          -3.7465   -3.3909    1.0368 H       1  UNL1        0.0458
     34 H          -5.1000   -2.2424    1.0113 H       1  UNL1        0.0458
@<TRIPOS>BOND
     1     1     2    1
     2     2     3    1
     3     3     4   ar
     4     4     5   ar
     5     5     6    1
     6     6     7   ar
     7     7     8   ar
     8     8     9   ar
     9     9    10   ar
    10    10    11   ar
    11     5    12   ar
    12    12    13   ar
    13    13    14   ar
    14    14    15    2
    15    14    16   ar
    16    16    17    1
    17    16    18   ar
    18    18    19    2
    19    18    20   ar
    20    20    21   ar
    21    21     3   ar
    22    11     6   ar
    23    21    13    1
    24     1    22    1
    25     1    23    1
    26     1    24    1
    27     2    25    1
    28     2    26    1
    29     7    27    1
    30     8    28    1
    31     9    29    1
    32    10    30    1
    33    11    31    1
    34    17    32    1
    35    17    33    1
    36    17    34    1
