
     RDKit          3D

 51 54  0  0  0  0  0  0  0  0999 V2000
    2.0053    0.0081    1.0560 O   0  0  0  0  0  0  0  0  0  0  0  0
    2.7160   -0.4639    0.0008 C   0  0  1  0  0  0  0  0  0  0  0  0
    2.3456    0.0147   -1.3448 C   0  0  0  0  0  0  0  0  0  0  0  0
    0.9619   -0.3201   -1.7348 C   0  0  0  0  0  0  0  0  0  0  0  0
   -0.0643    0.2881   -0.8705 C   0  0  2  0  0  0  0  0  0  0  0  0
   -1.4583   -0.1102   -1.3603 C   0  0  2  0  0  0  0  0  0  0  0  0
   -1.8613    1.1788   -0.9120 N   0  0  0  0  0  0  0  0  0  0  0  0
   -0.5722    1.6346   -1.3270 C   0  0  0  0  0  0  0  0  0  0  0  0
   -0.0307    2.6479   -1.8353 O   0  0  0  0  0  0  0  0  0  0  0  0
   -2.9508    1.8808   -0.3190 C   0  0  0  0  0  0  0  0  0  0  0  0
   -4.1385    1.2713    0.0017 C   0  0  0  0  0  0  0  0  0  0  0  0
   -5.2214    1.9025    0.5777 C   0  0  0  0  0  0  0  0  0  0  0  0
   -5.1242    3.2479    0.8608 C   0  0  0  0  0  0  0  0  0  0  0  0
   -6.1802    3.8801    1.4265 F   0  0  0  0  0  0  0  0  0  0  0  0
   -3.9549    3.8975    0.5568 C   0  0  0  0  0  0  0  0  0  0  0  0
   -2.9098    3.2088   -0.0180 C   0  0  0  0  0  0  0  0  0  0  0  0
   -2.0050   -1.2990   -0.6698 C   0  0  0  0  0  0  0  0  0  0  0  0
   -1.9804   -1.2374    0.7266 C   0  0  0  0  0  0  0  0  0  0  0  0
   -2.4635   -2.2869    1.4967 C   0  0  0  0  0  0  0  0  0  0  0  0
   -2.9802   -3.4177    0.8971 C   0  0  0  0  0  0  0  0  0  0  0  0
   -3.4410   -4.4184    1.7102 O   0  0  0  0  0  0  0  0  0  0  0  0
   -3.0023   -3.4740   -0.4752 C   0  0  0  0  0  0  0  0  0  0  0  0
   -2.5247   -2.4364   -1.2563 C   0  0  0  0  0  0  0  0  0  0  0  0
    4.1985   -0.2207    0.1636 C   0  0  0  0  0  0  0  0  0  0  0  0
    4.7015    0.9818    0.5891 C   0  0  0  0  0  0  0  0  0  0  0  0
    6.0702    1.1876    0.7331 C   0  0  0  0  0  0  0  0  0  0  0  0
    6.9579    0.1584    0.4421 C   0  0  0  0  0  0  0  0  0  0  0  0
    8.2849    0.3800    0.5891 F   0  0  0  0  0  0  0  0  0  0  0  0
    6.4405   -1.0460    0.0152 C   0  0  0  0  0  0  0  0  0  0  0  0
    5.0991   -1.2488   -0.1264 C   0  0  0  0  0  0  0  0  0  0  0  0
    2.2950    0.8718    1.4282 H   0  0  0  0  0  0  0  0  0  0  0  0
    2.5717   -1.5864   -0.0041 H   0  0  0  0  0  0  0  0  0  0  0  0
    2.5244    1.1385   -1.3802 H   0  0  0  0  0  0  0  0  0  0  0  0
    3.0733   -0.3918   -2.0949 H   0  0  0  0  0  0  0  0  0  0  0  0
    0.7234   -0.0604   -2.7988 H   0  0  0  0  0  0  0  0  0  0  0  0
    0.7835   -1.4444   -1.7099 H   0  0  0  0  0  0  0  0  0  0  0  0
    0.0315    0.3293    0.2064 H   0  0  0  0  0  0  0  0  0  0  0  0
   -1.4387   -0.1450   -2.4675 H   0  0  0  0  0  0  0  0  0  0  0  0
   -4.2975    0.2207   -0.1890 H   0  0  0  0  0  0  0  0  0  0  0  0
   -6.1472    1.3758    0.8154 H   0  0  0  0  0  0  0  0  0  0  0  0
   -3.9129    4.9475    0.7910 H   0  0  0  0  0  0  0  0  0  0  0  0
   -2.0088    3.7936   -0.2322 H   0  0  0  0  0  0  0  0  0  0  0  0
   -1.5900   -0.3825    1.2568 H   0  0  0  0  0  0  0  0  0  0  0  0
   -2.4257   -2.1980    2.5888 H   0  0  0  0  0  0  0  0  0  0  0  0
   -3.6390   -5.3816    1.4184 H   0  0  0  0  0  0  0  0  0  0  0  0
   -3.4004   -4.3453   -0.9598 H   0  0  0  0  0  0  0  0  0  0  0  0
   -2.5228   -2.4387   -2.3507 H   0  0  0  0  0  0  0  0  0  0  0  0
    4.0477    1.7926    0.8208 H   0  0  0  0  0  0  0  0  0  0  0  0
    6.4722    2.1445    1.0718 H   0  0  0  0  0  0  0  0  0  0  0  0
    7.1875   -1.8116   -0.1965 H   0  0  0  0  0  0  0  0  0  0  0  0
    4.7548   -2.2178   -0.4658 H   0  0  0  0  0  0  0  0  0  0  0  0
  1  2  1  0
  2  3  1  0
  3  4  1  0
  4  5  1  0
  5  6  1  0
  6  7  1  0
  7  8  1  0
  8  9  2  0
  7 10  1  0
 10 11  2  0
 11 12  1  0
 12 13  2  0
 13 14  1  0
 13 15  1  0
 15 16  2  0
  6 17  1  0
 17 18  2  0
 18 19  1  0
 19 20  2  0
 20 21  1  0
 20 22  1  0
 22 23  2  0
  2 24  1  0
 24 25  2  0
 25 26  1  0
 26 27  2  0
 27 28  1  0
 27 29  1  0
 29 30  2  0
  8  5  1  0
 16 10  1  0
 23 17  1  0
 30 24  1  0
  1 31  1  0
  2 32  1  6
  3 33  1  0
  3 34  1  0
  4 35  1  0
  4 36  1  0
  5 37  1  1
  6 38  1  6
 11 39  1  0
 12 40  1  0
 15 41  1  0
 16 42  1  0
 18 43  1  0
 19 44  1  0
 21 45  1  0
 22 46  1  0
 23 47  1  0
 25 48  1  0
 26 49  1  0
 29 50  1  0
 30 51  1  0
M  END
$$$$
