@<TRIPOS>MOLECULE
*****
 34 34 0 0 0
SMALL
GASTEIGER

@<TRIPOS>ATOM
      1 C          -2.3455   -0.7929    0.4848 C.3     1  UNL1        0.1126
      2 C          -2.5889   -1.8312   -0.6018 C.3     1  UNL1        0.0730
      3 O          -2.3683   -3.1275   -0.1153 O.3     1  UNL1       -0.3924
      4 O          -1.0803   -0.9160    0.8792 O.3     1  UNL1       -0.3442
      5 C          -0.2009    0.1025    0.9287 C.3     1  UNL1        0.1833
      6 N           0.9784   -0.3388    0.2420 N.2     1  UNL1       -0.1989
      7 C           2.1320    0.1599    0.2343 C.2     1  UNL1        0.3162
      8 O           2.4725    1.2878    0.9321 O.2     1  UNL1       -0.4785
      9 N           2.6584   -0.8335   -0.6407 N.2     1  UNL1       -0.1646
     10 C           3.9231   -0.9602   -0.8711 C.2     1  UNL1        0.1885
     11 C           4.9822   -0.0851   -0.2516 C.3     1  UNL1        0.0117
     12 O           4.1404   -2.0169   -1.7678 O.2     1  UNL1       -0.4955
     13 C          -0.6143    1.4181    0.3894 C.3     1  UNL1        0.1299
     14 O          -0.9734    2.3022    1.4124 O.3     1  UNL1       -0.3846
     15 C          -1.7305    1.3849   -0.6150 C.3     1  UNL1        0.1136
     16 O          -1.2934    0.9269   -1.8381 O.3     1  UNL1       -0.3864
     17 C          -2.8079    0.5159   -0.0419 C.3     1  UNL1        0.1119
     18 O          -3.4521    1.2514    0.9598 O.3     1  UNL1       -0.3865
     19 H          -3.0267   -1.0652    1.3196 H       1  UNL1        0.0647
     20 H          -3.6140   -1.7614   -1.0003 H       1  UNL1        0.0584
     21 H          -1.9099   -1.7123   -1.4717 H       1  UNL1        0.0584
     22 H          -2.9977   -3.2557    0.6514 H       1  UNL1        0.2095
     23 H           0.0177    0.2443    2.0261 H       1  UNL1        0.0881
     24 H           2.0507    1.4190    1.8458 H       1  UNL1        0.2953
     25 H           4.6592    0.1422    0.8064 H       1  UNL1        0.0324
     26 H           5.0656    0.8573   -0.8257 H       1  UNL1        0.0324
     27 H           5.9236   -0.6267   -0.1578 H       1  UNL1        0.0324
     28 H           3.7133   -2.9261   -1.6281 H       1  UNL1        0.2934
     29 H           0.2498    1.9083   -0.1236 H       1  UNL1        0.0666
     30 H          -1.5049    3.0672    1.0921 H       1  UNL1        0.2101
     31 H          -2.1238    2.4343   -0.6776 H       1  UNL1        0.0647
     32 H          -1.5816    1.5334   -2.5786 H       1  UNL1        0.2100
     33 H          -3.5836    0.3618   -0.8427 H       1  UNL1        0.0647
     34 H          -3.1694    0.9322    1.8454 H       1  UNL1        0.2100
@<TRIPOS>BOND
     1     1     2    1
     2     2     3    1
     3     1     4    1
     4     4     5    1
     5     5     6    1
     6     6     7    2
     7     7     8    1
     8     7     9    1
     9     9    10    2
    10    10    11    1
    11    10    12    1
    12     5    13    1
    13    13    14    1
    14    13    15    1
    15    15    16    1
    16    15    17    1
    17    17    18    1
    18    17     1    1
    19     1    19    1
    20     2    20    1
    21     2    21    1
    22     3    22    1
    23     5    23    1
    24     8    24    1
    25    11    25    1
    26    11    26    1
    27    11    27    1
    28    12    28    1
    29    13    29    1
    30    14    30    1
    31    15    31    1
    32    16    32    1
    33    17    33    1
    34    18    34    1
