
     RDKit          3D

 34 34  0  0  0  0  0  0  0  0999 V2000
   -2.3455   -0.7929    0.4848 C   0  0  1  0  0  0  0  0  0  0  0  0
   -2.5889   -1.8312   -0.6018 C   0  0  0  0  0  0  0  0  0  0  0  0
   -2.3683   -3.1275   -0.1153 O   0  0  0  0  0  0  0  0  0  0  0  0
   -1.0803   -0.9160    0.8792 O   0  0  0  0  0  0  0  0  0  0  0  0
   -0.2009    0.1025    0.9287 C   0  0  1  0  0  0  0  0  0  0  0  0
    0.9784   -0.3388    0.2420 N   0  0  0  0  0  0  0  0  0  0  0  0
    2.1320    0.1599    0.2343 C   0  0  0  0  0  0  0  0  0  0  0  0
    2.4725    1.2878    0.9321 O   0  0  0  0  0  0  0  0  0  0  0  0
    2.6584   -0.8335   -0.6407 N   0  0  0  0  0  0  0  0  0  0  0  0
    3.9231   -0.9602   -0.8711 C   0  0  0  0  0  0  0  0  0  0  0  0
    4.9822   -0.0851   -0.2516 C   0  0  0  0  0  0  0  0  0  0  0  0
    4.1404   -2.0169   -1.7678 O   0  0  0  0  0  0  0  0  0  0  0  0
   -0.6143    1.4181    0.3894 C   0  0  2  0  0  0  0  0  0  0  0  0
   -0.9734    2.3022    1.4124 O   0  0  0  0  0  0  0  0  0  0  0  0
   -1.7305    1.3849   -0.6150 C   0  0  1  0  0  0  0  0  0  0  0  0
   -1.2934    0.9269   -1.8381 O   0  0  0  0  0  0  0  0  0  0  0  0
   -2.8079    0.5159   -0.0419 C   0  0  2  0  0  0  0  0  0  0  0  0
   -3.4521    1.2514    0.9598 O   0  0  0  0  0  0  0  0  0  0  0  0
   -3.0267   -1.0652    1.3196 H   0  0  0  0  0  0  0  0  0  0  0  0
   -3.6140   -1.7614   -1.0003 H   0  0  0  0  0  0  0  0  0  0  0  0
   -1.9099   -1.7123   -1.4717 H   0  0  0  0  0  0  0  0  0  0  0  0
   -2.9977   -3.2557    0.6514 H   0  0  0  0  0  0  0  0  0  0  0  0
    0.0177    0.2443    2.0261 H   0  0  0  0  0  0  0  0  0  0  0  0
    2.0507    1.4190    1.8458 H   0  0  0  0  0  0  0  0  0  0  0  0
    4.6592    0.1422    0.8064 H   0  0  0  0  0  0  0  0  0  0  0  0
    5.0656    0.8573   -0.8257 H   0  0  0  0  0  0  0  0  0  0  0  0
    5.9236   -0.6267   -0.1578 H   0  0  0  0  0  0  0  0  0  0  0  0
    3.7133   -2.9261   -1.6281 H   0  0  0  0  0  0  0  0  0  0  0  0
    0.2498    1.9083   -0.1236 H   0  0  0  0  0  0  0  0  0  0  0  0
   -1.5049    3.0672    1.0921 H   0  0  0  0  0  0  0  0  0  0  0  0
   -2.1238    2.4343   -0.6776 H   0  0  0  0  0  0  0  0  0  0  0  0
   -1.5816    1.5334   -2.5786 H   0  0  0  0  0  0  0  0  0  0  0  0
   -3.5836    0.3618   -0.8427 H   0  0  0  0  0  0  0  0  0  0  0  0
   -3.1694    0.9322    1.8454 H   0  0  0  0  0  0  0  0  0  0  0  0
  1  2  1  0
  2  3  1  0
  1  4  1  0
  4  5  1  0
  5  6  1  0
  6  7  2  3
  7  8  1  0
  7  9  1  0
  9 10  2  3
 10 11  1  0
 10 12  1  0
  5 13  1  0
 13 14  1  0
 13 15  1  0
 15 16  1  0
 15 17  1  0
 17 18  1  0
 17  1  1  0
  1 19  1  1
  2 20  1  0
  2 21  1  0
  3 22  1  0
  5 23  1  1
  8 24  1  0
 11 25  1  0
 11 26  1  0
 11 27  1  0
 12 28  1  0
 13 29  1  6
 14 30  1  0
 15 31  1  6
 16 32  1  0
 17 33  1  6
 18 34  1  0
M  END
$$$$
