@<TRIPOS>MOLECULE
*****
 48 51 0 0 0
SMALL
GASTEIGER

@<TRIPOS>ATOM
      1 C          -3.0432   -2.4815    0.9031 C.3     1  UNL1       -0.0457
      2 C          -3.2427   -1.1526    1.5996 C.3     1  UNL1        0.0323
      3 C          -4.6796   -0.7873    1.7523 C.3     1  UNL1       -0.0071
      4 C          -4.9443   -0.0537    0.4621 C.ar    1  UNL1       -0.0242
      5 C          -6.0937    0.2859   -0.1998 C.ar    1  UNL1       -0.0567
      6 C          -6.0680    0.9776   -1.3918 C.ar    1  UNL1       -0.0614
      7 C          -4.8375    1.3313   -1.9210 C.ar    1  UNL1       -0.0600
      8 C          -3.6652    1.0044   -1.2794 C.ar    1  UNL1       -0.0400
      9 C          -3.7185    0.3133   -0.0905 C.ar    1  UNL1        0.0398
     10 N          -2.6583   -0.1193    0.7254 N.am    1  UNL1       -0.2677
     11 C          -1.2891    0.2482    0.8067 C.2     1  UNL1        0.2273
     12 O          -0.5524   -0.3030    1.7056 O.2     1  UNL1       -0.2748
     13 C          -0.6030    1.2216   -0.0526 C.3     1  UNL1        0.0826
     14 C           0.8041    1.3659    0.4128 C.ar    1  UNL1        0.1206
     15 N           1.7722    0.5797   -0.0821 N.ar    1  UNL1       -0.2186
     16 C           3.0564    0.6883    0.3220 C.ar    1  UNL1        0.1285
     17 N           4.0792   -0.1634   -0.2204 N.pl3   1  UNL1       -0.3106
     18 C           5.4403   -0.0570    0.2029 C.3     1  UNL1        0.0370
     19 C           6.1504   -1.3302   -0.1977 C.3     1  UNL1        0.0634
     20 O           6.0648   -1.6175   -1.5324 O.3     1  UNL1       -0.3767
     21 C           4.8633   -1.3612   -2.1286 C.3     1  UNL1        0.0634
     22 C           3.7169   -1.1349   -1.2041 C.3     1  UNL1        0.0370
     23 C           3.3931    1.6295    1.2688 C.ar    1  UNL1        0.0427
     24 C           2.4012    2.4489    1.7886 C.ar    1  UNL1        0.2533
     25 O           2.6481    3.3305    2.6590 O.2     1  UNL1       -0.2677
     26 N           1.1557    2.2754    1.3338 N.ar    1  UNL1       -0.3104
     27 H          -1.9832   -2.7383    0.9650 H       1  UNL1        0.0248
     28 H          -3.6330   -3.2361    1.4617 H       1  UNL1        0.0248
     29 H          -3.4064   -2.3506   -0.1372 H       1  UNL1        0.0248
     30 H          -2.7590   -1.1117    2.5973 H       1  UNL1        0.0505
     31 H          -4.7860   -0.0183    2.5558 H       1  UNL1        0.0332
     32 H          -5.3586   -1.6429    1.8782 H       1  UNL1        0.0332
     33 H          -7.0447   -0.0163    0.2590 H       1  UNL1        0.0621
     34 H          -6.9753    1.2383   -1.9017 H       1  UNL1        0.0618
     35 H          -4.7965    1.8786   -2.8628 H       1  UNL1        0.0618
     36 H          -2.7285    1.2988   -1.7216 H       1  UNL1        0.0636
     37 H          -1.1133    2.1717   -0.1843 H       1  UNL1        0.0438
     38 H          -0.5792    0.7262   -1.0803 H       1  UNL1        0.0438
     39 H           5.9552    0.8473   -0.1718 H       1  UNL1        0.0487
     40 H           5.4720   -0.0007    1.3131 H       1  UNL1        0.0487
     41 H           5.7904   -2.1546    0.4678 H       1  UNL1        0.0575
     42 H           7.2231   -1.1859    0.0599 H       1  UNL1        0.0575
     43 H           4.9473   -0.4834   -2.8049 H       1  UNL1        0.0575
     44 H           4.5973   -2.2396   -2.7775 H       1  UNL1        0.0575
     45 H           3.3294   -2.0799   -0.7772 H       1  UNL1        0.0487
     46 H           2.8743   -0.7045   -1.8008 H       1  UNL1        0.0487
     47 H           4.4102    1.7489    1.6197 H       1  UNL1        0.0706
     48 H           0.4142    2.9142    1.7467 H       1  UNL1        0.1700
@<TRIPOS>BOND
     1     1     2    1
     2     2     3    1
     3     3     4    1
     4     4     5   ar
     5     5     6   ar
     6     6     7   ar
     7     7     8   ar
     8     8     9   ar
     9     9    10    1
    10    10    11   am
    11    11    12    2
    12    11    13    1
    13    13    14    1
    14    14    15   ar
    15    15    16   ar
    16    16    17    1
    17    17    18    1
    18    18    19    1
    19    19    20    1
    20    20    21    1
    21    21    22    1
    22    16    23   ar
    23    23    24   ar
    24    24    25    2
    25    24    26   ar
    26    10     2    1
    27    26    14   ar
    28     9     4   ar
    29    22    17    1
    30     1    27    1
    31     1    28    1
    32     1    29    1
    33     2    30    1
    34     3    31    1
    35     3    32    1
    36     5    33    1
    37     6    34    1
    38     7    35    1
    39     8    36    1
    40    13    37    1
    41    13    38    1
    42    18    39    1
    43    18    40    1
    44    19    41    1
    45    19    42    1
    46    21    43    1
    47    21    44    1
    48    22    45    1
    49    22    46    1
    50    23    47    1
    51    26    48    1
