
     RDKit          3D

 48 51  0  0  0  0  0  0  0  0999 V2000
   -3.0432   -2.4815    0.9031 C   0  0  0  0  0  0  0  0  0  0  0  0
   -3.2427   -1.1526    1.5996 C   0  0  2  0  0  0  0  0  0  0  0  0
   -4.6796   -0.7873    1.7523 C   0  0  0  0  0  0  0  0  0  0  0  0
   -4.9443   -0.0537    0.4621 C   0  0  0  0  0  0  0  0  0  0  0  0
   -6.0937    0.2859   -0.1998 C   0  0  0  0  0  0  0  0  0  0  0  0
   -6.0680    0.9776   -1.3918 C   0  0  0  0  0  0  0  0  0  0  0  0
   -4.8375    1.3313   -1.9210 C   0  0  0  0  0  0  0  0  0  0  0  0
   -3.6652    1.0044   -1.2794 C   0  0  0  0  0  0  0  0  0  0  0  0
   -3.7185    0.3133   -0.0905 C   0  0  0  0  0  0  0  0  0  0  0  0
   -2.6583   -0.1193    0.7254 N   0  0  0  0  0  0  0  0  0  0  0  0
   -1.2891    0.2482    0.8067 C   0  0  0  0  0  0  0  0  0  0  0  0
   -0.5524   -0.3030    1.7056 O   0  0  0  0  0  0  0  0  0  0  0  0
   -0.6030    1.2216   -0.0526 C   0  0  0  0  0  0  0  0  0  0  0  0
    0.8041    1.3659    0.4128 C   0  0  0  0  0  0  0  0  0  0  0  0
    1.7722    0.5797   -0.0821 N   0  0  0  0  0  0  0  0  0  0  0  0
    3.0564    0.6883    0.3220 C   0  0  0  0  0  0  0  0  0  0  0  0
    4.0792   -0.1634   -0.2204 N   0  0  0  0  0  0  0  0  0  0  0  0
    5.4403   -0.0570    0.2029 C   0  0  0  0  0  0  0  0  0  0  0  0
    6.1504   -1.3302   -0.1977 C   0  0  0  0  0  0  0  0  0  0  0  0
    6.0648   -1.6175   -1.5324 O   0  0  0  0  0  0  0  0  0  0  0  0
    4.8633   -1.3612   -2.1286 C   0  0  0  0  0  0  0  0  0  0  0  0
    3.7169   -1.1349   -1.2041 C   0  0  0  0  0  0  0  0  0  0  0  0
    3.3931    1.6295    1.2688 C   0  0  0  0  0  0  0  0  0  0  0  0
    2.4012    2.4489    1.7886 C   0  0  0  0  0  0  0  0  0  0  0  0
    2.6481    3.3305    2.6590 O   0  0  0  0  0  0  0  0  0  0  0  0
    1.1557    2.2754    1.3338 N   0  0  0  0  0  0  0  0  0  0  0  0
   -1.9832   -2.7383    0.9650 H   0  0  0  0  0  0  0  0  0  0  0  0
   -3.6330   -3.2361    1.4617 H   0  0  0  0  0  0  0  0  0  0  0  0
   -3.4064   -2.3506   -0.1372 H   0  0  0  0  0  0  0  0  0  0  0  0
   -2.7590   -1.1117    2.5973 H   0  0  0  0  0  0  0  0  0  0  0  0
   -4.7860   -0.0183    2.5558 H   0  0  0  0  0  0  0  0  0  0  0  0
   -5.3586   -1.6429    1.8782 H   0  0  0  0  0  0  0  0  0  0  0  0
   -7.0447   -0.0163    0.2590 H   0  0  0  0  0  0  0  0  0  0  0  0
   -6.9753    1.2383   -1.9017 H   0  0  0  0  0  0  0  0  0  0  0  0
   -4.7965    1.8786   -2.8628 H   0  0  0  0  0  0  0  0  0  0  0  0
   -2.7285    1.2988   -1.7216 H   0  0  0  0  0  0  0  0  0  0  0  0
   -1.1133    2.1717   -0.1843 H   0  0  0  0  0  0  0  0  0  0  0  0
   -0.5792    0.7262   -1.0803 H   0  0  0  0  0  0  0  0  0  0  0  0
    5.9552    0.8473   -0.1718 H   0  0  0  0  0  0  0  0  0  0  0  0
    5.4720   -0.0007    1.3131 H   0  0  0  0  0  0  0  0  0  0  0  0
    5.7904   -2.1546    0.4678 H   0  0  0  0  0  0  0  0  0  0  0  0
    7.2231   -1.1859    0.0599 H   0  0  0  0  0  0  0  0  0  0  0  0
    4.9473   -0.4834   -2.8049 H   0  0  0  0  0  0  0  0  0  0  0  0
    4.5973   -2.2396   -2.7775 H   0  0  0  0  0  0  0  0  0  0  0  0
    3.3294   -2.0799   -0.7772 H   0  0  0  0  0  0  0  0  0  0  0  0
    2.8743   -0.7045   -1.8008 H   0  0  0  0  0  0  0  0  0  0  0  0
    4.4102    1.7489    1.6197 H   0  0  0  0  0  0  0  0  0  0  0  0
    0.4142    2.9142    1.7467 H   0  0  0  0  0  0  0  0  0  0  0  0
  1  2  1  0
  2  3  1  0
  3  4  1  0
  4  5  2  0
  5  6  1  0
  6  7  2  0
  7  8  1  0
  8  9  2  0
  9 10  1  0
 10 11  1  0
 11 12  2  0
 11 13  1  0
 13 14  1  0
 14 15  2  0
 15 16  1  0
 16 17  1  0
 17 18  1  0
 18 19  1  0
 19 20  1  0
 20 21  1  0
 21 22  1  0
 16 23  2  0
 23 24  1  0
 24 25  2  0
 24 26  1  0
 10  2  1  0
 26 14  1  0
  9  4  1  0
 22 17  1  0
  1 27  1  0
  1 28  1  0
  1 29  1  0
  2 30  1  1
  3 31  1  0
  3 32  1  0
  5 33  1  0
  6 34  1  0
  7 35  1  0
  8 36  1  0
 13 37  1  0
 13 38  1  0
 18 39  1  0
 18 40  1  0
 19 41  1  0
 19 42  1  0
 21 43  1  0
 21 44  1  0
 22 45  1  0
 22 46  1  0
 23 47  1  0
 26 48  1  0
M  END
$$$$
