@<TRIPOS>MOLECULE
*****
 37 39 0 0 0
SMALL
GASTEIGER

@<TRIPOS>ATOM
      1 C          -1.3369   -2.8903    2.4125 C.3     1  UNL1       -0.0222
      2 C          -1.1001   -2.0515    1.2090 C.ar    1  UNL1        0.0426
      3 C          -2.1273   -1.9209    0.3042 C.ar    1  UNL1        0.0018
      4 C          -1.9033   -1.1434   -0.8083 C.ar    1  UNL1        0.1324
      5 O          -2.8884   -0.9776   -1.7419 O.3     1  UNL1       -0.4543
      6 C          -3.8330    0.0346   -1.7120 C.ar    1  UNL1        0.1492
      7 C          -4.8047    0.1572   -2.6773 C.ar    1  UNL1        0.0700
      8 N          -5.7175    1.1539   -2.6283 N.ar    1  UNL1       -0.2568
      9 C          -5.7262    2.0728   -1.6417 C.ar    1  UNL1        0.0630
     10 C          -4.7582    1.9734   -0.6555 C.ar    1  UNL1        0.1449
     11 F          -4.7785    2.9011    0.3273 F       1  UNL1       -0.2038
     12 C          -3.8087    0.9538   -0.6879 C.ar    1  UNL1        0.0189
     13 C          -0.6653   -0.5241   -0.9800 C.ar    1  UNL1        0.0112
     14 C           0.3400   -0.6748   -0.0573 C.ar    1  UNL1        0.1295
     15 C           1.6674   -0.0302   -0.2098 C.2     1  UNL1        0.2678
     16 O           1.8943    0.6815   -1.2136 O.2     1  UNL1       -0.2681
     17 N           2.6737   -0.2036    0.7510 N.am    1  UNL1       -0.2651
     18 C           3.9741    0.3457    0.7351 C.ar    1  UNL1        0.1252
     19 C           4.4765    1.1523   -0.2381 C.ar    1  UNL1       -0.0201
     20 C           5.7674    1.6824   -0.2290 C.ar    1  UNL1       -0.0387
     21 C           6.5676    1.3585    0.8382 C.ar    1  UNL1        0.0592
     22 CL          8.1992    1.9823    0.9248 Cl      1  UNL1       -0.0820
     23 C           6.0723    0.5355    1.8428 C.ar    1  UNL1        0.0480
     24 N           4.8267    0.0624    1.7716 N.ar    1  UNL1       -0.2387
     25 N           0.0992   -1.4368    1.0187 N.ar    1  UNL1       -0.2470
     26 H          -0.4027   -3.3596    2.7792 H       1  UNL1        0.0293
     27 H          -1.8101   -2.3018    3.2352 H       1  UNL1        0.0293
     28 H          -2.0673   -3.6853    2.1542 H       1  UNL1        0.0293
     29 H          -3.0922   -2.4254    0.4734 H       1  UNL1        0.0672
     30 H          -4.8675   -0.5429   -3.5072 H       1  UNL1        0.0867
     31 H          -6.4777    2.8563   -1.6415 H       1  UNL1        0.0859
     32 H          -3.0899    0.9475    0.1177 H       1  UNL1        0.0684
     33 H          -0.4550    0.0945   -1.8434 H       1  UNL1        0.0677
     34 H           2.3871   -0.8350    1.5840 H       1  UNL1        0.1566
     35 H           3.8767    1.4213   -1.0806 H       1  UNL1        0.0652
     36 H           6.1370    2.3163   -1.0109 H       1  UNL1        0.0634
     37 H           6.7514    0.3201    2.6516 H       1  UNL1        0.0845
@<TRIPOS>BOND
     1     1     2    1
     2     2     3   ar
     3     3     4   ar
     4     4     5    1
     5     5     6    1
     6     6     7   ar
     7     7     8   ar
     8     8     9   ar
     9     9    10   ar
    10    10    11    1
    11    10    12   ar
    12     4    13   ar
    13    13    14   ar
    14    14    15    1
    15    15    16    2
    16    15    17   am
    17    17    18    1
    18    18    19   ar
    19    19    20   ar
    20    20    21   ar
    21    21    22    1
    22    21    23   ar
    23    23    24   ar
    24    14    25   ar
    25    25     2   ar
    26    12     6   ar
    27    24    18   ar
    28     1    26    1
    29     1    27    1
    30     1    28    1
    31     3    29    1
    32     7    30    1
    33     9    31    1
    34    12    32    1
    35    13    33    1
    36    17    34    1
    37    19    35    1
    38    20    36    1
    39    23    37    1
