
     RDKit          3D

 63 65  0  0  0  0  0  0  0  0999 V2000
    2.6927    0.8575    1.6347 C   0  0  0  0  0  0  0  0  0  0  0  0
    2.0618   -0.3266    0.9300 C   0  0  1  0  0  0  0  0  0  0  0  0
    0.6037   -0.0581    0.6923 C   0  0  0  0  0  0  0  0  0  0  0  0
    0.1173   -0.2194   -0.6211 N   0  0  0  0  0  0  0  0  0  0  0  0
   -1.0893    0.5299   -0.8705 C   0  0  0  0  0  0  0  0  0  0  0  0
   -2.2690   -0.0270   -0.1017 C   0  0  2  0  0  0  0  0  0  0  0  0
   -2.4708   -1.4421   -0.5416 C   0  0  0  0  0  0  0  0  0  0  0  0
   -3.5967   -2.0364    0.1745 C   0  0  0  0  0  0  0  0  0  0  0  0
   -3.2307   -2.5980    1.4021 C   0  0  0  0  0  0  0  0  0  0  0  0
   -4.1364   -3.2170    2.2324 C   0  0  0  0  0  0  0  0  0  0  0  0
   -5.4529   -3.2791    1.8268 C   0  0  0  0  0  0  0  0  0  0  0  0
   -5.8777   -2.7355    0.6103 C   0  0  0  0  0  0  0  0  0  0  0  0
   -4.9211   -2.1341   -0.1668 C   0  0  0  0  0  0  0  0  0  0  0  0
   -3.4501    0.8099   -0.4315 C   0  0  0  0  0  0  0  0  0  0  0  0
   -4.6118    0.9434   -0.9262 O   0  0  0  0  0  0  0  0  0  0  0  0
   -3.2014    2.1553    0.0172 N   0  0  0  0  0  0  0  0  0  0  0  0
   -4.2999    3.1018   -0.2473 C   0  0  0  0  0  0  0  0  0  0  0  0
   -3.9408    4.4376    0.2559 C   0  0  0  0  0  0  0  0  0  0  0  0
   -4.9337    5.3982    0.0456 O   0  0  0  0  0  0  0  0  0  0  0  0
   -2.9164    4.9142    0.8460 O   0  0  0  0  0  0  0  0  0  0  0  0
    1.0285   -0.0021   -1.6918 C   0  0  0  0  0  0  0  0  0  0  0  0
    2.1446   -1.0098   -1.5214 C   0  0  0  0  0  0  0  0  0  0  0  0
    2.8359   -0.9078   -0.1769 C   0  0  2  0  0  0  0  0  0  0  0  0
    3.1559   -2.3894    0.1698 C   0  0  0  0  0  0  0  0  0  0  0  0
    4.1376   -0.2509   -0.4549 C   0  0  0  0  0  0  0  0  0  0  0  0
    4.3810    1.0815   -0.6740 C   0  0  0  0  0  0  0  0  0  0  0  0
    5.6195    1.6322   -0.9137 C   0  0  0  0  0  0  0  0  0  0  0  0
    5.7361    3.0036   -1.1217 O   0  0  0  0  0  0  0  0  0  0  0  0
    6.7281    0.8127   -0.9442 C   0  0  0  0  0  0  0  0  0  0  0  0
    6.5936   -0.5401   -0.7371 C   0  0  0  0  0  0  0  0  0  0  0  0
    5.3186   -1.0049   -0.5046 C   0  0  0  0  0  0  0  0  0  0  0  0
    3.7890    0.8001    1.6655 H   0  0  0  0  0  0  0  0  0  0  0  0
    2.2809    1.8363    1.3047 H   0  0  0  0  0  0  0  0  0  0  0  0
    2.3899    0.7765    2.7290 H   0  0  0  0  0  0  0  0  0  0  0  0
    2.0510   -1.1186    1.7536 H   0  0  0  0  0  0  0  0  0  0  0  0
   -0.0665   -0.6419    1.3734 H   0  0  0  0  0  0  0  0  0  0  0  0
    0.3980    1.0084    0.9928 H   0  0  0  0  0  0  0  0  0  0  0  0
   -1.3678    0.4825   -1.9515 H   0  0  0  0  0  0  0  0  0  0  0  0
   -0.8967    1.6080   -0.6089 H   0  0  0  0  0  0  0  0  0  0  0  0
   -2.0466    0.0331    0.9831 H   0  0  0  0  0  0  0  0  0  0  0  0
   -1.5241   -2.0260   -0.3918 H   0  0  0  0  0  0  0  0  0  0  0  0
   -2.7073   -1.4533   -1.6323 H   0  0  0  0  0  0  0  0  0  0  0  0
   -2.2102   -2.5938    1.7995 H   0  0  0  0  0  0  0  0  0  0  0  0
   -3.9469   -3.6685    3.1773 H   0  0  0  0  0  0  0  0  0  0  0  0
   -6.2513   -3.7434    2.4030 H   0  0  0  0  0  0  0  0  0  0  0  0
   -6.8846   -2.7459    0.2274 H   0  0  0  0  0  0  0  0  0  0  0  0
   -5.1687   -1.7011   -1.1118 H   0  0  0  0  0  0  0  0  0  0  0  0
   -2.3369    2.5414    0.5060 H   0  0  0  0  0  0  0  0  0  0  0  0
   -4.4352    3.1632   -1.3570 H   0  0  0  0  0  0  0  0  0  0  0  0
   -5.2144    2.7403    0.2473 H   0  0  0  0  0  0  0  0  0  0  0  0
   -4.8259    6.3764    0.2899 H   0  0  0  0  0  0  0  0  0  0  0  0
    1.3804    1.0349   -1.6874 H   0  0  0  0  0  0  0  0  0  0  0  0
    0.5124   -0.2825   -2.6322 H   0  0  0  0  0  0  0  0  0  0  0  0
    1.6575   -1.9978   -1.6780 H   0  0  0  0  0  0  0  0  0  0  0  0
    2.8360   -0.8710   -2.3802 H   0  0  0  0  0  0  0  0  0  0  0  0
    3.4629   -2.9468   -0.7354 H   0  0  0  0  0  0  0  0  0  0  0  0
    3.8150   -2.4713    1.0325 H   0  0  0  0  0  0  0  0  0  0  0  0
    2.1542   -2.7640    0.5346 H   0  0  0  0  0  0  0  0  0  0  0  0
    3.5298    1.7442   -0.6670 H   0  0  0  0  0  0  0  0  0  0  0  0
    6.4498    3.4752   -0.5444 H   0  0  0  0  0  0  0  0  0  0  0  0
    7.7114    1.2057   -1.1278 H   0  0  0  0  0  0  0  0  0  0  0  0
    7.4433   -1.2055   -0.7552 H   0  0  0  0  0  0  0  0  0  0  0  0
    5.2653   -2.0944   -0.3440 H   0  0  0  0  0  0  0  0  0  0  0  0
  1  2  1  0
  2  3  1  0
  3  4  1  0
  4  5  1  0
  5  6  1  0
  6  7  1  0
  7  8  1  0
  8  9  2  0
  9 10  1  0
 10 11  2  0
 11 12  1  0
 12 13  2  0
  6 14  1  0
 14 15  2  0
 14 16  1  0
 16 17  1  0
 17 18  1  0
 18 19  1  0
 18 20  2  0
  4 21  1  0
 21 22  1  0
 22 23  1  0
 23 24  1  1
 23 25  1  0
 25 26  2  0
 26 27  1  0
 27 28  1  0
 27 29  2  0
 29 30  1  0
 30 31  2  0
 23  2  1  0
 31 25  1  0
 13  8  1  0
  1 32  1  0
  1 33  1  0
  1 34  1  0
  2 35  1  1
  3 36  1  0
  3 37  1  0
  5 38  1  0
  5 39  1  0
  6 40  1  1
  7 41  1  0
  7 42  1  0
  9 43  1  0
 10 44  1  0
 11 45  1  0
 12 46  1  0
 13 47  1  0
 16 48  1  0
 17 49  1  0
 17 50  1  0
 19 51  1  0
 21 52  1  0
 21 53  1  0
 22 54  1  0
 22 55  1  0
 24 56  1  0
 24 57  1  0
 24 58  1  0
 26 59  1  0
 28 60  1  0
 29 61  1  0
 30 62  1  0
 31 63  1  0
M  END
$$$$
