@<TRIPOS>MOLECULE
*****
 63 65 0 0 0
SMALL
GASTEIGER

@<TRIPOS>ATOM
      1 C           2.6927    0.8575    1.6347 C.3     1  UNL1       -0.0605
      2 C           2.0618   -0.3266    0.9300 C.3     1  UNL1       -0.0217
      3 C           0.6037   -0.0581    0.6923 C.3     1  UNL1        0.0023
      4 N           0.1173   -0.2194   -0.6211 N.3     1  UNL1       -0.3013
      5 C          -1.0893    0.5299   -0.8705 C.3     1  UNL1        0.0103
      6 C          -2.2690   -0.0270   -0.1017 C.3     1  UNL1        0.0522
      7 C          -2.4708   -1.4421   -0.5416 C.3     1  UNL1       -0.0154
      8 C          -3.5967   -2.0364    0.1745 C.ar    1  UNL1       -0.0466
      9 C          -3.2307   -2.5980    1.4021 C.ar    1  UNL1       -0.0586
     10 C          -4.1364   -3.2170    2.2324 C.ar    1  UNL1       -0.0615
     11 C          -5.4529   -3.2791    1.8268 C.ar    1  UNL1       -0.0617
     12 C          -5.8777   -2.7355    0.6103 C.ar    1  UNL1       -0.0615
     13 C          -4.9211   -2.1341   -0.1668 C.ar    1  UNL1       -0.0586
     14 C          -3.4501    0.8099   -0.4315 C.2     1  UNL1        0.2181
     15 O          -4.6118    0.9434   -0.9262 O.2     1  UNL1       -0.2754
     16 N          -3.2014    2.1553    0.0172 N.am    1  UNL1       -0.3046
     17 C          -4.2999    3.1018   -0.2473 C.3     1  UNL1        0.1088
     18 C          -3.9408    4.4376    0.2559 C.2     1  UNL1        0.3221
     19 O          -4.9337    5.3982    0.0456 O.3     1  UNL1       -0.4795
     20 O          -2.9164    4.9142    0.8460 O.2     1  UNL1       -0.2492
     21 C           1.0285   -0.0021   -1.6918 C.3     1  UNL1       -0.0003
     22 C           2.1446   -1.0098   -1.5214 C.3     1  UNL1       -0.0305
     23 C           2.8359   -0.9078   -0.1769 C.3     1  UNL1       -0.0020
     24 C           3.1559   -2.3894    0.1698 C.3     1  UNL1       -0.0552
     25 C           4.1376   -0.2509   -0.4549 C.ar    1  UNL1       -0.0377
     26 C           4.3810    1.0815   -0.6740 C.ar    1  UNL1       -0.0165
     27 C           5.6195    1.6322   -0.9137 C.ar    1  UNL1        0.1171
     28 O           5.7361    3.0036   -1.1217 O.3     1  UNL1       -0.5068
     29 C           6.7281    0.8127   -0.9442 C.ar    1  UNL1       -0.0202
     30 C           6.5936   -0.5401   -0.7371 C.ar    1  UNL1       -0.0580
     31 C           5.3186   -1.0049   -0.5046 C.ar    1  UNL1       -0.0578
     32 H           3.7890    0.8001    1.6655 H       1  UNL1        0.0233
     33 H           2.2809    1.8363    1.3047 H       1  UNL1        0.0233
     34 H           2.3899    0.7765    2.7290 H       1  UNL1        0.0233
     35 H           2.0510   -1.1186    1.7536 H       1  UNL1        0.0319
     36 H          -0.0665   -0.6419    1.3734 H       1  UNL1        0.0429
     37 H           0.3980    1.0084    0.9928 H       1  UNL1        0.0429
     38 H          -1.3678    0.4825   -1.9515 H       1  UNL1        0.0434
     39 H          -0.8967    1.6080   -0.6089 H       1  UNL1        0.0434
     40 H          -2.0466    0.0331    0.9831 H       1  UNL1        0.0410
     41 H          -1.5241   -2.0260   -0.3918 H       1  UNL1        0.0321
     42 H          -2.7073   -1.4533   -1.6323 H       1  UNL1        0.0321
     43 H          -2.2102   -2.5938    1.7995 H       1  UNL1        0.0620
     44 H          -3.9469   -3.6685    3.1773 H       1  UNL1        0.0618
     45 H          -6.2513   -3.7434    2.4030 H       1  UNL1        0.0618
     46 H          -6.8846   -2.7459    0.2274 H       1  UNL1        0.0618
     47 H          -5.1687   -1.7011   -1.1118 H       1  UNL1        0.0620
     48 H          -2.3369    2.5414    0.5060 H       1  UNL1        0.1493
     49 H          -4.4352    3.1632   -1.3570 H       1  UNL1        0.0577
     50 H          -5.2144    2.7403    0.2473 H       1  UNL1        0.0577
     51 H          -4.8259    6.3764    0.2899 H       1  UNL1        0.2951
     52 H           1.3804    1.0349   -1.6874 H       1  UNL1        0.0427
     53 H           0.5124   -0.2825   -2.6322 H       1  UNL1        0.0427
     54 H           1.6575   -1.9978   -1.6780 H       1  UNL1        0.0286
     55 H           2.8360   -0.8710   -2.3802 H       1  UNL1        0.0286
     56 H           3.4629   -2.9468   -0.7354 H       1  UNL1        0.0238
     57 H           3.8150   -2.4713    1.0325 H       1  UNL1        0.0238
     58 H           2.1542   -2.7640    0.5346 H       1  UNL1        0.0238
     59 H           3.5298    1.7442   -0.6670 H       1  UNL1        0.0657
     60 H           6.4498    3.4752   -0.5444 H       1  UNL1        0.2921
     61 H           7.7114    1.2057   -1.1278 H       1  UNL1        0.0654
     62 H           7.4433   -1.2055   -0.7552 H       1  UNL1        0.0619
     63 H           5.2653   -2.0944   -0.3440 H       1  UNL1        0.0620
@<TRIPOS>BOND
     1     1     2    1
     2     2     3    1
     3     3     4    1
     4     4     5    1
     5     5     6    1
     6     6     7    1
     7     7     8    1
     8     8     9   ar
     9     9    10   ar
    10    10    11   ar
    11    11    12   ar
    12    12    13   ar
    13     6    14    1
    14    14    15    2
    15    14    16   am
    16    16    17    1
    17    17    18    1
    18    18    19    1
    19    18    20    2
    20     4    21    1
    21    21    22    1
    22    22    23    1
    23    23    24    1
    24    23    25    1
    25    25    26   ar
    26    26    27   ar
    27    27    28    1
    28    27    29   ar
    29    29    30   ar
    30    30    31   ar
    31    23     2    1
    32    31    25   ar
    33    13     8   ar
    34     1    32    1
    35     1    33    1
    36     1    34    1
    37     2    35    1
    38     3    36    1
    39     3    37    1
    40     5    38    1
    41     5    39    1
    42     6    40    1
    43     7    41    1
    44     7    42    1
    45     9    43    1
    46    10    44    1
    47    11    45    1
    48    12    46    1
    49    13    47    1
    50    16    48    1
    51    17    49    1
    52    17    50    1
    53    19    51    1
    54    21    52    1
    55    21    53    1
    56    22    54    1
    57    22    55    1
    58    24    56    1
    59    24    57    1
    60    24    58    1
    61    26    59    1
    62    28    60    1
    63    29    61    1
    64    30    62    1
    65    31    63    1
