
     RDKit          3D

 67 71  0  0  0  0  0  0  0  0999 V2000
   -0.7684   -0.7435   -3.8935 C   0  0  0  0  0  0  0  0  0  0  0  0
   -0.0765   -0.3867   -2.7150 O   0  0  0  0  0  0  0  0  0  0  0  0
   -0.8034   -0.1390   -1.5560 C   0  0  0  0  0  0  0  0  0  0  0  0
   -2.1748   -0.2418   -1.5656 C   0  0  0  0  0  0  0  0  0  0  0  0
   -2.9068   -0.0007   -0.4302 C   0  0  0  0  0  0  0  0  0  0  0  0
   -4.3798   -0.1014   -0.4292 C   0  0  1  0  0  0  0  0  0  0  0  0
   -4.7672   -1.2895    0.4427 C   0  0  0  0  0  0  0  0  0  0  0  0
   -6.1635   -1.1784    0.9832 C   0  0  0  0  0  0  0  0  0  0  0  0
   -7.0362   -0.3358    0.2335 N   0  0  0  0  0  0  0  0  0  0  0  0
   -7.6536   -0.9329   -0.9079 C   0  0  0  0  0  0  0  0  0  0  0  0
   -8.6681   -2.0059   -0.5455 C   0  0  0  0  0  0  0  0  0  0  0  0
   -9.6509   -1.3844    0.2349 O   0  0  0  0  0  0  0  0  0  0  0  0
   -6.5274    0.9753   -0.0157 C   0  0  0  0  0  0  0  0  0  0  0  0
   -5.0476    1.0997    0.1633 C   0  0  2  0  0  0  0  0  0  0  0  0
   -4.6112    2.3029   -0.3660 O   0  0  0  0  0  0  0  0  0  0  0  0
   -2.2512    0.3470    0.7247 C   0  0  0  0  0  0  0  0  0  0  0  0
   -0.8625    0.4460    0.7146 C   0  0  0  0  0  0  0  0  0  0  0  0
   -0.0851    0.2140   -0.3985 C   0  0  0  0  0  0  0  0  0  0  0  0
    1.3191    0.2943   -0.4503 N   0  0  0  0  0  0  0  0  0  0  0  0
    2.2010    0.6702    0.6023 C   0  0  0  0  0  0  0  0  0  0  0  0
    1.7948    1.0537    1.8115 N   0  0  0  0  0  0  0  0  0  0  0  0
    2.5819    1.4094    2.8194 C   0  0  0  0  0  0  0  0  0  0  0  0
    3.9567    1.3682    2.5588 C   0  0  0  0  0  0  0  0  0  0  0  0
    5.0612    1.6505    3.3162 C   0  0  0  0  0  0  0  0  0  0  0  0
    6.1753    1.4306    2.5409 C   0  0  0  0  0  0  0  0  0  0  0  0
    5.7446    1.0146    1.3119 C   0  0  0  0  0  0  0  0  0  0  0  0
    6.6144    0.6672    0.1909 C   0  0  0  0  0  0  0  0  0  0  0  0
    6.3735    1.1164   -1.0931 C   0  0  0  0  0  0  0  0  0  0  0  0
    7.2142    0.7723   -2.1492 C   0  0  0  0  0  0  0  0  0  0  0  0
    8.3153   -0.0280   -1.9496 C   0  0  0  0  0  0  0  0  0  0  0  0
    8.5685   -0.4824   -0.6816 C   0  0  0  0  0  0  0  0  0  0  0  0
    7.7227   -0.1342    0.3717 C   0  0  0  0  0  0  0  0  0  0  0  0
    8.0401   -0.6278    1.6188 O   0  0  0  0  0  0  0  0  0  0  0  0
    9.1632   -1.4521    1.8544 C   0  0  0  0  0  0  0  0  0  0  0  0
    4.3734    0.9823    1.3417 N   0  0  0  0  0  0  0  0  0  0  0  0
    3.5505    0.6395    0.3764 N   0  0  0  0  0  0  0  0  0  0  0  0
   -0.0642   -0.8852   -4.7384 H   0  0  0  0  0  0  0  0  0  0  0  0
   -1.3750   -1.6546   -3.6954 H   0  0  0  0  0  0  0  0  0  0  0  0
   -1.4789    0.0868   -4.1108 H   0  0  0  0  0  0  0  0  0  0  0  0
   -2.6397   -0.5222   -2.5158 H   0  0  0  0  0  0  0  0  0  0  0  0
   -4.7482   -0.2650   -1.4492 H   0  0  0  0  0  0  0  0  0  0  0  0
   -4.0772   -1.4310    1.2966 H   0  0  0  0  0  0  0  0  0  0  0  0
   -4.7459   -2.2156   -0.1992 H   0  0  0  0  0  0  0  0  0  0  0  0
   -6.1033   -0.7648    2.0121 H   0  0  0  0  0  0  0  0  0  0  0  0
   -6.6227   -2.1884    1.0439 H   0  0  0  0  0  0  0  0  0  0  0  0
   -8.2319   -0.1372   -1.4300 H   0  0  0  0  0  0  0  0  0  0  0  0
   -6.9283   -1.3314   -1.6586 H   0  0  0  0  0  0  0  0  0  0  0  0
   -8.2214   -2.8616   -0.0209 H   0  0  0  0  0  0  0  0  0  0  0  0
   -9.1783   -2.2823   -1.4987 H   0  0  0  0  0  0  0  0  0  0  0  0
   -9.2507   -0.6432    0.7613 H   0  0  0  0  0  0  0  0  0  0  0  0
   -7.0432    1.6871    0.6823 H   0  0  0  0  0  0  0  0  0  0  0  0
   -6.8302    1.2902   -1.0456 H   0  0  0  0  0  0  0  0  0  0  0  0
   -4.8180    1.1404    1.2627 H   0  0  0  0  0  0  0  0  0  0  0  0
   -4.4107    2.9745    0.3385 H   0  0  0  0  0  0  0  0  0  0  0  0
   -2.7856    0.5509    1.6628 H   0  0  0  0  0  0  0  0  0  0  0  0
   -0.3949    0.7208    1.6468 H   0  0  0  0  0  0  0  0  0  0  0  0
    1.7621    0.0421   -1.3907 H   0  0  0  0  0  0  0  0  0  0  0  0
    2.2547    1.7209    3.8004 H   0  0  0  0  0  0  0  0  0  0  0  0
    5.0193    1.9860    4.3442 H   0  0  0  0  0  0  0  0  0  0  0  0
    7.2143    1.5581    2.8316 H   0  0  0  0  0  0  0  0  0  0  0  0
    5.5342    1.7414   -1.3111 H   0  0  0  0  0  0  0  0  0  0  0  0
    7.0401    1.1154   -3.1600 H   0  0  0  0  0  0  0  0  0  0  0  0
    8.9629   -0.2847   -2.8001 H   0  0  0  0  0  0  0  0  0  0  0  0
    9.4356   -1.1127   -0.5249 H   0  0  0  0  0  0  0  0  0  0  0  0
    9.0412   -1.8649    2.8912 H   0  0  0  0  0  0  0  0  0  0  0  0
   10.1270   -0.8732    1.8155 H   0  0  0  0  0  0  0  0  0  0  0  0
    9.2210   -2.2862    1.1362 H   0  0  0  0  0  0  0  0  0  0  0  0
  1  2  1  0
  2  3  1  0
  3  4  2  0
  4  5  1  0
  5  6  1  0
  6  7  1  0
  7  8  1  0
  8  9  1  0
  9 10  1  0
 10 11  1  0
 11 12  1  0
  9 13  1  0
 13 14  1  0
 14 15  1  0
  5 16  2  0
 16 17  1  0
 17 18  2  0
 18 19  1  0
 19 20  1  0
 20 21  1  0
 21 22  2  0
 22 23  1  0
 23 24  2  0
 24 25  1  0
 25 26  2  0
 26 27  1  0
 27 28  2  0
 28 29  1  0
 29 30  2  0
 30 31  1  0
 31 32  2  0
 32 33  1  0
 33 34  1  0
 26 35  1  0
 35 36  1  0
 18  3  1  0
 36 20  2  0
 14  6  1  0
 35 23  1  0
 32 27  1  0
  1 37  1  0
  1 38  1  0
  1 39  1  0
  4 40  1  0
  6 41  1  6
  7 42  1  0
  7 43  1  0
  8 44  1  0
  8 45  1  0
 10 46  1  0
 10 47  1  0
 11 48  1  0
 11 49  1  0
 12 50  1  0
 13 51  1  0
 13 52  1  0
 14 53  1  1
 15 54  1  0
 16 55  1  0
 17 56  1  0
 19 57  1  0
 22 58  1  0
 24 59  1  0
 25 60  1  0
 28 61  1  0
 29 62  1  0
 30 63  1  0
 31 64  1  0
 34 65  1  0
 34 66  1  0
 34 67  1  0
M  END
$$$$
