@<TRIPOS>MOLECULE
*****
 67 71 0 0 0
SMALL
GASTEIGER

@<TRIPOS>ATOM
      1 C          -0.7684   -0.7435   -3.8935 C.3     1  UNL1        0.0789
      2 O          -0.0765   -0.3867   -2.7150 O.3     1  UNL1       -0.4932
      3 C          -0.8034   -0.1390   -1.5560 C.ar    1  UNL1        0.1415
      4 C          -2.1748   -0.2418   -1.5656 C.ar    1  UNL1       -0.0146
      5 C          -2.9068   -0.0007   -0.4302 C.ar    1  UNL1       -0.0382
      6 C          -4.3798   -0.1014   -0.4292 C.3     1  UNL1        0.0126
      7 C          -4.7672   -1.2895    0.4427 C.3     1  UNL1       -0.0310
      8 C          -6.1635   -1.1784    0.9832 C.3     1  UNL1       -0.0003
      9 N          -7.0362   -0.3358    0.2335 N.3     1  UNL1       -0.2977
     10 C          -7.6536   -0.9329   -0.9079 C.3     1  UNL1        0.0222
     11 C          -8.6681   -2.0059   -0.5455 C.3     1  UNL1        0.0569
     12 O          -9.6509   -1.3844    0.2349 O.3     1  UNL1       -0.3937
     13 C          -6.5274    0.9753   -0.0157 C.3     1  UNL1        0.0256
     14 C          -5.0476    1.0997    0.1633 C.3     1  UNL1        0.0747
     15 O          -4.6112    2.3029   -0.3660 O.3     1  UNL1       -0.3899
     16 C          -2.2512    0.3470    0.7247 C.ar    1  UNL1       -0.0562
     17 C          -0.8625    0.4460    0.7146 C.ar    1  UNL1       -0.0366
     18 C          -0.0851    0.2140   -0.3985 C.ar    1  UNL1        0.0758
     19 N           1.3191    0.2943   -0.4503 N.pl3   1  UNL1       -0.2795
     20 C           2.2010    0.6702    0.6023 C.ar    1  UNL1        0.2377
     21 N           1.7948    1.0537    1.8115 N.ar    1  UNL1       -0.2194
     22 C           2.5819    1.4094    2.8194 C.ar    1  UNL1        0.0566
     23 C           3.9567    1.3682    2.5588 C.ar    1  UNL1        0.0843
     24 C           5.0612    1.6505    3.3162 C.ar    1  UNL1       -0.0327
     25 C           6.1753    1.4306    2.5409 C.ar    1  UNL1       -0.0335
     26 C           5.7446    1.0146    1.3119 C.ar    1  UNL1        0.0768
     27 C           6.6144    0.6672    0.1909 C.ar    1  UNL1        0.0420
     28 C           6.3735    1.1164   -1.0931 C.ar    1  UNL1       -0.0491
     29 C           7.2142    0.7723   -2.1492 C.ar    1  UNL1       -0.0609
     30 C           8.3153   -0.0280   -1.9496 C.ar    1  UNL1       -0.0583
     31 C           8.5685   -0.4824   -0.6816 C.ar    1  UNL1       -0.0193
     32 C           7.7227   -0.1342    0.3717 C.ar    1  UNL1        0.1292
     33 O           8.0401   -0.6278    1.6188 O.3     1  UNL1       -0.4945
     34 C           9.1632   -1.4521    1.8544 C.3     1  UNL1        0.0788
     35 N           4.3734    0.9823    1.3417 N.ar    1  UNL1       -0.2274
     36 N           3.5505    0.6395    0.3764 N.ar    1  UNL1       -0.1295
     37 H          -0.0642   -0.8852   -4.7384 H       1  UNL1        0.0660
     38 H          -1.3750   -1.6546   -3.6954 H       1  UNL1        0.0660
     39 H          -1.4789    0.0868   -4.1108 H       1  UNL1        0.0660
     40 H          -2.6397   -0.5222   -2.5158 H       1  UNL1        0.0657
     41 H          -4.7482   -0.2650   -1.4492 H       1  UNL1        0.0375
     42 H          -4.0772   -1.4310    1.2966 H       1  UNL1        0.0284
     43 H          -4.7459   -2.2156   -0.1992 H       1  UNL1        0.0284
     44 H          -6.1033   -0.7648    2.0121 H       1  UNL1        0.0427
     45 H          -6.6227   -2.1884    1.0439 H       1  UNL1        0.0427
     46 H          -8.2319   -0.1372   -1.4300 H       1  UNL1        0.0449
     47 H          -6.9283   -1.3314   -1.6586 H       1  UNL1        0.0449
     48 H          -8.2214   -2.8616   -0.0209 H       1  UNL1        0.0570
     49 H          -9.1783   -2.2823   -1.4987 H       1  UNL1        0.0570
     50 H          -9.2507   -0.6432    0.7613 H       1  UNL1        0.2095
     51 H          -7.0432    1.6871    0.6823 H       1  UNL1        0.0452
     52 H          -6.8302    1.2902   -1.0456 H       1  UNL1        0.0452
     53 H          -4.8180    1.1404    1.2627 H       1  UNL1        0.0612
     54 H          -4.4107    2.9745    0.3385 H       1  UNL1        0.2099
     55 H          -2.7856    0.5509    1.6628 H       1  UNL1        0.0621
     56 H          -0.3949    0.7208    1.6468 H       1  UNL1        0.0637
     57 H           1.7621    0.0421   -1.3907 H       1  UNL1        0.1552
     58 H           2.2547    1.7209    3.8004 H       1  UNL1        0.0852
     59 H           5.0193    1.9860    4.3442 H       1  UNL1        0.0640
     60 H           7.2143    1.5581    2.8316 H       1  UNL1        0.0640
     61 H           5.5342    1.7414   -1.3111 H       1  UNL1        0.0625
     62 H           7.0401    1.1154   -3.1600 H       1  UNL1        0.0618
     63 H           8.9629   -0.2847   -2.8001 H       1  UNL1        0.0619
     64 H           9.4356   -1.1127   -0.5249 H       1  UNL1        0.0654
     65 H           9.0412   -1.8649    2.8912 H       1  UNL1        0.0660
     66 H          10.1270   -0.8732    1.8155 H       1  UNL1        0.0660
     67 H           9.2210   -2.2862    1.1362 H       1  UNL1        0.0660
@<TRIPOS>BOND
     1     1     2    1
     2     2     3    1
     3     3     4   ar
     4     4     5   ar
     5     5     6    1
     6     6     7    1
     7     7     8    1
     8     8     9    1
     9     9    10    1
    10    10    11    1
    11    11    12    1
    12     9    13    1
    13    13    14    1
    14    14    15    1
    15     5    16   ar
    16    16    17   ar
    17    17    18   ar
    18    18    19    1
    19    19    20    1
    20    20    21   ar
    21    21    22   ar
    22    22    23   ar
    23    23    24   ar
    24    24    25   ar
    25    25    26   ar
    26    26    27    1
    27    27    28   ar
    28    28    29   ar
    29    29    30   ar
    30    30    31   ar
    31    31    32   ar
    32    32    33    1
    33    33    34    1
    34    26    35   ar
    35    35    36   ar
    36    18     3   ar
    37    36    20   ar
    38    14     6    1
    39    35    23   ar
    40    32    27   ar
    41     1    37    1
    42     1    38    1
    43     1    39    1
    44     4    40    1
    45     6    41    1
    46     7    42    1
    47     7    43    1
    48     8    44    1
    49     8    45    1
    50    10    46    1
    51    10    47    1
    52    11    48    1
    53    11    49    1
    54    12    50    1
    55    13    51    1
    56    13    52    1
    57    14    53    1
    58    15    54    1
    59    16    55    1
    60    17    56    1
    61    19    57    1
    62    22    58    1
    63    24    59    1
    64    25    60    1
    65    28    61    1
    66    29    62    1
    67    30    63    1
    68    31    64    1
    69    34    65    1
    70    34    66    1
    71    34    67    1
