
     RDKit          3D

 31 33  0  0  0  0  0  0  0  0999 V2000
   -2.1357    2.4083    1.5554 O   0  0  0  0  0  0  0  0  0  0  0  0
   -1.6130    1.4437    0.9321 C   0  0  0  0  0  0  0  0  0  0  0  0
   -0.2518    1.3617    0.7165 C   0  0  0  0  0  0  0  0  0  0  0  0
    0.3388    0.3035    0.0307 C   0  0  0  0  0  0  0  0  0  0  0  0
    1.7741    0.2272   -0.1908 C   0  0  0  0  0  0  0  0  0  0  0  0
    2.2653   -0.8595   -0.8809 C   0  0  0  0  0  0  0  0  0  0  0  0
    3.5964   -1.0213   -1.1390 C   0  0  0  0  0  0  0  0  0  0  0  0
    4.4934   -0.0469   -0.6855 C   0  0  0  0  0  0  0  0  0  0  0  0
    5.8343   -0.2275   -0.9557 O   0  0  0  0  0  0  0  0  0  0  0  0
    4.0375    1.0534    0.0081 C   0  0  0  0  0  0  0  0  0  0  0  0
    4.9492    2.0028    0.4453 O   0  0  0  0  0  0  0  0  0  0  0  0
    2.6747    1.1708    0.2444 C   0  0  0  0  0  0  0  0  0  0  0  0
   -0.4605   -0.6331   -0.4131 O   0  0  0  0  0  0  0  0  0  0  0  0
   -1.7610   -0.6336   -0.2527 C   0  0  0  0  0  0  0  0  0  0  0  0
   -2.5150   -1.6716   -0.7608 C   0  0  0  0  0  0  0  0  0  0  0  0
   -3.8788   -1.6676   -0.5900 C   0  0  0  0  0  0  0  0  0  0  0  0
   -4.6207   -2.7130   -1.1038 O   0  0  0  0  0  0  0  0  0  0  0  0
   -4.4743   -0.6191    0.0908 C   0  0  0  0  0  0  0  0  0  0  0  0
   -3.7476    0.4288    0.6080 C   0  0  0  0  0  0  0  0  0  0  0  0
   -4.3485    1.4836    1.2931 O   0  0  0  0  0  0  0  0  0  0  0  0
   -2.3813    0.4138    0.4305 C   0  0  0  0  0  0  0  0  0  0  0  0
    0.3431    2.1717    1.1121 H   0  0  0  0  0  0  0  0  0  0  0  0
    1.5774   -1.6375   -1.2465 H   0  0  0  0  0  0  0  0  0  0  0  0
    3.9236   -1.8860   -1.6802 H   0  0  0  0  0  0  0  0  0  0  0  0
    6.2784    0.2993   -1.6899 H   0  0  0  0  0  0  0  0  0  0  0  0
    5.4980    1.8931    1.3020 H   0  0  0  0  0  0  0  0  0  0  0  0
    2.3335    2.0389    0.7893 H   0  0  0  0  0  0  0  0  0  0  0  0
   -2.0817   -2.5038   -1.2963 H   0  0  0  0  0  0  0  0  0  0  0  0
   -4.7637   -3.6000   -0.6259 H   0  0  0  0  0  0  0  0  0  0  0  0
   -5.5457   -0.6024    0.2328 H   0  0  0  0  0  0  0  0  0  0  0  0
   -5.3386    1.6224    1.0949 H   0  0  0  0  0  0  0  0  0  0  0  0
  1  2  2  0
  2  3  1  0
  3  4  2  0
  4  5  1  0
  5  6  2  0
  6  7  1  0
  7  8  2  0
  8  9  1  0
  8 10  1  0
 10 11  1  0
 10 12  2  0
  4 13  1  0
 13 14  1  0
 14 15  2  0
 15 16  1  0
 16 17  1  0
 16 18  2  0
 18 19  1  0
 19 20  1  0
 19 21  2  0
 21  2  1  0
 12  5  1  0
 21 14  1  0
  3 22  1  0
  6 23  1  0
  7 24  1  0
  9 25  1  0
 11 26  1  0
 12 27  1  0
 15 28  1  0
 17 29  1  0
 18 30  1  0
 20 31  1  0
M  END
$$$$
