@<TRIPOS>MOLECULE
*****
 31 33 0 0 0
SMALL
GASTEIGER

@<TRIPOS>ATOM
      1 O          -2.1357    2.4083    1.5554 O.2     1  UNL1       -0.2869
      2 C          -1.6130    1.4437    0.9321 C.ar    1  UNL1        0.1966
      3 C          -0.2518    1.3617    0.7165 C.ar    1  UNL1        0.0288
      4 C           0.3388    0.3035    0.0307 C.ar    1  UNL1        0.1393
      5 C           1.7741    0.2272   -0.1908 C.ar    1  UNL1        0.0211
      6 C           2.2653   -0.8595   -0.8809 C.ar    1  UNL1       -0.0474
      7 C           3.5964   -1.0213   -1.1390 C.ar    1  UNL1       -0.0159
      8 C           4.4934   -0.0469   -0.6855 C.ar    1  UNL1        0.1583
      9 O           5.8343   -0.2275   -0.9557 O.3     1  UNL1       -0.5033
     10 C           4.0375    1.0534    0.0081 C.ar    1  UNL1        0.1589
     11 O           4.9492    2.0028    0.4453 O.3     1  UNL1       -0.5033
     12 C           2.6747    1.1708    0.2444 C.ar    1  UNL1       -0.0059
     13 O          -0.4605   -0.6331   -0.4131 O.2     1  UNL1       -0.4544
     14 C          -1.7610   -0.6336   -0.2527 C.ar    1  UNL1        0.1462
     15 C          -2.5150   -1.6716   -0.7608 C.ar    1  UNL1        0.0231
     16 C          -3.8788   -1.6676   -0.5900 C.ar    1  UNL1        0.1239
     17 O          -4.6207   -2.7130   -1.1038 O.3     1  UNL1       -0.5065
     18 C          -4.4743   -0.6191    0.0908 C.ar    1  UNL1        0.0223
     19 C          -3.7476    0.4288    0.6080 C.ar    1  UNL1        0.1347
     20 O          -4.3485    1.4836    1.2931 O.3     1  UNL1       -0.5058
     21 C          -2.3813    0.4138    0.4305 C.ar    1  UNL1        0.1055
     22 H           0.3431    2.1717    1.1121 H       1  UNL1        0.0693
     23 H           1.5774   -1.6375   -1.2465 H       1  UNL1        0.0626
     24 H           3.9236   -1.8860   -1.6802 H       1  UNL1        0.0655
     25 H           6.2784    0.2993   -1.6899 H       1  UNL1        0.2923
     26 H           5.4980    1.8931    1.3020 H       1  UNL1        0.2923
     27 H           2.3335    2.0389    0.7893 H       1  UNL1        0.0662
     28 H          -2.0817   -2.5038   -1.2963 H       1  UNL1        0.0691
     29 H          -4.7637   -3.6000   -0.6259 H       1  UNL1        0.2921
     30 H          -5.5457   -0.6024    0.2328 H       1  UNL1        0.0691
     31 H          -5.3386    1.6224    1.0949 H       1  UNL1        0.2922
@<TRIPOS>BOND
     1     1     2    2
     2     2     3   ar
     3     3     4   ar
     4     4     5    1
     5     5     6   ar
     6     6     7   ar
     7     7     8   ar
     8     8     9    1
     9     8    10   ar
    10    10    11    1
    11    10    12   ar
    12     4    13   ar
    13    13    14   ar
    14    14    15   ar
    15    15    16   ar
    16    16    17    1
    17    16    18   ar
    18    18    19   ar
    19    19    20    1
    20    19    21   ar
    21    21     2   ar
    22    12     5   ar
    23    21    14   ar
    24     3    22    1
    25     6    23    1
    26     7    24    1
    27     9    25    1
    28    11    26    1
    29    12    27    1
    30    15    28    1
    31    17    29    1
    32    18    30    1
    33    20    31    1
