
     RDKit          3D

 42 44  0  0  0  0  0  0  0  0999 V2000
   -7.1746    1.3583    1.0343 O   0  0  0  0  0  0  0  0  0  0  0  0
   -5.8990    0.9661    0.7944 C   0  0  0  0  0  0  0  0  0  0  0  0
   -5.4151    1.8476    1.4934 O   0  0  0  0  0  0  0  0  0  0  0  0
   -5.6169   -0.1639   -0.0565 C   0  0  0  0  0  0  0  0  0  0  0  0
   -4.4102   -0.5953   -0.3417 C   0  0  0  0  0  0  0  0  0  0  0  0
   -4.5197   -1.7674   -1.2373 C   0  0  0  0  0  0  0  0  0  0  0  0
   -5.7933   -1.9903   -1.4509 C   0  0  0  0  0  0  0  0  0  0  0  0
   -6.6278   -1.0117   -0.7341 C   0  0  0  0  0  0  0  0  0  0  0  0
   -3.0416   -0.2541   -0.0362 C   0  0  0  0  0  0  0  0  0  0  0  0
   -1.9914   -0.8634   -0.4613 O   0  0  0  0  0  0  0  0  0  0  0  0
   -2.3504    0.7115    0.7186 N   0  0  0  0  0  0  0  0  0  0  0  0
   -0.9253    0.6501    0.7214 C   0  0  0  0  0  0  0  0  0  0  0  0
   -0.1954    1.3484   -0.2396 C   0  0  0  0  0  0  0  0  0  0  0  0
   -0.9106    2.0668   -1.1479 F   0  0  0  0  0  0  0  0  0  0  0  0
    1.1969    1.2985   -0.2502 C   0  0  0  0  0  0  0  0  0  0  0  0
    1.7948    2.0225   -1.2379 F   0  0  0  0  0  0  0  0  0  0  0  0
    1.8960    0.5507    0.6977 C   0  0  0  0  0  0  0  0  0  0  0  0
    1.1715   -0.1301    1.6354 C   0  0  0  0  0  0  0  0  0  0  0  0
    1.8861   -0.8340    2.5245 F   0  0  0  0  0  0  0  0  0  0  0  0
   -0.2088   -0.0808    1.6461 C   0  0  0  0  0  0  0  0  0  0  0  0
   -0.8727   -0.7751    2.5982 F   0  0  0  0  0  0  0  0  0  0  0  0
    3.3583    0.5811    0.5775 C   0  0  0  0  0  0  0  0  0  0  0  0
    4.0902   -0.3133   -0.1762 C   0  0  0  0  0  0  0  0  0  0  0  0
    5.4753   -0.2289   -0.2476 C   0  0  0  0  0  0  0  0  0  0  0  0
    6.1854   -1.0456   -0.9400 O   0  0  0  0  0  0  0  0  0  0  0  0
    6.9059   -1.8864   -1.6221 C   0  0  0  0  0  0  0  0  0  0  0  0
    8.1948   -2.1591   -1.1633 F   0  0  0  0  0  0  0  0  0  0  0  0
    6.2186   -3.1148   -1.7613 F   0  0  0  0  0  0  0  0  0  0  0  0
    7.0186   -1.4571   -2.9652 F   0  0  0  0  0  0  0  0  0  0  0  0
    6.1204    0.7860    0.4629 C   0  0  0  0  0  0  0  0  0  0  0  0
    5.4258    1.7128    1.2376 C   0  0  0  0  0  0  0  0  0  0  0  0
    4.0554    1.5598    1.2554 C   0  0  0  0  0  0  0  0  0  0  0  0
   -7.5234    2.2989    0.8997 H   0  0  0  0  0  0  0  0  0  0  0  0
   -3.8602   -2.4598   -1.7414 H   0  0  0  0  0  0  0  0  0  0  0  0
   -6.3752   -2.6950   -2.0071 H   0  0  0  0  0  0  0  0  0  0  0  0
   -7.3192   -1.4762    0.0037 H   0  0  0  0  0  0  0  0  0  0  0  0
   -7.1835   -0.3971   -1.4891 H   0  0  0  0  0  0  0  0  0  0  0  0
   -2.9795    1.3612    1.1882 H   0  0  0  0  0  0  0  0  0  0  0  0
    3.5326   -1.0759   -0.7030 H   0  0  0  0  0  0  0  0  0  0  0  0
    7.2167    0.8840    0.4301 H   0  0  0  0  0  0  0  0  0  0  0  0
    5.9351    2.4952    1.7842 H   0  0  0  0  0  0  0  0  0  0  0  0
    3.5153    2.2762    1.8545 H   0  0  0  0  0  0  0  0  0  0  0  0
  1  2  1  0
  2  3  2  0
  2  4  1  0
  4  5  2  0
  5  6  1  0
  6  7  2  0
  7  8  1  0
  5  9  1  0
  9 10  2  0
  9 11  1  0
 11 12  1  0
 12 13  2  0
 13 14  1  0
 13 15  1  0
 15 16  1  0
 15 17  2  0
 17 18  1  0
 18 19  1  0
 18 20  2  0
 20 21  1  0
 17 22  1  0
 22 23  2  0
 23 24  1  0
 24 25  1  0
 25 26  1  0
 26 27  1  0
 26 28  1  0
 26 29  1  0
 24 30  2  0
 30 31  1  0
 31 32  2  0
  8  4  1  0
 20 12  1  0
 32 22  1  0
  1 33  1  0
  6 34  1  0
  7 35  1  0
  8 36  1  0
  8 37  1  0
 11 38  1  0
 23 39  1  0
 30 40  1  0
 31 41  1  0
 32 42  1  0
M  END
$$$$
