@<TRIPOS>MOLECULE
*****
 42 44 0 0 0
SMALL
GASTEIGER

@<TRIPOS>ATOM
      1 O          -7.1746    1.3583    1.0343 O.3     1  UNL1       -0.4773
      2 C          -5.8990    0.9661    0.7944 C.2     1  UNL1        0.3338
      3 O          -5.4151    1.8476    1.4934 O.2     1  UNL1       -0.2455
      4 C          -5.6169   -0.1639   -0.0565 C.2     1  UNL1        0.0522
      5 C          -4.4102   -0.5953   -0.3417 C.2     1  UNL1        0.0470
      6 C          -4.5197   -1.7674   -1.2373 C.2     1  UNL1       -0.0527
      7 C          -5.7933   -1.9903   -1.4509 C.2     1  UNL1       -0.0787
      8 C          -6.6278   -1.0117   -0.7341 C.3     1  UNL1       -0.0017
      9 C          -3.0416   -0.2541   -0.0362 C.2     1  UNL1        0.2489
     10 O          -1.9914   -0.8634   -0.4613 O.2     1  UNL1       -0.2698
     11 N          -2.3504    0.7115    0.7186 N.am    1  UNL1       -0.2768
     12 C          -0.9253    0.6501    0.7214 C.ar    1  UNL1        0.1107
     13 C          -0.1954    1.3484   -0.2396 C.ar    1  UNL1        0.1831
     14 F          -0.9106    2.0668   -1.1479 F       1  UNL1       -0.2004
     15 C           1.1969    1.2985   -0.2502 C.ar    1  UNL1        0.1708
     16 F           1.7948    2.0225   -1.2379 F       1  UNL1       -0.2017
     17 C           1.8960    0.5507    0.6977 C.ar    1  UNL1        0.0584
     18 C           1.1715   -0.1301    1.6354 C.ar    1  UNL1        0.1708
     19 F           1.8861   -0.8340    2.5245 F       1  UNL1       -0.2017
     20 C          -0.2088   -0.0808    1.6461 C.ar    1  UNL1        0.1831
     21 F          -0.8727   -0.7751    2.5982 F       1  UNL1       -0.2004
     22 C           3.3583    0.5811    0.5775 C.ar    1  UNL1       -0.0087
     23 C           4.0902   -0.3133   -0.1762 C.ar    1  UNL1       -0.0117
     24 C           5.4753   -0.2289   -0.2476 C.ar    1  UNL1        0.1306
     25 O           6.1854   -1.0456   -0.9400 O.3     1  UNL1       -0.4057
     26 C           6.9059   -1.8864   -1.6221 C.3     1  UNL1        0.5752
     27 F           8.1948   -2.1591   -1.1633 F       1  UNL1       -0.1328
     28 F           6.2186   -3.1148   -1.7613 F       1  UNL1       -0.1328
     29 F           7.0186   -1.4571   -2.9652 F       1  UNL1       -0.1328
     30 C           6.1204    0.7860    0.4629 C.ar    1  UNL1       -0.0196
     31 C           5.4258    1.7128    1.2376 C.ar    1  UNL1       -0.0577
     32 C           4.0554    1.5598    1.2554 C.ar    1  UNL1       -0.0536
     33 H          -7.5234    2.2989    0.8997 H       1  UNL1        0.2954
     34 H          -3.8602   -2.4598   -1.7414 H       1  UNL1        0.0622
     35 H          -6.3752   -2.6950   -2.0071 H       1  UNL1        0.0576
     36 H          -7.3192   -1.4762    0.0037 H       1  UNL1        0.0358
     37 H          -7.1835   -0.3971   -1.4891 H       1  UNL1        0.0358
     38 H          -2.9795    1.3612    1.1882 H       1  UNL1        0.1553
     39 H           3.5326   -1.0759   -0.7030 H       1  UNL1        0.0660
     40 H           7.2167    0.8840    0.4301 H       1  UNL1        0.0654
     41 H           5.9351    2.4952    1.7842 H       1  UNL1        0.0619
     42 H           3.5153    2.2762    1.8545 H       1  UNL1        0.0624
@<TRIPOS>BOND
     1     1     2    1
     2     2     3    2
     3     2     4    1
     4     4     5    2
     5     5     6    1
     6     6     7    2
     7     7     8    1
     8     5     9    1
     9     9    10    2
    10     9    11   am
    11    11    12    1
    12    12    13   ar
    13    13    14    1
    14    13    15   ar
    15    15    16    1
    16    15    17   ar
    17    17    18   ar
    18    18    19    1
    19    18    20   ar
    20    20    21    1
    21    17    22    1
    22    22    23   ar
    23    23    24   ar
    24    24    25    1
    25    25    26    1
    26    26    27    1
    27    26    28    1
    28    26    29    1
    29    24    30   ar
    30    30    31   ar
    31    31    32   ar
    32     8     4    1
    33    20    12   ar
    34    32    22   ar
    35     1    33    1
    36     6    34    1
    37     7    35    1
    38     8    36    1
    39     8    37    1
    40    11    38    1
    41    23    39    1
    42    30    40    1
    43    31    41    1
    44    32    42    1
