
     RDKit          3D

 54 58  0  0  0  0  0  0  0  0999 V2000
   -3.6256    0.1318    2.0892 O   0  0  0  0  0  0  0  0  0  0  0  0
   -4.4421    0.8271    1.4385 C   0  0  0  0  0  0  0  0  0  0  0  0
   -5.6727    1.4356    1.9657 C   0  0  0  0  0  0  0  0  0  0  0  0
   -6.2263    2.1725    0.7695 C   0  0  0  0  0  0  0  0  0  0  0  0
   -5.0188    2.4041   -0.1291 C   0  0  0  0  0  0  0  0  0  0  0  0
   -4.3019    1.1427    0.0566 N   0  0  0  0  0  0  0  0  0  0  0  0
   -3.6259    0.4335   -0.9796 C   0  0  0  0  0  0  0  0  0  0  0  0
   -4.1724   -0.9408   -1.2324 C   0  0  0  0  0  0  0  0  0  0  0  0
   -3.3880   -2.0663   -0.6701 C   0  0  0  0  0  0  0  0  0  0  0  0
   -1.9568   -1.9394   -0.8321 N   0  0  0  0  0  0  0  0  0  0  0  0
   -1.2696   -2.2429    0.4023 C   0  0  0  0  0  0  0  0  0  0  0  0
    0.1919   -2.1082    0.2134 C   0  0  0  0  0  0  0  0  0  0  0  0
    0.9132   -0.9733    0.4403 C   0  0  0  0  0  0  0  0  0  0  0  0
    2.2982   -0.9667    0.2250 C   0  0  0  0  0  0  0  0  0  0  0  0
    2.9524   -2.0883   -0.2137 C   0  0  0  0  0  0  0  0  0  0  0  0
    4.2811   -2.0909   -0.4230 O   0  0  0  0  0  0  0  0  0  0  0  0
    5.0684   -0.8495   -0.1747 C   0  0  0  0  0  0  0  0  0  0  0  0
    5.1107    0.2081    0.1355 N   0  0  0  0  0  0  0  0  0  0  0  0
    6.1297    1.0482    0.2273 C   0  0  0  0  0  0  0  0  0  0  0  0
    6.1355    2.3724    0.6230 C   0  0  0  0  0  0  0  0  0  0  0  0
    7.3350    3.0731    0.6447 C   0  0  0  0  0  0  0  0  0  0  0  0
    8.5477    2.5436    0.2959 C   0  0  0  0  0  0  0  0  0  0  0  0
    8.5499    1.2084   -0.1045 C   0  0  0  0  0  0  0  0  0  0  0  0
    7.3361    0.5173   -0.1210 C   0  0  0  0  0  0  0  0  0  0  0  0
    6.9125   -1.1780   -0.5624 S   0  0  0  0  0  0  0  0  0  0  0  0
    2.2105   -3.2233   -0.4374 C   0  0  0  0  0  0  0  0  0  0  0  0
    0.8458   -3.2564   -0.2332 C   0  0  0  0  0  0  0  0  0  0  0  0
   -1.5595   -0.7270   -1.4582 C   0  0  0  0  0  0  0  0  0  0  0  0
   -2.1416    0.4270   -0.6696 C   0  0  0  0  0  0  0  0  0  0  0  0
   -5.4992    2.0796    2.8365 H   0  0  0  0  0  0  0  0  0  0  0  0
   -6.3446    0.6060    2.2955 H   0  0  0  0  0  0  0  0  0  0  0  0
   -6.9153    1.5195    0.1945 H   0  0  0  0  0  0  0  0  0  0  0  0
   -6.7136    3.1292    1.0553 H   0  0  0  0  0  0  0  0  0  0  0  0
   -5.3261    2.5470   -1.1848 H   0  0  0  0  0  0  0  0  0  0  0  0
   -4.3698    3.2171    0.2527 H   0  0  0  0  0  0  0  0  0  0  0  0
   -3.7365    0.9927   -1.9311 H   0  0  0  0  0  0  0  0  0  0  0  0
   -5.2039   -0.9903   -0.7838 H   0  0  0  0  0  0  0  0  0  0  0  0
   -4.3402   -1.1436   -2.3249 H   0  0  0  0  0  0  0  0  0  0  0  0
   -3.6812   -2.9972   -1.2215 H   0  0  0  0  0  0  0  0  0  0  0  0
   -3.5974   -2.2771    0.3994 H   0  0  0  0  0  0  0  0  0  0  0  0
   -1.6477   -1.5425    1.1801 H   0  0  0  0  0  0  0  0  0  0  0  0
   -1.5266   -3.2916    0.6960 H   0  0  0  0  0  0  0  0  0  0  0  0
    0.3883   -0.0875    0.7880 H   0  0  0  0  0  0  0  0  0  0  0  0
    2.7909   -0.0492    0.4225 H   0  0  0  0  0  0  0  0  0  0  0  0
    5.2570    2.9321    0.9285 H   0  0  0  0  0  0  0  0  0  0  0  0
    7.3287    4.1301    0.9623 H   0  0  0  0  0  0  0  0  0  0  0  0
    9.4575    3.0807    0.3140 H   0  0  0  0  0  0  0  0  0  0  0  0
    9.4686    0.7320   -0.3913 H   0  0  0  0  0  0  0  0  0  0  0  0
    2.7131   -4.0969   -0.7780 H   0  0  0  0  0  0  0  0  0  0  0  0
    0.3111   -4.1760   -0.4248 H   0  0  0  0  0  0  0  0  0  0  0  0
   -0.4819   -0.6292   -1.5209 H   0  0  0  0  0  0  0  0  0  0  0  0
   -2.0299   -0.6948   -2.4660 H   0  0  0  0  0  0  0  0  0  0  0  0
   -2.0137    0.3324    0.4093 H   0  0  0  0  0  0  0  0  0  0  0  0
   -1.7049    1.3829   -0.9893 H   0  0  0  0  0  0  0  0  0  0  0  0
  1  2  2  0
  2  3  1  0
  3  4  1  0
  4  5  1  0
  5  6  1  0
  6  7  1  0
  7  8  1  0
  8  9  1  0
  9 10  1  0
 10 11  1  0
 11 12  1  0
 12 13  2  0
 13 14  1  0
 14 15  2  0
 15 16  1  0
 16 17  1  0
 17 18  2  0
 18 19  1  0
 19 20  2  0
 20 21  1  0
 21 22  2  0
 22 23  1  0
 23 24  2  0
 24 25  1  0
 15 26  1  0
 26 27  2  0
 10 28  1  0
 28 29  1  0
  6  2  1  0
 29  7  1  0
 27 12  1  0
 25 17  1  0
 24 19  1  0
  3 30  1  0
  3 31  1  0
  4 32  1  0
  4 33  1  0
  5 34  1  0
  5 35  1  0
  7 36  1  0
  8 37  1  0
  8 38  1  0
  9 39  1  0
  9 40  1  0
 11 41  1  0
 11 42  1  0
 13 43  1  0
 14 44  1  0
 20 45  1  0
 21 46  1  0
 22 47  1  0
 23 48  1  0
 26 49  1  0
 27 50  1  0
 28 51  1  0
 28 52  1  0
 29 53  1  0
 29 54  1  0
M  END
$$$$
