@<TRIPOS>MOLECULE
*****
 54 58 0 0 0
SMALL
GASTEIGER

@<TRIPOS>ATOM
      1 O          -3.6256    0.1318    2.0892 O.2     1  UNL1       -0.2756
      2 C          -4.4421    0.8271    1.4385 C.2     1  UNL1        0.2159
      3 C          -5.6727    1.4356    1.9657 C.3     1  UNL1        0.0256
      4 C          -6.2263    2.1725    0.7695 C.3     1  UNL1       -0.0289
      5 C          -5.0188    2.4041   -0.1291 C.3     1  UNL1        0.0154
      6 N          -4.3019    1.1427    0.0566 N.am    1  UNL1       -0.2983
      7 C          -3.6259    0.4335   -0.9796 C.3     1  UNL1        0.0283
      8 C          -4.1724   -0.9408   -1.2324 C.3     1  UNL1       -0.0214
      9 C          -3.3880   -2.0663   -0.6701 C.3     1  UNL1        0.0009
     10 N          -1.9568   -1.9394   -0.8321 N.3     1  UNL1       -0.2980
     11 C          -1.2696   -2.2429    0.4023 C.3     1  UNL1        0.0240
     12 C           0.1919   -2.1082    0.2134 C.ar    1  UNL1       -0.0331
     13 C           0.9132   -0.9733    0.4403 C.ar    1  UNL1       -0.0539
     14 C           2.2982   -0.9667    0.2250 C.ar    1  UNL1       -0.0190
     15 C           2.9524   -2.0883   -0.2137 C.ar    1  UNL1        0.1309
     16 O           4.2811   -2.0909   -0.4230 O.3     1  UNL1       -0.4326
     17 C           5.0684   -0.8495   -0.1747 C.ar    1  UNL1        0.2627
     18 N           5.1107    0.2081    0.1355 N.ar    1  UNL1       -0.2057
     19 C           6.1297    1.0482    0.2273 C.ar    1  UNL1        0.0820
     20 C           6.1355    2.3724    0.6230 C.ar    1  UNL1       -0.0351
     21 C           7.3350    3.0731    0.6447 C.ar    1  UNL1       -0.0597
     22 C           8.5477    2.5436    0.2959 C.ar    1  UNL1       -0.0606
     23 C           8.5499    1.2084   -0.1045 C.ar    1  UNL1       -0.0458
     24 C           7.3361    0.5173   -0.1210 C.ar    1  UNL1        0.0425
     25 S           6.9125   -1.1780   -0.5624 S.2     1  UNL1       -0.0290
     26 C           2.2105   -3.2233   -0.4374 C.ar    1  UNL1       -0.0190
     27 C           0.8458   -3.2564   -0.2332 C.ar    1  UNL1       -0.0539
     28 C          -1.5595   -0.7270   -1.4582 C.3     1  UNL1        0.0009
     29 C          -2.1416    0.4270   -0.6696 C.3     1  UNL1       -0.0214
     30 H          -5.4992    2.0796    2.8365 H       1  UNL1        0.0359
     31 H          -6.3446    0.6060    2.2955 H       1  UNL1        0.0359
     32 H          -6.9153    1.5195    0.1945 H       1  UNL1        0.0285
     33 H          -6.7136    3.1292    1.0553 H       1  UNL1        0.0285
     34 H          -5.3261    2.5470   -1.1848 H       1  UNL1        0.0465
     35 H          -4.3698    3.2171    0.2527 H       1  UNL1        0.0465
     36 H          -3.7365    0.9927   -1.9311 H       1  UNL1        0.0501
     37 H          -5.2039   -0.9903   -0.7838 H       1  UNL1        0.0295
     38 H          -4.3402   -1.1436   -2.3249 H       1  UNL1        0.0295
     39 H          -3.6812   -2.9972   -1.2215 H       1  UNL1        0.0427
     40 H          -3.5974   -2.2771    0.3994 H       1  UNL1        0.0427
     41 H          -1.6477   -1.5425    1.1801 H       1  UNL1        0.0476
     42 H          -1.5266   -3.2916    0.6960 H       1  UNL1        0.0476
     43 H           0.3883   -0.0875    0.7880 H       1  UNL1        0.0622
     44 H           2.7909   -0.0492    0.4225 H       1  UNL1        0.0654
     45 H           5.2570    2.9321    0.9285 H       1  UNL1        0.0639
     46 H           7.3287    4.1301    0.9623 H       1  UNL1        0.0618
     47 H           9.4575    3.0807    0.3140 H       1  UNL1        0.0618
     48 H           9.4686    0.7320   -0.3913 H       1  UNL1        0.0629
     49 H           2.7131   -4.0969   -0.7780 H       1  UNL1        0.0654
     50 H           0.3111   -4.1760   -0.4248 H       1  UNL1        0.0622
     51 H          -0.4819   -0.6292   -1.5209 H       1  UNL1        0.0427
     52 H          -2.0299   -0.6948   -2.4660 H       1  UNL1        0.0427
     53 H          -2.0137    0.3324    0.4093 H       1  UNL1        0.0295
     54 H          -1.7049    1.3829   -0.9893 H       1  UNL1        0.0295
@<TRIPOS>BOND
     1     1     2    2
     2     2     3    1
     3     3     4    1
     4     4     5    1
     5     5     6    1
     6     6     7    1
     7     7     8    1
     8     8     9    1
     9     9    10    1
    10    10    11    1
    11    11    12    1
    12    12    13   ar
    13    13    14   ar
    14    14    15   ar
    15    15    16    1
    16    16    17    1
    17    17    18   ar
    18    18    19   ar
    19    19    20   ar
    20    20    21   ar
    21    21    22   ar
    22    22    23   ar
    23    23    24   ar
    24    24    25   ar
    25    15    26   ar
    26    26    27   ar
    27    10    28    1
    28    28    29    1
    29     6     2   am
    30    29     7    1
    31    27    12   ar
    32    25    17   ar
    33    24    19   ar
    34     3    30    1
    35     3    31    1
    36     4    32    1
    37     4    33    1
    38     5    34    1
    39     5    35    1
    40     7    36    1
    41     8    37    1
    42     8    38    1
    43     9    39    1
    44     9    40    1
    45    11    41    1
    46    11    42    1
    47    13    43    1
    48    14    44    1
    49    20    45    1
    50    21    46    1
    51    22    47    1
    52    23    48    1
    53    26    49    1
    54    27    50    1
    55    28    51    1
    56    28    52    1
    57    29    53    1
    58    29    54    1
