@<TRIPOS>MOLECULE
*****
 51 53 0 0 0
SMALL
GASTEIGER

@<TRIPOS>ATOM
      1 C           5.1216   -1.8051    2.2300 C.3     1  UNL1       -0.0570
      2 C           4.5253   -1.2232    0.9749 C.3     1  UNL1        0.0213
      3 C           3.0941   -0.9858    1.1663 C.2     1  UNL1        0.2153
      4 O           2.5708   -1.2799    2.2785 O.2     1  UNL1       -0.2756
      5 N           2.2425   -0.4372    0.1652 N.am    1  UNL1       -0.2997
      6 C           2.6747   -0.0489   -1.1506 C.3     1  UNL1        0.0165
      7 C           1.4677   -0.3427   -2.0229 C.3     1  UNL1       -0.0170
      8 C           0.3282   -0.5897   -1.1058 C.3     1  UNL1        0.0410
      9 N          -0.9389   -0.0102   -1.4572 N.pl3   1  UNL1       -0.3209
     10 C          -2.0731   -0.9355   -1.2833 C.3     1  UNL1        0.0379
     11 C          -2.1569   -1.4065    0.1242 C.ar    1  UNL1       -0.0246
     12 C          -1.7313   -2.6807    0.4140 C.ar    1  UNL1       -0.0215
     13 C          -1.7790   -3.1920    1.7112 C.ar    1  UNL1        0.1237
     14 F          -1.3534   -4.4474    1.9678 F       1  UNL1       -0.2055
     15 C          -2.2560   -2.4242    2.7262 C.ar    1  UNL1       -0.0262
     16 C          -2.6795   -1.1587    2.4410 C.ar    1  UNL1       -0.0558
     17 C          -2.6366   -0.6437    1.1635 C.ar    1  UNL1       -0.0456
     18 C          -3.1135    0.7565    0.8827 C.3     1  UNL1       -0.0394
     19 C          -1.1696    1.3301   -1.8652 C.ar    1  UNL1        0.0317
     20 C          -2.3967    1.7679   -2.3078 C.ar    1  UNL1       -0.0393
     21 C          -2.6053    3.1027   -2.6578 C.ar    1  UNL1       -0.0412
     22 C          -1.5839    4.0221   -2.5696 C.ar    1  UNL1        0.0701
     23 C          -1.8155    5.3966   -2.9315 C.1     1  UNL1        0.1006
     24 N          -2.0109    6.4847   -3.2022 N.1     1  UNL1       -0.1908
     25 C          -0.3431    3.6247   -2.1321 C.ar    1  UNL1        0.0600
     26 CL          0.9795    4.7887   -2.0109 Cl      1  UNL1       -0.0822
     27 C          -0.1624    2.2997   -1.7915 C.ar    1  UNL1       -0.0210
     28 C           0.8295   -0.1654    0.2555 C.3     1  UNL1        0.0333
     29 H           4.3396   -1.9934    2.9976 H       1  UNL1        0.0234
     30 H           5.5725   -2.8063    2.0051 H       1  UNL1        0.0234
     31 H           5.9581   -1.1950    2.6355 H       1  UNL1        0.0234
     32 H           5.0824   -0.3339    0.6171 H       1  UNL1        0.0356
     33 H           4.6154   -1.9671    0.1297 H       1  UNL1        0.0356
     34 H           2.9502    1.0244   -1.1461 H       1  UNL1        0.0465
     35 H           3.5923   -0.5799   -1.4769 H       1  UNL1        0.0465
     36 H           1.3165    0.3426   -2.8521 H       1  UNL1        0.0299
     37 H           1.7768   -1.3152   -2.5583 H       1  UNL1        0.0299
     38 H           0.2533   -1.7181   -1.0133 H       1  UNL1        0.0516
     39 H          -1.8990   -1.8312   -1.9540 H       1  UNL1        0.0513
     40 H          -3.0367   -0.5567   -1.5515 H       1  UNL1        0.0513
     41 H          -1.3440   -3.3524   -0.3276 H       1  UNL1        0.0649
     42 H          -2.2991   -2.8130    3.7494 H       1  UNL1        0.0646
     43 H          -3.0608   -0.5319    3.2237 H       1  UNL1        0.0621
     44 H          -2.2847    1.4773    0.8461 H       1  UNL1        0.0278
     45 H          -3.7949    0.7794    0.0235 H       1  UNL1        0.0278
     46 H          -3.7360    1.0599    1.7690 H       1  UNL1        0.0278
     47 H          -3.2233    1.0867   -2.4016 H       1  UNL1        0.0636
     48 H          -3.5881    3.3806   -2.9962 H       1  UNL1        0.0631
     49 H           0.8114    2.0530   -1.4410 H       1  UNL1        0.0651
     50 H           0.4070   -0.8421    1.0629 H       1  UNL1        0.0483
     51 H           0.5631    0.8352    0.5693 H       1  UNL1        0.0483
@<TRIPOS>BOND
     1     1     2    1
     2     2     3    1
     3     3     4    2
     4     3     5   am
     5     5     6    1
     6     6     7    1
     7     7     8    1
     8     8     9    1
     9     9    10    1
    10    10    11    1
    11    11    12   ar
    12    12    13   ar
    13    13    14    1
    14    13    15   ar
    15    15    16   ar
    16    16    17   ar
    17    17    18    1
    18     9    19    1
    19    19    20   ar
    20    20    21   ar
    21    21    22   ar
    22    22    23    1
    23    23    24    3
    24    22    25   ar
    25    25    26    1
    26    25    27   ar
    27     8    28    1
    28    28     5    1
    29    17    11   ar
    30    27    19   ar
    31     1    29    1
    32     1    30    1
    33     1    31    1
    34     2    32    1
    35     2    33    1
    36     6    34    1
    37     6    35    1
    38     7    36    1
    39     7    37    1
    40     8    38    1
    41    10    39    1
    42    10    40    1
    43    12    41    1
    44    15    42    1
    45    16    43    1
    46    18    44    1
    47    18    45    1
    48    18    46    1
    49    20    47    1
    50    21    48    1
    51    27    49    1
    52    28    50    1
    53    28    51    1
