@<TRIPOS>MOLECULE
*****
 49 50 0 0 0
SMALL
GASTEIGER

@<TRIPOS>ATOM
      1 C           5.0322    0.8672   -2.0181 C.3     1  UNL1       -0.0524
      2 C           4.0558   -0.0522   -1.3330 C.3     1  UNL1       -0.0039
      3 N           3.6574    0.3327   -0.0537 N.3     1  UNL1       -0.3004
      4 C           4.5274    0.3290    1.0334 C.3     1  UNL1        0.0221
      5 C           4.9861   -1.0262    1.5073 C.3     1  UNL1        0.0569
      6 O           5.8450   -0.8128    2.5963 O.3     1  UNL1       -0.3937
      7 C           2.2621    0.4362    0.1536 C.3     1  UNL1       -0.0010
      8 C           1.5121   -0.8432    0.1146 C.3     1  UNL1       -0.0385
      9 C           0.0473   -0.6030    0.3748 C.3     1  UNL1       -0.0337
     10 C          -0.6310    0.3008   -0.6133 C.3     1  UNL1        0.0179
     11 C          -0.5067   -0.3175   -1.9908 C.3     1  UNL1       -0.0467
     12 N          -1.9841    0.5485   -0.2067 N.pl3   1  UNL1       -0.3407
     13 C          -3.1587   -0.1882   -0.0528 C.ar    1  UNL1        0.0380
     14 C          -4.3522    0.3475    0.3777 C.ar    1  UNL1        0.0213
     15 C          -4.4516    1.6807    0.6965 C.ar    1  UNL1       -0.0494
     16 C          -5.6186    2.2683    1.1309 C.ar    1  UNL1       -0.0426
     17 C          -6.7736    1.5169    1.2682 C.ar    1  UNL1        0.0430
     18 CL         -8.2841    2.2047    1.8160 Cl      1  UNL1       -0.0835
     19 C          -6.6539    0.1763    0.9421 C.ar    1  UNL1       -0.0173
     20 C          -5.4860   -0.4100    0.5079 C.ar    1  UNL1        0.0741
     21 N          -5.4906   -1.7185    0.2207 N.ar    1  UNL1       -0.2548
     22 C          -4.3720   -2.3250   -0.2059 C.ar    1  UNL1        0.0300
     23 C          -3.2493   -1.5366   -0.3266 C.ar    1  UNL1       -0.0221
     24 H           4.5715    1.8420   -2.2950 H       1  UNL1        0.0242
     25 H           5.3977    0.4218   -2.9671 H       1  UNL1        0.0242
     26 H           5.9012    1.1247   -1.3841 H       1  UNL1        0.0242
     27 H           3.1670   -0.0990   -1.9934 H       1  UNL1        0.0424
     28 H           4.4850   -1.0870   -1.3629 H       1  UNL1        0.0424
     29 H           5.3723    1.0284    0.8715 H       1  UNL1        0.0449
     30 H           3.9766    0.7772    1.9134 H       1  UNL1        0.0449
     31 H           4.1380   -1.6247    1.8969 H       1  UNL1        0.0570
     32 H           5.4510   -1.6301    0.7006 H       1  UNL1        0.0570
     33 H           6.7838   -0.6589    2.3130 H       1  UNL1        0.2095
     34 H           2.0634    0.9123    1.1344 H       1  UNL1        0.0427
     35 H           1.8782    1.1477   -0.6357 H       1  UNL1        0.0427
     36 H           1.8674   -1.4809    0.9739 H       1  UNL1        0.0278
     37 H           1.5954   -1.4011   -0.8405 H       1  UNL1        0.0278
     38 H          -0.0220   -0.1253    1.4069 H       1  UNL1        0.0283
     39 H          -0.5046   -1.5553    0.5034 H       1  UNL1        0.0283
     40 H          -0.0681    1.2694   -0.6716 H       1  UNL1        0.0495
     41 H          -0.5987   -1.4180   -1.9907 H       1  UNL1        0.0247
     42 H           0.5720   -0.1384   -2.2888 H       1  UNL1        0.0247
     43 H          -1.0903    0.2094   -2.7464 H       1  UNL1        0.0247
     44 H          -2.0822    1.5561    0.0325 H       1  UNL1        0.1464
     45 H          -3.6488    2.3810    0.6418 H       1  UNL1        0.0625
     46 H          -5.7187    3.3288    1.3909 H       1  UNL1        0.0632
     47 H          -7.5327   -0.4440    1.0364 H       1  UNL1        0.0653
     48 H          -4.4443   -3.3794   -0.4186 H       1  UNL1        0.0830
     49 H          -2.4229   -2.1322   -0.6809 H       1  UNL1        0.0651
@<TRIPOS>BOND
     1     1     2    1
     2     2     3    1
     3     3     4    1
     4     4     5    1
     5     5     6    1
     6     3     7    1
     7     7     8    1
     8     8     9    1
     9     9    10    1
    10    10    11    1
    11    10    12    1
    12    12    13    1
    13    13    14   ar
    14    14    15   ar
    15    15    16   ar
    16    16    17   ar
    17    17    18    1
    18    17    19   ar
    19    19    20   ar
    20    20    21   ar
    21    21    22   ar
    22    22    23   ar
    23    23    13   ar
    24    20    14   ar
    25     1    24    1
    26     1    25    1
    27     1    26    1
    28     2    27    1
    29     2    28    1
    30     4    29    1
    31     4    30    1
    32     5    31    1
    33     5    32    1
    34     6    33    1
    35     7    34    1
    36     7    35    1
    37     8    36    1
    38     8    37    1
    39     9    38    1
    40     9    39    1
    41    10    40    1
    42    11    41    1
    43    11    42    1
    44    11    43    1
    45    12    44    1
    46    15    45    1
    47    16    46    1
    48    19    47    1
    49    22    48    1
    50    23    49    1
