
     RDKit          3D

 49 50  0  0  0  0  0  0  0  0999 V2000
    5.0322    0.8672   -2.0181 C   0  0  0  0  0  0  0  0  0  0  0  0
    4.0558   -0.0522   -1.3330 C   0  0  0  0  0  0  0  0  0  0  0  0
    3.6574    0.3327   -0.0537 N   0  0  0  0  0  0  0  0  0  0  0  0
    4.5274    0.3290    1.0334 C   0  0  0  0  0  0  0  0  0  0  0  0
    4.9861   -1.0262    1.5073 C   0  0  0  0  0  0  0  0  0  0  0  0
    5.8450   -0.8128    2.5963 O   0  0  0  0  0  0  0  0  0  0  0  0
    2.2621    0.4362    0.1536 C   0  0  0  0  0  0  0  0  0  0  0  0
    1.5121   -0.8432    0.1146 C   0  0  0  0  0  0  0  0  0  0  0  0
    0.0473   -0.6030    0.3748 C   0  0  0  0  0  0  0  0  0  0  0  0
   -0.6310    0.3008   -0.6133 C   0  0  0  0  0  0  0  0  0  0  0  0
   -0.5067   -0.3175   -1.9908 C   0  0  0  0  0  0  0  0  0  0  0  0
   -1.9841    0.5485   -0.2067 N   0  0  0  0  0  0  0  0  0  0  0  0
   -3.1587   -0.1882   -0.0528 C   0  0  0  0  0  0  0  0  0  0  0  0
   -4.3522    0.3475    0.3777 C   0  0  0  0  0  0  0  0  0  0  0  0
   -4.4516    1.6807    0.6965 C   0  0  0  0  0  0  0  0  0  0  0  0
   -5.6186    2.2683    1.1309 C   0  0  0  0  0  0  0  0  0  0  0  0
   -6.7736    1.5169    1.2682 C   0  0  0  0  0  0  0  0  0  0  0  0
   -8.2841    2.2047    1.8160 Cl  0  0  0  0  0  0  0  0  0  0  0  0
   -6.6539    0.1763    0.9421 C   0  0  0  0  0  0  0  0  0  0  0  0
   -5.4860   -0.4100    0.5079 C   0  0  0  0  0  0  0  0  0  0  0  0
   -5.4906   -1.7185    0.2207 N   0  0  0  0  0  0  0  0  0  0  0  0
   -4.3720   -2.3250   -0.2059 C   0  0  0  0  0  0  0  0  0  0  0  0
   -3.2493   -1.5366   -0.3266 C   0  0  0  0  0  0  0  0  0  0  0  0
    4.5715    1.8420   -2.2950 H   0  0  0  0  0  0  0  0  0  0  0  0
    5.3977    0.4218   -2.9671 H   0  0  0  0  0  0  0  0  0  0  0  0
    5.9012    1.1247   -1.3841 H   0  0  0  0  0  0  0  0  0  0  0  0
    3.1670   -0.0990   -1.9934 H   0  0  0  0  0  0  0  0  0  0  0  0
    4.4850   -1.0870   -1.3629 H   0  0  0  0  0  0  0  0  0  0  0  0
    5.3723    1.0284    0.8715 H   0  0  0  0  0  0  0  0  0  0  0  0
    3.9766    0.7772    1.9134 H   0  0  0  0  0  0  0  0  0  0  0  0
    4.1380   -1.6247    1.8969 H   0  0  0  0  0  0  0  0  0  0  0  0
    5.4510   -1.6301    0.7006 H   0  0  0  0  0  0  0  0  0  0  0  0
    6.7838   -0.6589    2.3130 H   0  0  0  0  0  0  0  0  0  0  0  0
    2.0634    0.9123    1.1344 H   0  0  0  0  0  0  0  0  0  0  0  0
    1.8782    1.1477   -0.6357 H   0  0  0  0  0  0  0  0  0  0  0  0
    1.8674   -1.4809    0.9739 H   0  0  0  0  0  0  0  0  0  0  0  0
    1.5954   -1.4011   -0.8405 H   0  0  0  0  0  0  0  0  0  0  0  0
   -0.0220   -0.1253    1.4069 H   0  0  0  0  0  0  0  0  0  0  0  0
   -0.5046   -1.5553    0.5034 H   0  0  0  0  0  0  0  0  0  0  0  0
   -0.0681    1.2694   -0.6716 H   0  0  0  0  0  0  0  0  0  0  0  0
   -0.5987   -1.4180   -1.9907 H   0  0  0  0  0  0  0  0  0  0  0  0
    0.5720   -0.1384   -2.2888 H   0  0  0  0  0  0  0  0  0  0  0  0
   -1.0903    0.2094   -2.7464 H   0  0  0  0  0  0  0  0  0  0  0  0
   -2.0822    1.5561    0.0325 H   0  0  0  0  0  0  0  0  0  0  0  0
   -3.6488    2.3810    0.6418 H   0  0  0  0  0  0  0  0  0  0  0  0
   -5.7187    3.3288    1.3909 H   0  0  0  0  0  0  0  0  0  0  0  0
   -7.5327   -0.4440    1.0364 H   0  0  0  0  0  0  0  0  0  0  0  0
   -4.4443   -3.3794   -0.4186 H   0  0  0  0  0  0  0  0  0  0  0  0
   -2.4229   -2.1322   -0.6809 H   0  0  0  0  0  0  0  0  0  0  0  0
  1  2  1  0
  2  3  1  0
  3  4  1  0
  4  5  1  0
  5  6  1  0
  3  7  1  0
  7  8  1  0
  8  9  1  0
  9 10  1  0
 10 11  1  0
 10 12  1  0
 12 13  1  0
 13 14  2  0
 14 15  1  0
 15 16  2  0
 16 17  1  0
 17 18  1  0
 17 19  2  0
 19 20  1  0
 20 21  2  0
 21 22  1  0
 22 23  2  0
 23 13  1  0
 20 14  1  0
  1 24  1  0
  1 25  1  0
  1 26  1  0
  2 27  1  0
  2 28  1  0
  4 29  1  0
  4 30  1  0
  5 31  1  0
  5 32  1  0
  6 33  1  0
  7 34  1  0
  7 35  1  0
  8 36  1  0
  8 37  1  0
  9 38  1  0
  9 39  1  0
 10 40  1  0
 11 41  1  0
 11 42  1  0
 11 43  1  0
 12 44  1  0
 15 45  1  0
 16 46  1  0
 19 47  1  0
 22 48  1  0
 23 49  1  0
M  END
$$$$
