@<TRIPOS>MOLECULE
*****
 60 63 0 0 0
SMALL
GASTEIGER

@<TRIPOS>ATOM
      1 C           6.9658   -3.0329    0.2262 C.3     1  UNL1        0.0789
      2 O           6.1609   -3.0271   -0.9242 O.3     1  UNL1       -0.4937
      3 C           4.8086   -2.7235   -0.8843 C.ar    1  UNL1        0.1383
      4 C           3.9895   -2.7096   -2.0005 C.ar    1  UNL1        0.0828
      5 CL          4.6876   -3.0970   -3.5628 Cl      1  UNL1       -0.0797
      6 C           2.6383   -2.4015   -1.9288 C.ar    1  UNL1       -0.0352
      7 C           2.0561   -2.0927   -0.7167 C.ar    1  UNL1       -0.0288
      8 C           0.6339   -1.7446   -0.4933 C.3     1  UNL1        0.0357
      9 N           0.5063   -0.3056   -0.6118 N.pl3   1  UNL1       -0.3242
     10 C          -0.8018    0.2763   -0.4303 C.ar    1  UNL1        0.1363
     11 C          -1.0265    1.6236   -0.5200 C.ar    1  UNL1        0.0945
     12 C          -2.2991    2.1004   -0.3335 C.ar    1  UNL1        0.0466
     13 N          -3.3119    1.2605   -0.0669 N.ar    1  UNL1       -0.2219
     14 C          -3.0766   -0.0581    0.0178 C.ar    1  UNL1        0.2198
     15 N          -1.8371   -0.5378   -0.1622 N.ar    1  UNL1       -0.1988
     16 N          -4.1303   -0.9743    0.2983 N.pl3   1  UNL1       -0.2944
     17 C          -5.5264   -0.6539    0.5438 C.3     1  UNL1        0.0153
     18 C          -6.0373   -1.7769    1.4411 C.3     1  UNL1       -0.0354
     19 C          -4.8601   -2.6942    1.6260 C.3     1  UNL1       -0.0307
     20 C          -4.0327   -2.4184    0.3955 C.3     1  UNL1        0.0493
     21 C          -4.5867   -3.1014   -0.8306 C.3     1  UNL1        0.0628
     22 O          -5.9141   -2.8220   -1.0601 O.3     1  UNL1       -0.3932
     23 C           0.0406    2.5639   -0.8112 C.2     1  UNL1        0.2492
     24 O           1.2578    2.5066   -1.0409 O.2     1  UNL1       -0.2700
     25 N          -0.2191    3.9614   -0.8876 N.am    1  UNL1       -0.3041
     26 C           0.9282    4.7915   -1.1850 C.3     1  UNL1        0.0718
     27 C           1.8368    4.9921   -0.0329 C.ar    1  UNL1        0.1459
     28 N           2.8748    4.1853    0.2437 N.ar    1  UNL1       -0.2387
     29 C           3.7188    4.3170    1.2574 C.ar    1  UNL1        0.0311
     30 C           3.5396    5.3726    2.1272 C.ar    1  UNL1       -0.0254
     31 C           2.4800    6.2001    1.8487 C.ar    1  UNL1        0.0311
     32 N           1.6480    6.0275    0.8066 N.ar    1  UNL1       -0.2387
     33 C           2.9101   -2.1172    0.3810 C.ar    1  UNL1       -0.0535
     34 C           4.2524   -2.4181    0.3439 C.ar    1  UNL1       -0.0182
     35 H           8.0235   -3.1317   -0.0544 H       1  UNL1        0.0660
     36 H           6.8243   -2.1035    0.8134 H       1  UNL1        0.0660
     37 H           6.6627   -3.8942    0.8403 H       1  UNL1        0.0660
     38 H           1.9940   -2.3882   -2.7894 H       1  UNL1        0.0636
     39 H           0.3688   -2.0863    0.5388 H       1  UNL1        0.0511
     40 H          -0.0408   -2.2807   -1.1913 H       1  UNL1        0.0511
     41 H           1.3548    0.2587   -0.8220 H       1  UNL1        0.1478
     42 H          -2.6322    3.1193   -0.3715 H       1  UNL1        0.0839
     43 H          -5.6440    0.3206    1.0600 H       1  UNL1        0.0465
     44 H          -6.0790   -0.5768   -0.4055 H       1  UNL1        0.0465
     45 H          -6.8964   -2.3054    0.9952 H       1  UNL1        0.0281
     46 H          -6.3284   -1.3917    2.4405 H       1  UNL1        0.0281
     47 H          -5.1463   -3.7607    1.7125 H       1  UNL1        0.0284
     48 H          -4.2585   -2.4311    2.5167 H       1  UNL1        0.0284
     49 H          -2.9790   -2.7698    0.5138 H       1  UNL1        0.0523
     50 H          -4.0142   -2.7102   -1.7046 H       1  UNL1        0.0576
     51 H          -4.3848   -4.1901   -0.8082 H       1  UNL1        0.0576
     52 H          -6.3820   -3.5747   -1.5093 H       1  UNL1        0.2095
     53 H          -1.1764    4.4132   -0.7425 H       1  UNL1        0.1495
     54 H           0.5534    5.7991   -1.4596 H       1  UNL1        0.0543
     55 H           1.4749    4.4381   -2.0856 H       1  UNL1        0.0543
     56 H           4.5237    3.5757    1.3565 H       1  UNL1        0.0830
     57 H           4.2324    5.4574    2.9351 H       1  UNL1        0.0648
     58 H           2.3332    7.0329    2.5298 H       1  UNL1        0.0830
     59 H           2.5005   -1.8809    1.3572 H       1  UNL1        0.0622
     60 H           4.8407   -2.4108    1.2602 H       1  UNL1        0.0655
@<TRIPOS>BOND
     1     1     2    1
     2     2     3    1
     3     3     4   ar
     4     4     5    1
     5     4     6   ar
     6     6     7   ar
     7     7     8    1
     8     8     9    1
     9     9    10    1
    10    10    11   ar
    11    11    12   ar
    12    12    13   ar
    13    13    14   ar
    14    14    15   ar
    15    14    16    1
    16    16    17    1
    17    17    18    1
    18    18    19    1
    19    19    20    1
    20    20    21    1
    21    21    22    1
    22    11    23    1
    23    23    24    2
    24    23    25   am
    25    25    26    1
    26    26    27    1
    27    27    28   ar
    28    28    29   ar
    29    29    30   ar
    30    30    31   ar
    31    31    32   ar
    32     7    33   ar
    33    33    34   ar
    34    34     3   ar
    35    15    10   ar
    36    20    16    1
    37    32    27   ar
    38     1    35    1
    39     1    36    1
    40     1    37    1
    41     6    38    1
    42     8    39    1
    43     8    40    1
    44     9    41    1
    45    12    42    1
    46    17    43    1
    47    17    44    1
    48    18    45    1
    49    18    46    1
    50    19    47    1
    51    19    48    1
    52    20    49    1
    53    21    50    1
    54    21    51    1
    55    22    52    1
    56    25    53    1
    57    26    54    1
    58    26    55    1
    59    29    56    1
    60    30    57    1
    61    31    58    1
    62    33    59    1
    63    34    60    1
