@<TRIPOS>MOLECULE
*****
 46 48 0 0 0
SMALL
GASTEIGER

@<TRIPOS>ATOM
      1 C           7.2726    1.9916    0.2591 C.3     1  UNL1       -0.0652
      2 C           6.1418    1.0084    0.4105 C.3     1  UNL1       -0.0545
      3 C           4.8120    1.5748   -0.0889 C.3     1  UNL1       -0.0376
      4 C           3.7792    0.4916    0.1214 C.3     1  UNL1        0.0118
      5 N           2.4718    0.8945   -0.3225 N.pl3   1  UNL1       -0.3134
      6 C           1.3910   -0.0107   -0.1572 C.ar    1  UNL1        0.2169
      7 N           1.5527   -1.1906    0.4447 N.ar    1  UNL1       -0.2222
      8 C           0.5497   -2.0816    0.6175 C.ar    1  UNL1        0.0437
      9 C          -0.7115   -1.7934    0.1649 C.ar    1  UNL1        0.0586
     10 C          -1.8225   -2.6991    0.3132 C.ar    1  UNL1        0.0757
     11 C          -1.7021   -3.9353    0.9254 C.ar    1  UNL1       -0.0355
     12 C          -2.7826   -4.8133    1.0625 C.ar    1  UNL1       -0.0583
     13 C          -4.0070   -4.4714    0.5888 C.ar    1  UNL1       -0.0436
     14 C          -4.1181   -3.2245   -0.0258 C.ar    1  UNL1        0.0283
     15 N          -3.0592   -2.4082   -0.1389 N.ar    1  UNL1       -0.2548
     16 C          -0.9029   -0.5732   -0.4639 C.ar    1  UNL1        0.1372
     17 N          -2.1670   -0.1734   -0.9618 N.pl3   1  UNL1       -0.2988
     18 C          -2.8719    0.9434   -0.4355 C.ar    1  UNL1        0.0326
     19 C          -4.1352    1.2161   -0.9096 C.ar    1  UNL1       -0.0371
     20 C          -4.8666    2.3075   -0.4461 C.ar    1  UNL1       -0.0184
     21 C          -4.3363    3.1493    0.5084 C.ar    1  UNL1        0.1170
     22 O          -5.0475    4.2611    0.9976 O.3     1  UNL1       -0.5068
     23 C          -3.0718    2.8700    0.9788 C.ar    1  UNL1       -0.0184
     24 C          -2.3324    1.7769    0.5190 C.ar    1  UNL1       -0.0371
     25 N           0.1500    0.2773   -0.6049 N.ar    1  UNL1       -0.1988
     26 H           8.2095    1.5063   -0.1207 H       1  UNL1        0.0230
     27 H           6.9732    2.8185   -0.3962 H       1  UNL1        0.0230
     28 H           7.5341    2.3456    1.2801 H       1  UNL1        0.0230
     29 H           6.0551    0.5600    1.3974 H       1  UNL1        0.0263
     30 H           6.3664    0.1634   -0.2989 H       1  UNL1        0.0263
     31 H           4.8758    1.8486   -1.1381 H       1  UNL1        0.0280
     32 H           4.5854    2.4578    0.5659 H       1  UNL1        0.0280
     33 H           4.0987   -0.3638   -0.5447 H       1  UNL1        0.0462
     34 H           3.7904    0.1076    1.1492 H       1  UNL1        0.0462
     35 H           2.2619    1.8148   -0.7593 H       1  UNL1        0.1489
     36 H           0.7262   -3.0198    1.1066 H       1  UNL1        0.0838
     37 H          -0.7771   -4.2942    1.3301 H       1  UNL1        0.0639
     38 H          -2.6636   -5.7800    1.5480 H       1  UNL1        0.0619
     39 H          -4.8507   -5.1453    0.6915 H       1  UNL1        0.0633
     40 H          -5.1080   -2.9615   -0.4028 H       1  UNL1        0.0830
     41 H          -2.5601   -0.7405   -1.7429 H       1  UNL1        0.1536
     42 H          -4.6199    0.5991   -1.6601 H       1  UNL1        0.0637
     43 H          -5.8569    2.5321   -0.8083 H       1  UNL1        0.0655
     44 H          -5.2401    5.0742    0.3930 H       1  UNL1        0.2921
     45 H          -2.6332    3.5273    1.7347 H       1  UNL1        0.0655
     46 H          -1.3530    1.5621    0.8815 H       1  UNL1        0.0637
@<TRIPOS>BOND
     1     1     2    1
     2     2     3    1
     3     3     4    1
     4     4     5    1
     5     5     6    1
     6     6     7   ar
     7     7     8   ar
     8     8     9   ar
     9     9    10    1
    10    10    11   ar
    11    11    12   ar
    12    12    13   ar
    13    13    14   ar
    14    14    15   ar
    15     9    16   ar
    16    16    17    1
    17    17    18    1
    18    18    19   ar
    19    19    20   ar
    20    20    21   ar
    21    21    22    1
    22    21    23   ar
    23    23    24   ar
    24    16    25   ar
    25    25     6   ar
    26    15    10   ar
    27    24    18   ar
    28     1    26    1
    29     1    27    1
    30     1    28    1
    31     2    29    1
    32     2    30    1
    33     3    31    1
    34     3    32    1
    35     4    33    1
    36     4    34    1
    37     5    35    1
    38     8    36    1
    39    11    37    1
    40    12    38    1
    41    13    39    1
    42    14    40    1
    43    17    41    1
    44    19    42    1
    45    20    43    1
    46    22    44    1
    47    23    45    1
    48    24    46    1
