@<TRIPOS>MOLECULE
*****
 92 98 0 0 0
SMALL
GASTEIGER

@<TRIPOS>ATOM
      1 C           1.6441    4.5958    1.6755 C.3     1  UNL1       -0.0377
      2 C           0.6719    4.7693    0.5485 C.ar    1  UNL1       -0.0248
      3 C          -0.4175    3.9341    0.5095 C.ar    1  UNL1       -0.0536
      4 C          -1.3353    4.0458   -0.5013 C.ar    1  UNL1       -0.0442
      5 C          -2.5167    3.1378   -0.5391 C.3     1  UNL1       -0.0006
      6 C          -2.0776    1.8920   -1.3206 C.3     1  UNL1        0.1049
      7 N          -0.9825    1.2873   -0.6333 N.am    1  UNL1       -0.2876
      8 C           0.3021    1.0920   -1.2476 C.2     1  UNL1        0.3028
      9 O           0.3672    1.5074   -2.4591 O.2     1  UNL1       -0.2526
     10 N           1.4164    0.5103   -0.6385 N.am    1  UNL1       -0.2855
     11 C           1.4039    0.0456    0.7029 C.3     1  UNL1        0.0178
     12 C           2.7228   -0.4918    1.1828 C.3     1  UNL1       -0.0183
     13 C           3.8458    0.4139    0.8027 C.3     1  UNL1        0.0307
     14 N           5.1415   -0.2418    0.9587 N.am    1  UNL1       -0.2778
     15 C           5.3950   -1.3926    0.1346 C.3     1  UNL1        0.0433
     16 C           6.7465   -1.9523    0.2857 C.ar    1  UNL1       -0.0060
     17 C           7.1061   -3.0220   -0.4899 C.ar    1  UNL1       -0.0551
     18 C           8.3566   -3.6137   -0.4017 C.ar    1  UNL1       -0.0586
     19 C           9.2381   -3.0834    0.5041 C.ar    1  UNL1       -0.0246
     20 C           8.8879   -2.0055    1.2917 C.ar    1  UNL1        0.1448
     21 F           9.7890   -1.4935    2.1912 F       1  UNL1       -0.2035
     22 C           7.6473   -1.4322    1.1913 C.ar    1  UNL1        0.0749
     23 N           7.3517   -0.3235    2.0083 N.am    1  UNL1       -0.2665
     24 C           6.0663    0.2868    1.8897 C.2     1  UNL1        0.3071
     25 O           5.7251    1.2845    2.5883 O.2     1  UNL1       -0.2523
     26 C           3.7499    0.9740   -0.5937 C.3     1  UNL1       -0.0183
     27 C           2.6407    0.3666   -1.4082 C.3     1  UNL1        0.0178
     28 C          -3.2620    1.0998   -1.6151 C.2     1  UNL1        0.2363
     29 O          -4.1490    1.7691   -2.3151 O.2     1  UNL1       -0.2736
     30 N          -3.5752   -0.2403   -1.2629 N.am    1  UNL1       -0.2998
     31 C          -4.8573   -0.7196   -1.7323 C.3     1  UNL1        0.0161
     32 C          -4.8279   -2.1844   -2.0267 C.3     1  UNL1       -0.0214
     33 C          -4.3733   -2.9549   -0.7885 C.3     1  UNL1        0.0133
     34 N          -5.3153   -2.7875    0.2933 N.3     1  UNL1       -0.2993
     35 C          -6.6599   -3.1525   -0.0965 C.3     1  UNL1       -0.0008
     36 C          -7.5532   -2.9769    1.1382 C.3     1  UNL1       -0.0402
     37 C          -7.2679   -4.1818    2.0016 C.3     1  UNL1       -0.0507
     38 C          -5.8145   -4.3510    2.1677 C.3     1  UNL1       -0.0402
     39 C          -4.8928   -3.4084    1.5070 C.3     1  UNL1       -0.0008
     40 C          -2.9920   -2.4935   -0.5186 C.3     1  UNL1       -0.0214
     41 C          -2.7104   -1.0407   -0.4954 C.3     1  UNL1        0.0161
     42 C          -1.1434    5.0022   -1.4657 C.ar    1  UNL1       -0.0478
     43 C          -0.0553    5.8538   -1.4476 C.ar    1  UNL1        0.0200
     44 C           0.4133    6.8878   -2.2385 C.ar    1  UNL1        0.0569
     45 N           1.5398    7.3275   -1.6883 N.ar    1  UNL1       -0.1812
     46 N           1.8357    6.6451   -0.5876 N.ar    1  UNL1       -0.2767
     47 C           0.8577    5.7312   -0.4277 C.ar    1  UNL1        0.0686
     48 H           2.1333    5.5464    1.9295 H       1  UNL1        0.0278
     49 H           1.1431    4.1268    2.5449 H       1  UNL1        0.0278
     50 H           2.4070    3.8771    1.2965 H       1  UNL1        0.0278
     51 H          -0.5810    3.1766    1.2627 H       1  UNL1        0.0624
     52 H          -2.8152    2.8378    0.4786 H       1  UNL1        0.0336
     53 H          -3.3656    3.6137   -1.0419 H       1  UNL1        0.0336
     54 H          -1.6512    2.2617   -2.3099 H       1  UNL1        0.0598
     55 H          -1.0521    0.9660    0.3782 H       1  UNL1        0.1510
     56 H           1.1293    0.8817    1.3810 H       1  UNL1        0.0465
     57 H           0.6119   -0.7395    0.7948 H       1  UNL1        0.0465
     58 H           2.8112   -1.5333    0.8465 H       1  UNL1        0.0298
     59 H           2.6647   -0.5326    2.2981 H       1  UNL1        0.0298
     60 H           3.8119    1.2867    1.5038 H       1  UNL1        0.0502
     61 H           4.6773   -2.2258    0.3569 H       1  UNL1        0.0515
     62 H           5.3066   -1.1023   -0.9521 H       1  UNL1        0.0515
     63 H           6.3902   -3.4241   -1.2012 H       1  UNL1        0.0621
     64 H           8.6492   -4.4629   -1.0141 H       1  UNL1        0.0619
     65 H          10.2258   -3.5371    0.5855 H       1  UNL1        0.0647
     66 H           8.0269    0.0825    2.7047 H       1  UNL1        0.1565
     67 H           3.5852    2.0841   -0.5763 H       1  UNL1        0.0298
     68 H           4.7257    0.8423   -1.1175 H       1  UNL1        0.0298
     69 H           2.5910    0.9643   -2.3592 H       1  UNL1        0.0465
     70 H           2.8299   -0.6653   -1.7342 H       1  UNL1        0.0465
     71 H          -5.1647   -0.1946   -2.6497 H       1  UNL1        0.0465
     72 H          -5.5770   -0.4665   -0.9168 H       1  UNL1        0.0465
     73 H          -4.0408   -2.3649   -2.8003 H       1  UNL1        0.0295
     74 H          -5.7784   -2.5079   -2.4346 H       1  UNL1        0.0295
     75 H          -4.3597   -4.0213   -1.0672 H       1  UNL1        0.0463
     76 H          -7.0742   -2.4722   -0.8665 H       1  UNL1        0.0427
     77 H          -6.7417   -4.2235   -0.3665 H       1  UNL1        0.0427
     78 H          -8.6357   -2.9542    0.8616 H       1  UNL1        0.0278
     79 H          -7.2406   -2.0800    1.6974 H       1  UNL1        0.0278
     80 H          -7.8399   -4.1518    2.9558 H       1  UNL1        0.0266
     81 H          -7.6733   -5.0590    1.4148 H       1  UNL1        0.0266
     82 H          -5.6024   -4.2749    3.2827 H       1  UNL1        0.0278
     83 H          -5.5513   -5.4353    1.9610 H       1  UNL1        0.0278
     84 H          -3.9724   -4.0185    1.2484 H       1  UNL1        0.0427
     85 H          -4.4896   -2.6154    2.1852 H       1  UNL1        0.0427
     86 H          -2.5489   -2.9222    0.4154 H       1  UNL1        0.0295
     87 H          -2.3431   -2.9693   -1.3283 H       1  UNL1        0.0295
     88 H          -1.6274   -0.9462   -0.8263 H       1  UNL1        0.0465
     89 H          -2.7541   -0.6442    0.5656 H       1  UNL1        0.0465
     90 H          -1.8603    5.1196   -2.2908 H       1  UNL1        0.0627
     91 H          -0.1037    7.2219   -3.1309 H       1  UNL1        0.0854
     92 H           2.6411    6.7397    0.0691 H       1  UNL1        0.1889
@<TRIPOS>BOND
     1     1     2    1
     2     2     3   ar
     3     3     4   ar
     4     4     5    1
     5     5     6    1
     6     6     7    1
     7     7     8   am
     8     8     9    2
     9     8    10   am
    10    10    11    1
    11    11    12    1
    12    12    13    1
    13    13    14    1
    14    14    15    1
    15    15    16    1
    16    16    17   ar
    17    17    18   ar
    18    18    19   ar
    19    19    20   ar
    20    20    21    1
    21    20    22   ar
    22    22    23    1
    23    23    24   am
    24    24    25    2
    25    13    26    1
    26    26    27    1
    27     6    28    1
    28    28    29    2
    29    28    30   am
    30    30    31    1
    31    31    32    1
    32    32    33    1
    33    33    34    1
    34    34    35    1
    35    35    36    1
    36    36    37    1
    37    37    38    1
    38    38    39    1
    39    33    40    1
    40    40    41    1
    41     4    42   ar
    42    42    43   ar
    43    43    44   ar
    44    44    45   ar
    45    45    46   ar
    46    46    47   ar
    47    47     2   ar
    48    27    10    1
    49    41    30    1
    50    47    43   ar
    51    24    14   am
    52    39    34    1
    53    22    16   ar
    54     1    48    1
    55     1    49    1
    56     1    50    1
    57     3    51    1
    58     5    52    1
    59     5    53    1
    60     6    54    1
    61     7    55    1
    62    11    56    1
    63    11    57    1
    64    12    58    1
    65    12    59    1
    66    13    60    1
    67    15    61    1
    68    15    62    1
    69    17    63    1
    70    18    64    1
    71    19    65    1
    72    23    66    1
    73    26    67    1
    74    26    68    1
    75    27    69    1
    76    27    70    1
    77    31    71    1
    78    31    72    1
    79    32    73    1
    80    32    74    1
    81    33    75    1
    82    35    76    1
    83    35    77    1
    84    36    78    1
    85    36    79    1
    86    37    80    1
    87    37    81    1
    88    38    82    1
    89    38    83    1
    90    39    84    1
    91    39    85    1
    92    40    86    1
    93    40    87    1
    94    41    88    1
    95    41    89    1
    96    42    90    1
    97    44    91    1
    98    46    92    1
