@<TRIPOS>MOLECULE
*****
 56 59 0 0 0
SMALL
GASTEIGER

@<TRIPOS>ATOM
      1 C          -3.5446   -2.3387    0.9280 C.3     1  UNL1       -0.0220
      2 C          -2.1544   -2.7131    0.6451 C.ar    1  UNL1        0.0471
      3 C          -1.1144   -1.8275    0.5272 C.ar    1  UNL1        0.0643
      4 C          -1.0939   -0.4337    0.6355 C.ar    1  UNL1        0.1324
      5 O          -2.2096    0.2697    0.8947 O.3     1  UNL1       -0.4880
      6 C          -2.4446    1.6166    1.0456 C.3     1  UNL1        0.1021
      7 C          -2.9993    1.9838    2.4266 C.3     1  UNL1       -0.0275
      8 C          -3.4259    2.1860    0.0525 C.3     1  UNL1        0.0195
      9 C          -2.9675    2.0178   -1.3806 C.3     1  UNL1        0.0182
     10 N          -4.1737    1.7478   -2.1335 N.am    1  UNL1       -0.3149
     11 C          -5.2469    1.4963   -1.2498 C.2     1  UNL1        0.2135
     12 O          -6.4175    1.2356   -1.6454 O.2     1  UNL1       -0.2758
     13 C          -4.7947    1.5846    0.1627 C.3     1  UNL1        0.0315
     14 C           0.1222    0.1666    0.4627 C.ar    1  UNL1       -0.0113
     15 C           1.2803   -0.5529    0.1944 C.ar    1  UNL1       -0.0094
     16 C           2.5513    0.1407    0.0194 C.ar    1  UNL1        0.0198
     17 C           2.9270    1.3093    0.6460 C.ar    1  UNL1        0.0571
     18 N           4.1602    1.6281    0.2267 N.ar    1  UNL1       -0.1776
     19 N           4.6008    0.7125   -0.6478 N.ar    1  UNL1       -0.2514
     20 C           5.9039    0.7770   -1.2824 C.3     1  UNL1        0.1431
     21 C           6.3667    2.2248   -1.3885 C.3     1  UNL1       -0.0267
     22 C           6.9551    0.0644   -0.4373 C.3     1  UNL1       -0.0267
     23 C           5.8796    0.1876   -2.6165 C.1     1  UNL1        0.0921
     24 N           5.8480   -0.2636   -3.6695 N.1     1  UNL1       -0.1940
     25 C           3.6237   -0.2006   -0.7806 C.ar    1  UNL1        0.0350
     26 C           1.2255   -1.9279    0.0938 C.ar    1  UNL1       -0.0259
     27 C           0.0142   -2.5707    0.2623 C.ar    1  UNL1        0.0971
     28 N          -0.3903   -3.8566    0.2325 N.ar    1  UNL1       -0.1711
     29 N          -1.6699   -3.9750    0.4558 N.ar    1  UNL1       -0.2704
     30 C          -2.5149   -5.1584    0.5142 C.3     1  UNL1        0.0305
     31 H          -3.9473   -1.5829    0.2230 H       1  UNL1        0.0293
     32 H          -4.2090   -3.2511    0.9254 H       1  UNL1        0.0293
     33 H          -3.6445   -1.9131    1.9478 H       1  UNL1        0.0293
     34 H          -1.5033    2.1821    0.9208 H       1  UNL1        0.0733
     35 H          -2.6215    2.9952    2.7387 H       1  UNL1        0.0265
     36 H          -2.7912    1.2004    3.1629 H       1  UNL1        0.0265
     37 H          -4.1076    2.1003    2.3925 H       1  UNL1        0.0265
     38 H          -3.5407    3.2827    0.2101 H       1  UNL1        0.0356
     39 H          -2.5384    2.9661   -1.7952 H       1  UNL1        0.0466
     40 H          -2.1929    1.2528   -1.4946 H       1  UNL1        0.0466
     41 H          -4.2343    1.7417   -3.1810 H       1  UNL1        0.1487
     42 H          -4.8115    0.6086    0.6821 H       1  UNL1        0.0363
     43 H          -5.4849    2.2463    0.7491 H       1  UNL1        0.0363
     44 H           0.2147    1.2335    0.5316 H       1  UNL1        0.0660
     45 H           2.3319    1.8659    1.3481 H       1  UNL1        0.0854
     46 H           7.3937    2.2408   -1.7828 H       1  UNL1        0.0263
     47 H           5.7166    2.7909   -2.0752 H       1  UNL1        0.0263
     48 H           6.3053    2.6881   -0.3831 H       1  UNL1        0.0263
     49 H           7.9489    0.3817   -0.8672 H       1  UNL1        0.0263
     50 H           6.8910   -1.0220   -0.5187 H       1  UNL1        0.0263
     51 H           6.9120    0.4399    0.5893 H       1  UNL1        0.0263
     52 H           3.6916   -1.0624   -1.4227 H       1  UNL1        0.0833
     53 H           2.0981   -2.5354   -0.1140 H       1  UNL1        0.0646
     54 H          -1.8838   -6.0631    0.6649 H       1  UNL1        0.0473
     55 H          -2.9916   -5.2753   -0.4890 H       1  UNL1        0.0473
     56 H          -3.2979   -5.0420    1.2796 H       1  UNL1        0.0473
@<TRIPOS>BOND
     1     1     2    1
     2     2     3   ar
     3     3     4   ar
     4     4     5    1
     5     5     6    1
     6     6     7    1
     7     6     8    1
     8     8     9    1
     9     9    10    1
    10    10    11   am
    11    11    12    2
    12    11    13    1
    13     4    14   ar
    14    14    15   ar
    15    15    16    1
    16    16    17   ar
    17    17    18   ar
    18    18    19   ar
    19    19    20    1
    20    20    21    1
    21    20    22    1
    22    20    23    1
    23    23    24    3
    24    19    25   ar
    25    15    26   ar
    26    26    27   ar
    27    27    28   ar
    28    28    29   ar
    29    29    30    1
    30    29     2   ar
    31    27     3   ar
    32    13     8    1
    33    25    16   ar
    34     1    31    1
    35     1    32    1
    36     1    33    1
    37     6    34    1
    38     7    35    1
    39     7    36    1
    40     7    37    1
    41     8    38    1
    42     9    39    1
    43     9    40    1
    44    10    41    1
    45    13    42    1
    46    13    43    1
    47    14    44    1
    48    17    45    1
    49    21    46    1
    50    21    47    1
    51    21    48    1
    52    22    49    1
    53    22    50    1
    54    22    51    1
    55    25    52    1
    56    26    53    1
    57    30    54    1
    58    30    55    1
    59    30    56    1
