
     RDKit          3D

 76 78  0  0  0  0  0  0  0  0999 V2000
    3.8757   -1.1026    0.5175 C   0  0  0  0  0  0  0  0  0  0  0  0
    3.2890   -0.2261   -0.2933 C   0  0  0  0  0  0  0  0  0  0  0  0
    4.0584    0.6899   -1.1727 C   0  0  0  0  0  0  0  0  0  0  0  0
    1.7869   -0.1066   -0.2899 C   0  0  2  0  0  0  0  0  0  0  0  0
    1.3362    1.1600    0.3530 C   0  0  0  0  0  0  0  0  0  0  0  0
    1.6400    2.4671   -0.2672 C   0  0  2  0  0  0  0  0  0  0  0  0
    2.1799    3.4746    0.6059 O   0  0  0  0  0  0  0  0  0  0  0  0
    0.8679    3.5862    0.1931 C   0  0  1  0  0  0  0  0  0  0  0  0
    0.5925    4.7293   -0.7396 C   0  0  0  0  0  0  0  0  0  0  0  0
   -0.2495    3.2293    1.1348 C   0  0  0  0  0  0  0  0  0  0  0  0
   -1.5036    2.9582    0.3167 C   0  0  0  0  0  0  0  0  0  0  0  0
   -2.4878    2.1615    1.1186 C   0  0  0  0  0  0  0  0  0  0  0  0
   -3.7466    1.8405    0.3435 C   0  0  2  0  0  0  0  0  0  0  0  0
   -4.7862    2.8623    0.5682 C   0  0  0  0  0  0  0  0  0  0  0  0
   -4.1700    0.4326    0.5348 C   0  0  2  0  0  0  0  0  0  0  0  0
   -4.1642   -0.0125    1.8348 O   0  0  0  0  0  0  0  0  0  0  0  0
   -3.6334   -0.5726   -0.4305 C   0  0  1  0  0  0  0  0  0  0  0  0
   -2.2968   -0.2600   -0.9375 C   0  0  0  0  0  0  0  0  0  0  0  0
   -3.6790   -1.9046    0.2932 C   0  0  0  0  0  0  0  0  0  0  0  0
   -4.5355   -2.0130    1.1838 O   0  0  0  0  0  0  0  0  0  0  0  0
   -2.7137   -3.0262   -0.0722 C   0  0  0  0  0  0  0  0  0  0  0  0
   -2.6483   -3.3259   -1.4947 C   0  0  0  0  0  0  0  0  0  0  0  0
   -3.5147   -4.3025    0.4825 C   0  0  0  0  0  0  0  0  0  0  0  0
   -1.5713   -2.9618    0.8280 C   0  0  1  0  0  0  0  0  0  0  0  0
   -1.9347   -3.4159    2.1262 O   0  0  0  0  0  0  0  0  0  0  0  0
   -0.1927   -3.2802    0.4694 C   0  0  0  0  0  0  0  0  0  0  0  0
    0.4299   -2.2204   -0.4094 C   0  0  0  0  0  0  0  0  0  0  0  0
    0.5678   -1.8520   -1.5743 O   0  0  0  0  0  0  0  0  0  0  0  0
    1.1415   -1.2261    0.2300 O   0  0  0  0  0  0  0  0  0  0  0  0
    5.3338   -1.2571    0.6392 C   0  0  0  0  0  0  0  0  0  0  0  0
    5.8580   -2.0402    1.7022 C   0  0  0  0  0  0  0  0  0  0  0  0
    7.6218   -1.8960    1.4775 S   0  0  0  0  0  0  0  0  0  0  0  0
    7.4176   -0.7821   -0.0437 C   0  0  0  0  0  0  0  0  0  0  0  0
    8.4311   -0.1229   -0.9409 C   0  0  0  0  0  0  0  0  0  0  0  0
    6.2673   -0.7245   -0.1056 N   0  0  0  0  0  0  0  0  0  0  0  0
    3.1801   -1.7098    1.1018 H   0  0  0  0  0  0  0  0  0  0  0  0
    3.3780    0.8447   -2.0798 H   0  0  0  0  0  0  0  0  0  0  0  0
    4.3733    1.6227   -0.7189 H   0  0  0  0  0  0  0  0  0  0  0  0
    4.9442    0.2151   -1.6544 H   0  0  0  0  0  0  0  0  0  0  0  0
    1.5508   -0.0555   -1.3916 H   0  0  0  0  0  0  0  0  0  0  0  0
    1.8764    1.1860    1.3788 H   0  0  0  0  0  0  0  0  0  0  0  0
    0.2747    1.0188    0.6370 H   0  0  0  0  0  0  0  0  0  0  0  0
    1.9760    2.4919   -1.3091 H   0  0  0  0  0  0  0  0  0  0  0  0
    0.4882    4.3230   -1.7654 H   0  0  0  0  0  0  0  0  0  0  0  0
   -0.3509    5.2658   -0.5077 H   0  0  0  0  0  0  0  0  0  0  0  0
    1.4393    5.4521   -0.7837 H   0  0  0  0  0  0  0  0  0  0  0  0
   -0.0304    2.5160    1.9084 H   0  0  0  0  0  0  0  0  0  0  0  0
   -0.4887    4.1985    1.6743 H   0  0  0  0  0  0  0  0  0  0  0  0
   -1.2098    2.3927   -0.5751 H   0  0  0  0  0  0  0  0  0  0  0  0
   -1.9275    3.9163   -0.0524 H   0  0  0  0  0  0  0  0  0  0  0  0
   -1.9910    1.2847    1.5625 H   0  0  0  0  0  0  0  0  0  0  0  0
   -2.7619    2.8396    1.9948 H   0  0  0  0  0  0  0  0  0  0  0  0
   -3.4605    2.0107   -0.7646 H   0  0  0  0  0  0  0  0  0  0  0  0
   -5.8259    2.4881    0.3484 H   0  0  0  0  0  0  0  0  0  0  0  0
   -4.7909    3.1865    1.6489 H   0  0  0  0  0  0  0  0  0  0  0  0
   -4.6593    3.7861   -0.0415 H   0  0  0  0  0  0  0  0  0  0  0  0
   -5.3400    0.4086    0.3080 H   0  0  0  0  0  0  0  0  0  0  0  0
   -4.8130    0.4795    2.4161 H   0  0  0  0  0  0  0  0  0  0  0  0
   -4.3501   -0.6965   -1.2658 H   0  0  0  0  0  0  0  0  0  0  0  0
   -1.8852   -0.9920   -1.6674 H   0  0  0  0  0  0  0  0  0  0  0  0
   -1.5244   -0.0163   -0.2497 H   0  0  0  0  0  0  0  0  0  0  0  0
   -2.4127    0.6536   -1.6156 H   0  0  0  0  0  0  0  0  0  0  0  0
   -3.4197   -2.7049   -2.0479 H   0  0  0  0  0  0  0  0  0  0  0  0
   -1.6817   -3.2816   -2.0165 H   0  0  0  0  0  0  0  0  0  0  0  0
   -3.0104   -4.3771   -1.7916 H   0  0  0  0  0  0  0  0  0  0  0  0
   -3.7676   -4.0836    1.5152 H   0  0  0  0  0  0  0  0  0  0  0  0
   -2.9232   -5.1831    0.2670 H   0  0  0  0  0  0  0  0  0  0  0  0
   -4.4340   -4.2671   -0.1328 H   0  0  0  0  0  0  0  0  0  0  0  0
   -1.4732   -1.8103    1.1506 H   0  0  0  0  0  0  0  0  0  0  0  0
   -1.6381   -4.3378    2.2912 H   0  0  0  0  0  0  0  0  0  0  0  0
    0.4247   -3.3088    1.3863 H   0  0  0  0  0  0  0  0  0  0  0  0
   -0.0363   -4.2848    0.0129 H   0  0  0  0  0  0  0  0  0  0  0  0
    5.3447   -2.5780    2.4441 H   0  0  0  0  0  0  0  0  0  0  0  0
    8.2043    0.9738   -0.9387 H   0  0  0  0  0  0  0  0  0  0  0  0
    9.4537   -0.2307   -0.4911 H   0  0  0  0  0  0  0  0  0  0  0  0
    8.4306   -0.5966   -1.9152 H   0  0  0  0  0  0  0  0  0  0  0  0
  1  2  2  0
  2  3  1  0
  2  4  1  0
  4  5  1  0
  5  6  1  0
  6  7  1  0
  7  8  1  0
  8  9  1  6
  8 10  1  0
 10 11  1  0
 11 12  1  0
 12 13  1  0
 13 14  1  0
 13 15  1  0
 15 16  1  0
 15 17  1  0
 17 18  1  0
 17 19  1  0
 19 20  2  0
 19 21  1  0
 21 22  1  0
 21 23  1  0
 21 24  1  0
 24 25  1  0
 24 26  1  0
 26 27  1  0
 27 28  2  0
 27 29  1  0
  1 30  1  0
 30 31  2  0
 31 32  1  0
 32 33  1  0
 33 34  1  0
 33 35  2  0
 29  4  1  0
 35 30  1  0
  8  6  1  0
  1 36  1  0
  3 37  1  0
  3 38  1  0
  3 39  1  0
  4 40  1  6
  5 41  1  0
  5 42  1  0
  6 43  1  6
  9 44  1  0
  9 45  1  0
  9 46  1  0
 10 47  1  0
 10 48  1  0
 11 49  1  0
 11 50  1  0
 12 51  1  0
 12 52  1  0
 13 53  1  6
 14 54  1  0
 14 55  1  0
 14 56  1  0
 15 57  1  6
 16 58  1  0
 17 59  1  6
 18 60  1  0
 18 61  1  0
 18 62  1  0
 22 63  1  0
 22 64  1  0
 22 65  1  0
 23 66  1  0
 23 67  1  0
 23 68  1  0
 24 69  1  1
 25 70  1  0
 26 71  1  0
 26 72  1  0
 31 73  1  0
 34 74  1  0
 34 75  1  0
 34 76  1  0
M  END
$$$$
