@<TRIPOS>MOLECULE
*****
 76 78 0 0 0
SMALL
GASTEIGER

@<TRIPOS>ATOM
      1 C           3.8757   -1.1026    0.5175 C.2     1  UNL1       -0.0333
      2 C           3.2890   -0.2261   -0.2933 C.2     1  UNL1       -0.0306
      3 C           4.0584    0.6899   -1.1727 C.3     1  UNL1       -0.0400
      4 C           1.7869   -0.1066   -0.2899 C.3     1  UNL1        0.1267
      5 C           1.3362    1.1600    0.3530 C.3     1  UNL1        0.0173
      6 C           1.6400    2.4671   -0.2672 C.3     1  UNL1        0.0918
      7 O           2.1799    3.4746    0.6059 O.3     1  UNL1       -0.3649
      8 C           0.8679    3.5862    0.1931 C.3     1  UNL1        0.0933
      9 C           0.5925    4.7293   -0.7396 C.3     1  UNL1       -0.0334
     10 C          -0.2495    3.2293    1.1348 C.3     1  UNL1       -0.0215
     11 C          -1.5036    2.9582    0.3167 C.3     1  UNL1       -0.0501
     12 C          -2.4878    2.1615    1.1186 C.3     1  UNL1       -0.0480
     13 C          -3.7466    1.8405    0.3435 C.3     1  UNL1       -0.0171
     14 C          -4.7862    2.8623    0.5682 C.3     1  UNL1       -0.0601
     15 C          -4.1700    0.4326    0.5348 C.3     1  UNL1        0.0670
     16 O          -4.1642   -0.0125    1.8348 O.3     1  UNL1       -0.3908
     17 C          -3.6334   -0.5726   -0.4305 C.3     1  UNL1        0.0415
     18 C          -2.2968   -0.2600   -0.9375 C.3     1  UNL1       -0.0533
     19 C          -3.6790   -1.9046    0.2932 C.2     1  UNL1        0.1466
     20 O          -4.5355   -2.0130    1.1838 O.2     1  UNL1       -0.2964
     21 C          -2.7137   -3.0262   -0.0722 C.3     1  UNL1        0.0501
     22 C          -2.6483   -3.3259   -1.4947 C.3     1  UNL1       -0.0507
     23 C          -3.5147   -4.3025    0.4825 C.3     1  UNL1       -0.0507
     24 C          -1.5713   -2.9618    0.8280 C.3     1  UNL1        0.0771
     25 O          -1.9347   -3.4159    2.1262 O.3     1  UNL1       -0.3903
     26 C          -0.1927   -3.2802    0.4694 C.3     1  UNL1        0.0718
     27 C           0.4299   -2.2204   -0.4094 C.2     1  UNL1        0.3102
     28 O           0.5678   -1.8520   -1.5743 O.2     1  UNL1       -0.2507
     29 O           1.1415   -1.2261    0.2300 O.3     1  UNL1       -0.4567
     30 C           5.3338   -1.2571    0.6392 C.ar    1  UNL1        0.0714
     31 C           5.8580   -2.0402    1.7022 C.ar    1  UNL1        0.0027
     32 S           7.6218   -1.8960    1.4775 S.2     1  UNL1       -0.0802
     33 C           7.4176   -0.7821   -0.0437 C.ar    1  UNL1        0.0759
     34 C           8.4311   -0.1229   -0.9409 C.3     1  UNL1       -0.0159
     35 N           6.2673   -0.7245   -0.1056 N.ar    1  UNL1       -0.2449
     36 H           3.1801   -1.7098    1.1018 H       1  UNL1        0.0640
     37 H           3.3780    0.8447   -2.0798 H       1  UNL1        0.0276
     38 H           4.3733    1.6227   -0.7189 H       1  UNL1        0.0276
     39 H           4.9442    0.2151   -1.6544 H       1  UNL1        0.0276
     40 H           1.5508   -0.0555   -1.3916 H       1  UNL1        0.0783
     41 H           1.8764    1.1860    1.3788 H       1  UNL1        0.0330
     42 H           0.2747    1.0188    0.6370 H       1  UNL1        0.0330
     43 H           1.9760    2.4919   -1.3091 H       1  UNL1        0.0626
     44 H           0.4882    4.3230   -1.7654 H       1  UNL1        0.0258
     45 H          -0.3509    5.2658   -0.5077 H       1  UNL1        0.0258
     46 H           1.4393    5.4521   -0.7837 H       1  UNL1        0.0258
     47 H          -0.0304    2.5160    1.9084 H       1  UNL1        0.0294
     48 H          -0.4887    4.1985    1.6743 H       1  UNL1        0.0294
     49 H          -1.2098    2.3927   -0.5751 H       1  UNL1        0.0266
     50 H          -1.9275    3.9163   -0.0524 H       1  UNL1        0.0266
     51 H          -1.9910    1.2847    1.5625 H       1  UNL1        0.0269
     52 H          -2.7619    2.8396    1.9948 H       1  UNL1        0.0269
     53 H          -3.4605    2.0107   -0.7646 H       1  UNL1        0.0323
     54 H          -5.8259    2.4881    0.3484 H       1  UNL1        0.0233
     55 H          -4.7909    3.1865    1.6489 H       1  UNL1        0.0233
     56 H          -4.6593    3.7861   -0.0415 H       1  UNL1        0.0233
     57 H          -5.3400    0.4086    0.3080 H       1  UNL1        0.0603
     58 H          -4.8130    0.4795    2.4161 H       1  UNL1        0.2098
     59 H          -4.3501   -0.6965   -1.2658 H       1  UNL1        0.0400
     60 H          -1.8852   -0.9920   -1.6674 H       1  UNL1        0.0237
     61 H          -1.5244   -0.0163   -0.2497 H       1  UNL1        0.0237
     62 H          -2.4127    0.6536   -1.6156 H       1  UNL1        0.0237
     63 H          -3.4197   -2.7049   -2.0479 H       1  UNL1        0.0240
     64 H          -1.6817   -3.2816   -2.0165 H       1  UNL1        0.0240
     65 H          -3.0104   -4.3771   -1.7916 H       1  UNL1        0.0240
     66 H          -3.7676   -4.0836    1.5152 H       1  UNL1        0.0240
     67 H          -2.9232   -5.1831    0.2670 H       1  UNL1        0.0240
     68 H          -4.4340   -4.2671   -0.1328 H       1  UNL1        0.0240
     69 H          -1.4732   -1.8103    1.1506 H       1  UNL1        0.0608
     70 H          -1.6381   -4.3378    2.2912 H       1  UNL1        0.2098
     71 H           0.4247   -3.3088    1.3863 H       1  UNL1        0.0403
     72 H          -0.0363   -4.2848    0.0129 H       1  UNL1        0.0403
     73 H           5.3447   -2.5780    2.4441 H       1  UNL1        0.0715
     74 H           8.2043    0.9738   -0.9387 H       1  UNL1        0.0298
     75 H           9.4537   -0.2307   -0.4911 H       1  UNL1        0.0298
     76 H           8.4306   -0.5966   -1.9152 H       1  UNL1        0.0298
@<TRIPOS>BOND
     1     1     2    2
     2     2     3    1
     3     2     4    1
     4     4     5    1
     5     5     6    1
     6     6     7    1
     7     7     8    1
     8     8     9    1
     9     8    10    1
    10    10    11    1
    11    11    12    1
    12    12    13    1
    13    13    14    1
    14    13    15    1
    15    15    16    1
    16    15    17    1
    17    17    18    1
    18    17    19    1
    19    19    20    2
    20    19    21    1
    21    21    22    1
    22    21    23    1
    23    21    24    1
    24    24    25    1
    25    24    26    1
    26    26    27    1
    27    27    28    2
    28    27    29    1
    29     1    30    1
    30    30    31   ar
    31    31    32   ar
    32    32    33   ar
    33    33    34    1
    34    33    35   ar
    35    29     4    1
    36    35    30   ar
    37     8     6    1
    38     1    36    1
    39     3    37    1
    40     3    38    1
    41     3    39    1
    42     4    40    1
    43     5    41    1
    44     5    42    1
    45     6    43    1
    46     9    44    1
    47     9    45    1
    48     9    46    1
    49    10    47    1
    50    10    48    1
    51    11    49    1
    52    11    50    1
    53    12    51    1
    54    12    52    1
    55    13    53    1
    56    14    54    1
    57    14    55    1
    58    14    56    1
    59    15    57    1
    60    16    58    1
    61    17    59    1
    62    18    60    1
    63    18    61    1
    64    18    62    1
    65    22    63    1
    66    22    64    1
    67    22    65    1
    68    23    66    1
    69    23    67    1
    70    23    68    1
    71    24    69    1
    72    25    70    1
    73    26    71    1
    74    26    72    1
    75    31    73    1
    76    34    74    1
    77    34    75    1
    78    34    76    1
