@<TRIPOS>MOLECULE
*****
 39 42 0 0 0
SMALL
GASTEIGER

@<TRIPOS>ATOM
      1 C           4.0441   -3.6301    0.8602 C.3     1  UNL1       -0.0223
      2 C           3.9311   -2.1519    0.7221 C.ar    1  UNL1        0.0390
      3 C           5.1139   -1.4528    0.6620 C.ar    1  UNL1       -0.0406
      4 C           5.0265   -0.0588    0.5336 C.ar    1  UNL1       -0.0580
      5 C           3.7769    0.5694    0.4715 C.ar    1  UNL1       -0.0326
      6 C           2.6140   -0.1775    0.5360 C.ar    1  UNL1        0.1082
      7 N           2.7887   -1.4927    0.6573 N.ar    1  UNL1       -0.2488
      8 C           1.3209    0.4867    0.4685 C.ar    1  UNL1        0.1807
      9 N           0.1874   -0.2641    0.5307 N.ar    1  UNL1       -0.2103
     10 C          -1.0322    0.3471    0.4635 C.ar    1  UNL1        0.1346
     11 N          -2.2789   -0.3264    0.5257 N.pl3   1  UNL1       -0.2988
     12 C          -3.0781   -0.9912   -0.4314 C.ar    1  UNL1        0.0353
     13 C          -4.3263   -1.3914   -0.0168 C.ar    1  UNL1       -0.0224
     14 C          -5.1525   -2.0524   -0.8942 C.ar    1  UNL1        0.0293
     15 N          -4.7249   -2.3061   -2.1747 N.ar    1  UNL1       -0.2631
     16 C          -3.4763   -1.8740   -2.4970 C.ar    1  UNL1        0.0293
     17 C          -2.5756   -1.2075   -1.6970 C.ar    1  UNL1       -0.0224
     18 C          -1.0752    1.7400    0.3313 C.ar    1  UNL1        0.0405
     19 C          -2.2811    2.3986    0.2612 C.ar    1  UNL1       -0.0493
     20 C          -2.3324    3.7874    0.1313 C.ar    1  UNL1       -0.0610
     21 C          -1.1208    4.4668    0.0765 C.ar    1  UNL1       -0.0597
     22 C           0.1200    3.8591    0.1418 C.ar    1  UNL1       -0.0356
     23 C           0.0832    2.4839    0.2698 C.ar    1  UNL1        0.0767
     24 N           1.2693    1.8242    0.3414 N.ar    1  UNL1       -0.2258
     25 H           4.1134   -4.0655   -0.1395 H       1  UNL1        0.0292
     26 H           4.9540   -3.8915    1.4248 H       1  UNL1        0.0292
     27 H           3.1773   -3.9993    1.4415 H       1  UNL1        0.0292
     28 H           6.0900   -1.9468    0.7105 H       1  UNL1        0.0635
     29 H           5.9752    0.4617    0.4890 H       1  UNL1        0.0619
     30 H           3.7642    1.6454    0.3724 H       1  UNL1        0.0640
     31 H          -2.5209   -0.2244    1.5349 H       1  UNL1        0.1536
     32 H          -4.7210   -1.2206    0.9756 H       1  UNL1        0.0651
     33 H          -6.1442   -2.3850   -0.6048 H       1  UNL1        0.0830
     34 H          -3.2414   -2.1263   -3.5277 H       1  UNL1        0.0830
     35 H          -1.6139   -0.9080   -2.0424 H       1  UNL1        0.0651
     36 H          -3.1955    1.8221    0.3082 H       1  UNL1        0.0625
     37 H          -3.2828    4.2972    0.0776 H       1  UNL1        0.0618
     38 H          -1.2158    5.5320   -0.0243 H       1  UNL1        0.0618
     39 H           1.0398    4.4228    0.0955 H       1  UNL1        0.0639
@<TRIPOS>BOND
     1     1     2    1
     2     2     3   ar
     3     3     4   ar
     4     4     5   ar
     5     5     6   ar
     6     6     7   ar
     7     6     8    1
     8     8     9   ar
     9     9    10   ar
    10    10    11    1
    11    11    12    1
    12    12    13   ar
    13    13    14   ar
    14    14    15   ar
    15    15    16   ar
    16    16    17   ar
    17    10    18   ar
    18    18    19   ar
    19    19    20   ar
    20    20    21   ar
    21    21    22   ar
    22    22    23   ar
    23    23    24   ar
    24     7     2   ar
    25    24     8   ar
    26    17    12   ar
    27    23    18   ar
    28     1    25    1
    29     1    26    1
    30     1    27    1
    31     3    28    1
    32     4    29    1
    33     5    30    1
    34    11    31    1
    35    13    32    1
    36    14    33    1
    37    16    34    1
    38    17    35    1
    39    19    36    1
    40    20    37    1
    41    21    38    1
    42    22    39    1
