
     RDKit          3D

 39 42  0  0  0  0  0  0  0  0999 V2000
    4.0441   -3.6301    0.8602 C   0  0  0  0  0  0  0  0  0  0  0  0
    3.9311   -2.1519    0.7221 C   0  0  0  0  0  0  0  0  0  0  0  0
    5.1139   -1.4528    0.6620 C   0  0  0  0  0  0  0  0  0  0  0  0
    5.0265   -0.0588    0.5336 C   0  0  0  0  0  0  0  0  0  0  0  0
    3.7769    0.5694    0.4715 C   0  0  0  0  0  0  0  0  0  0  0  0
    2.6140   -0.1775    0.5360 C   0  0  0  0  0  0  0  0  0  0  0  0
    2.7887   -1.4927    0.6573 N   0  0  0  0  0  0  0  0  0  0  0  0
    1.3209    0.4867    0.4685 C   0  0  0  0  0  0  0  0  0  0  0  0
    0.1874   -0.2641    0.5307 N   0  0  0  0  0  0  0  0  0  0  0  0
   -1.0322    0.3471    0.4635 C   0  0  0  0  0  0  0  0  0  0  0  0
   -2.2789   -0.3264    0.5257 N   0  0  0  0  0  0  0  0  0  0  0  0
   -3.0781   -0.9912   -0.4314 C   0  0  0  0  0  0  0  0  0  0  0  0
   -4.3263   -1.3914   -0.0168 C   0  0  0  0  0  0  0  0  0  0  0  0
   -5.1525   -2.0524   -0.8942 C   0  0  0  0  0  0  0  0  0  0  0  0
   -4.7249   -2.3061   -2.1747 N   0  0  0  0  0  0  0  0  0  0  0  0
   -3.4763   -1.8740   -2.4970 C   0  0  0  0  0  0  0  0  0  0  0  0
   -2.5756   -1.2075   -1.6970 C   0  0  0  0  0  0  0  0  0  0  0  0
   -1.0752    1.7400    0.3313 C   0  0  0  0  0  0  0  0  0  0  0  0
   -2.2811    2.3986    0.2612 C   0  0  0  0  0  0  0  0  0  0  0  0
   -2.3324    3.7874    0.1313 C   0  0  0  0  0  0  0  0  0  0  0  0
   -1.1208    4.4668    0.0765 C   0  0  0  0  0  0  0  0  0  0  0  0
    0.1200    3.8591    0.1418 C   0  0  0  0  0  0  0  0  0  0  0  0
    0.0832    2.4839    0.2698 C   0  0  0  0  0  0  0  0  0  0  0  0
    1.2693    1.8242    0.3414 N   0  0  0  0  0  0  0  0  0  0  0  0
    4.1134   -4.0655   -0.1395 H   0  0  0  0  0  0  0  0  0  0  0  0
    4.9540   -3.8915    1.4248 H   0  0  0  0  0  0  0  0  0  0  0  0
    3.1773   -3.9993    1.4415 H   0  0  0  0  0  0  0  0  0  0  0  0
    6.0900   -1.9468    0.7105 H   0  0  0  0  0  0  0  0  0  0  0  0
    5.9752    0.4617    0.4890 H   0  0  0  0  0  0  0  0  0  0  0  0
    3.7642    1.6454    0.3724 H   0  0  0  0  0  0  0  0  0  0  0  0
   -2.5209   -0.2244    1.5349 H   0  0  0  0  0  0  0  0  0  0  0  0
   -4.7210   -1.2206    0.9756 H   0  0  0  0  0  0  0  0  0  0  0  0
   -6.1442   -2.3850   -0.6048 H   0  0  0  0  0  0  0  0  0  0  0  0
   -3.2414   -2.1263   -3.5277 H   0  0  0  0  0  0  0  0  0  0  0  0
   -1.6139   -0.9080   -2.0424 H   0  0  0  0  0  0  0  0  0  0  0  0
   -3.1955    1.8221    0.3082 H   0  0  0  0  0  0  0  0  0  0  0  0
   -3.2828    4.2972    0.0776 H   0  0  0  0  0  0  0  0  0  0  0  0
   -1.2158    5.5320   -0.0243 H   0  0  0  0  0  0  0  0  0  0  0  0
    1.0398    4.4228    0.0955 H   0  0  0  0  0  0  0  0  0  0  0  0
  1  2  1  0
  2  3  2  0
  3  4  1  0
  4  5  2  0
  5  6  1  0
  6  7  2  0
  6  8  1  0
  8  9  2  0
  9 10  1  0
 10 11  1  0
 11 12  1  0
 12 13  2  0
 13 14  1  0
 14 15  2  0
 15 16  1  0
 16 17  2  0
 10 18  2  0
 18 19  1  0
 19 20  2  0
 20 21  1  0
 21 22  2  0
 22 23  1  0
 23 24  2  0
  7  2  1  0
 24  8  1  0
 17 12  1  0
 23 18  1  0
  1 25  1  0
  1 26  1  0
  1 27  1  0
  3 28  1  0
  4 29  1  0
  5 30  1  0
 11 31  1  0
 13 32  1  0
 14 33  1  0
 16 34  1  0
 17 35  1  0
 19 36  1  0
 20 37  1  0
 21 38  1  0
 22 39  1  0
M  END
$$$$
