@<TRIPOS>MOLECULE
*****
 49 51 0 0 0
SMALL
GASTEIGER

@<TRIPOS>ATOM
      1 C          -1.6708   -1.4040   -0.9985 C.3     1  UNL1        0.1246
      2 O          -1.2306   -2.6511   -0.5801 O.3     1  UNL1       -0.3756
      3 C          -0.5103   -0.7884   -1.7355 C.3     1  UNL1        0.0517
      4 N           0.6744   -0.6626   -0.8930 N.am    1  UNL1       -0.3064
      5 C           1.8417   -0.0820   -1.5048 C.2     1  UNL1        0.2605
      6 O           1.5948    0.2212   -2.7018 O.2     1  UNL1       -0.2686
      7 C           3.0881    0.0903   -0.7653 C.ar    1  UNL1        0.1028
      8 C           3.5002   -0.2118    0.5222 C.ar    1  UNL1       -0.0241
      9 C           4.8212    0.1989    0.6417 C.ar    1  UNL1        0.0018
     10 C           5.6660    0.1126    1.7295 C.ar    1  UNL1       -0.0342
     11 C           6.9657    0.6085    1.5779 C.ar    1  UNL1        0.0417
     12 CL          8.0441    0.4964    2.9724 Cl      1  UNL1       -0.0835
     13 C           7.3755    1.1592    0.3846 C.ar    1  UNL1       -0.0414
     14 C           6.4722    1.2160   -0.6748 C.ar    1  UNL1       -0.0364
     15 C           5.1807    0.7410   -0.5756 C.ar    1  UNL1        0.0471
     16 N           4.1289    0.6687   -1.4111 N.ar    1  UNL1       -0.3506
     17 N          -2.1329   -0.6249    0.1045 N.3     1  UNL1       -0.2713
     18 C          -3.2575   -1.2075    0.7758 C.3     1  UNL1        0.0247
     19 C          -3.0347   -2.4494    1.5423 C.3     1  UNL1        0.0570
     20 O          -4.2799   -2.8276    2.1142 O.3     1  UNL1       -0.3937
     21 C          -2.3576    0.7591   -0.2376 C.3     1  UNL1        0.0128
     22 C          -3.4782    0.9589   -1.2385 C.3     1  UNL1       -0.0373
     23 C          -4.6684    1.4131   -0.4110 C.3     1  UNL1       -0.0516
     24 C          -4.1186    1.9919    0.8723 C.3     1  UNL1       -0.0516
     25 C          -2.6786    1.6054    0.9651 C.3     1  UNL1       -0.0373
     26 H          -2.4711   -1.5434   -1.7480 H       1  UNL1        0.0783
     27 H          -0.4397   -2.6344   -0.0187 H       1  UNL1        0.2115
     28 H          -0.7466    0.1186   -2.3019 H       1  UNL1        0.0501
     29 H          -0.2255   -1.5639   -2.5009 H       1  UNL1        0.0501
     30 H           0.7191   -0.9685    0.1249 H       1  UNL1        0.1492
     31 H           2.8154   -0.6844    1.2134 H       1  UNL1        0.0646
     32 H           5.3251   -0.3215    2.6518 H       1  UNL1        0.0639
     33 H           8.4028    1.5424    0.2895 H       1  UNL1        0.0633
     34 H           6.8072    1.6459   -1.5902 H       1  UNL1        0.0639
     35 H           4.2129    1.0377   -2.4004 H       1  UNL1        0.1660
     36 H          -4.1037   -1.4266    0.0534 H       1  UNL1        0.0450
     37 H          -3.6894   -0.4509    1.4564 H       1  UNL1        0.0450
     38 H          -2.7080   -3.3373    1.0104 H       1  UNL1        0.0570
     39 H          -2.4043   -2.2121    2.4486 H       1  UNL1        0.0570
     40 H          -4.9849   -2.7604    1.4420 H       1  UNL1        0.2095
     41 H          -1.4443    1.1753   -0.7058 H       1  UNL1        0.0463
     42 H          -3.2442    1.7820   -1.9467 H       1  UNL1        0.0280
     43 H          -3.7082    0.0686   -1.8385 H       1  UNL1        0.0280
     44 H          -5.2649    2.2092   -0.9022 H       1  UNL1        0.0266
     45 H          -5.3814    0.5863   -0.2170 H       1  UNL1        0.0266
     46 H          -4.2034    3.1156    0.8664 H       1  UNL1        0.0266
     47 H          -4.7015    1.6859    1.7726 H       1  UNL1        0.0266
     48 H          -2.0550    2.5574    0.9485 H       1  UNL1        0.0280
     49 H          -2.4421    1.0464    1.8970 H       1  UNL1        0.0280
@<TRIPOS>BOND
     1     1     2    1
     2     1     3    1
     3     3     4    1
     4     4     5   am
     5     5     6    2
     6     5     7    1
     7     7     8   ar
     8     8     9   ar
     9     9    10   ar
    10    10    11   ar
    11    11    12    1
    12    11    13   ar
    13    13    14   ar
    14    14    15   ar
    15    15    16   ar
    16     1    17    1
    17    17    18    1
    18    18    19    1
    19    19    20    1
    20    17    21    1
    21    21    22    1
    22    22    23    1
    23    23    24    1
    24    24    25    1
    25    16     7   ar
    26    25    21    1
    27    15     9   ar
    28     1    26    1
    29     2    27    1
    30     3    28    1
    31     3    29    1
    32     4    30    1
    33     8    31    1
    34    10    32    1
    35    13    33    1
    36    14    34    1
    37    16    35    1
    38    18    36    1
    39    18    37    1
    40    19    38    1
    41    19    39    1
    42    20    40    1
    43    21    41    1
    44    22    42    1
    45    22    43    1
    46    23    44    1
    47    23    45    1
    48    24    46    1
    49    24    47    1
    50    25    48    1
    51    25    49    1
