@<TRIPOS>MOLECULE
*****
 41 43 0 0 0
SMALL
GASTEIGER

@<TRIPOS>ATOM
      1 O           6.8384    2.5843   -2.0950 O.2     1  UNL1        0.0414
      2 N           7.0070    1.5190   -1.4748 N.pl3   1  UNL1        0.0796
      3 O           8.2967    1.1166   -1.2327 O.co2   1  UNL1       -0.5760
      4 C           5.8824    0.7612   -1.0413 C.ar    1  UNL1        0.2732
      5 C           4.6165    1.2144   -1.3137 C.ar    1  UNL1        0.0162
      6 C           3.4956    0.4970   -0.9041 C.ar    1  UNL1       -0.0461
      7 C           3.6199   -0.6867   -0.2147 C.ar    1  UNL1        0.0013
      8 C           2.4151   -1.4491    0.2205 C.ar    1  UNL1        0.0803
      9 C           2.5469   -2.6610    0.9248 C.ar    1  UNL1        0.0049
     10 S           0.8195   -3.1510    1.1969 S.2     1  UNL1       -0.0586
     11 C           0.1551   -1.6128    0.2995 C.ar    1  UNL1        0.1783
     12 N          -1.2367   -1.4219    0.1785 N.pl3   1  UNL1       -0.2153
     13 N          -1.9679   -0.7354    1.1460 N.2     1  UNL1       -0.1898
     14 C          -2.5304    0.3657    0.8380 C.2     1  UNL1        0.0369
     15 C          -2.3448    0.8154   -0.5531 C.3     1  UNL1       -0.0128
     16 C          -3.6492    0.9077   -1.3095 C.3     1  UNL1       -0.0479
     17 C          -4.7289    0.1756   -0.5310 C.3     1  UNL1       -0.0527
     18 C          -5.3137    1.0525    0.5370 C.3     1  UNL1       -0.0527
     19 C          -4.7463    0.6437    1.8969 C.3     1  UNL1       -0.0479
     20 C          -3.2825    1.0228    1.9193 C.3     1  UNL1       -0.0128
     21 N           1.1858   -1.0942    0.0058 N.ar    1  UNL1       -0.2236
     22 C           4.8877   -1.1403    0.0580 C.ar    1  UNL1       -0.0461
     23 C           6.0160   -0.4231   -0.3514 C.ar    1  UNL1        0.0162
     24 H           4.5096    2.1417   -1.8538 H       1  UNL1        0.0685
     25 H           2.5206    0.8939   -1.1419 H       1  UNL1        0.0626
     26 H           3.4321   -3.2120    1.2508 H       1  UNL1        0.0716
     27 H          -1.7564   -1.7932   -0.6454 H       1  UNL1        0.1765
     28 H          -1.8908    1.8436   -0.4897 H       1  UNL1        0.0325
     29 H          -1.6353    0.1928   -1.0992 H       1  UNL1        0.0325
     30 H          -3.5335    0.4165   -2.2794 H       1  UNL1        0.0269
     31 H          -3.9930    1.9430   -1.4416 H       1  UNL1        0.0269
     32 H          -5.5312   -0.1524   -1.2362 H       1  UNL1        0.0265
     33 H          -4.3394   -0.7454   -0.0423 H       1  UNL1        0.0265
     34 H          -6.4000    0.8351    0.5948 H       1  UNL1        0.0265
     35 H          -5.0874    2.1008    0.3120 H       1  UNL1        0.0265
     36 H          -4.8854   -0.4520    1.9804 H       1  UNL1        0.0269
     37 H          -5.2535    1.1594    2.7219 H       1  UNL1        0.0269
     38 H          -2.8445    0.8647    2.9247 H       1  UNL1        0.0325
     39 H          -3.2602    2.1423    1.7690 H       1  UNL1        0.0325
     40 H           4.9860   -2.0694    0.5992 H       1  UNL1        0.0626
     41 H           6.9804   -0.8032   -0.1234 H       1  UNL1        0.0685
@<TRIPOS>UNITY_ATOM_ATTR
2 1
charge 1
3 1
charge -1
@<TRIPOS>BOND
     1     1     2    2
     2     2     3    1
     3     2     4    1
     4     4     5   ar
     5     5     6   ar
     6     6     7   ar
     7     7     8    1
     8     8     9   ar
     9     9    10   ar
    10    10    11   ar
    11    11    12    1
    12    12    13    1
    13    13    14    2
    14    14    15    1
    15    15    16    1
    16    16    17    1
    17    17    18    1
    18    18    19    1
    19    19    20    1
    20    11    21   ar
    21     7    22   ar
    22    22    23   ar
    23    23     4   ar
    24    21     8   ar
    25    20    14    1
    26     5    24    1
    27     6    25    1
    28     9    26    1
    29    12    27    1
    30    15    28    1
    31    15    29    1
    32    16    30    1
    33    16    31    1
    34    17    32    1
    35    17    33    1
    36    18    34    1
    37    18    35    1
    38    19    36    1
    39    19    37    1
    40    20    38    1
    41    20    39    1
    42    22    40    1
    43    23    41    1
