
     RDKit          3D

 41 43  0  0  0  0  0  0  0  0999 V2000
    6.8384    2.5843   -2.0950 O   0  0  0  0  0  0  0  0  0  0  0  0
    7.0070    1.5190   -1.4748 N   0  0  0  0  0  4  0  0  0  0  0  0
    8.2967    1.1166   -1.2327 O   0  0  0  0  0  1  0  0  0  0  0  0
    5.8824    0.7612   -1.0413 C   0  0  0  0  0  0  0  0  0  0  0  0
    4.6165    1.2144   -1.3137 C   0  0  0  0  0  0  0  0  0  0  0  0
    3.4956    0.4970   -0.9041 C   0  0  0  0  0  0  0  0  0  0  0  0
    3.6199   -0.6867   -0.2147 C   0  0  0  0  0  0  0  0  0  0  0  0
    2.4151   -1.4491    0.2205 C   0  0  0  0  0  0  0  0  0  0  0  0
    2.5469   -2.6610    0.9248 C   0  0  0  0  0  0  0  0  0  0  0  0
    0.8195   -3.1510    1.1969 S   0  0  0  0  0  0  0  0  0  0  0  0
    0.1551   -1.6128    0.2995 C   0  0  0  0  0  0  0  0  0  0  0  0
   -1.2367   -1.4219    0.1785 N   0  0  0  0  0  0  0  0  0  0  0  0
   -1.9679   -0.7354    1.1460 N   0  0  0  0  0  0  0  0  0  0  0  0
   -2.5304    0.3657    0.8380 C   0  0  0  0  0  0  0  0  0  0  0  0
   -2.3448    0.8154   -0.5531 C   0  0  0  0  0  0  0  0  0  0  0  0
   -3.6492    0.9077   -1.3095 C   0  0  0  0  0  0  0  0  0  0  0  0
   -4.7289    0.1756   -0.5310 C   0  0  0  0  0  0  0  0  0  0  0  0
   -5.3137    1.0525    0.5370 C   0  0  0  0  0  0  0  0  0  0  0  0
   -4.7463    0.6437    1.8969 C   0  0  0  0  0  0  0  0  0  0  0  0
   -3.2825    1.0228    1.9193 C   0  0  0  0  0  0  0  0  0  0  0  0
    1.1858   -1.0942    0.0058 N   0  0  0  0  0  0  0  0  0  0  0  0
    4.8877   -1.1403    0.0580 C   0  0  0  0  0  0  0  0  0  0  0  0
    6.0160   -0.4231   -0.3514 C   0  0  0  0  0  0  0  0  0  0  0  0
    4.5096    2.1417   -1.8538 H   0  0  0  0  0  0  0  0  0  0  0  0
    2.5206    0.8939   -1.1419 H   0  0  0  0  0  0  0  0  0  0  0  0
    3.4321   -3.2120    1.2508 H   0  0  0  0  0  0  0  0  0  0  0  0
   -1.7564   -1.7932   -0.6454 H   0  0  0  0  0  0  0  0  0  0  0  0
   -1.8908    1.8436   -0.4897 H   0  0  0  0  0  0  0  0  0  0  0  0
   -1.6353    0.1928   -1.0992 H   0  0  0  0  0  0  0  0  0  0  0  0
   -3.5335    0.4165   -2.2794 H   0  0  0  0  0  0  0  0  0  0  0  0
   -3.9930    1.9430   -1.4416 H   0  0  0  0  0  0  0  0  0  0  0  0
   -5.5312   -0.1524   -1.2362 H   0  0  0  0  0  0  0  0  0  0  0  0
   -4.3394   -0.7454   -0.0423 H   0  0  0  0  0  0  0  0  0  0  0  0
   -6.4000    0.8351    0.5948 H   0  0  0  0  0  0  0  0  0  0  0  0
   -5.0874    2.1008    0.3120 H   0  0  0  0  0  0  0  0  0  0  0  0
   -4.8854   -0.4520    1.9804 H   0  0  0  0  0  0  0  0  0  0  0  0
   -5.2535    1.1594    2.7219 H   0  0  0  0  0  0  0  0  0  0  0  0
   -2.8445    0.8647    2.9247 H   0  0  0  0  0  0  0  0  0  0  0  0
   -3.2602    2.1423    1.7690 H   0  0  0  0  0  0  0  0  0  0  0  0
    4.9860   -2.0694    0.5992 H   0  0  0  0  0  0  0  0  0  0  0  0
    6.9804   -0.8032   -0.1234 H   0  0  0  0  0  0  0  0  0  0  0  0
  1  2  2  0
  2  3  1  0
  2  4  1  0
  4  5  2  0
  5  6  1  0
  6  7  2  0
  7  8  1  0
  8  9  2  0
  9 10  1  0
 10 11  1  0
 11 12  1  0
 12 13  1  0
 13 14  2  3
 14 15  1  0
 15 16  1  0
 16 17  1  0
 17 18  1  0
 18 19  1  0
 19 20  1  0
 11 21  2  0
  7 22  1  0
 22 23  2  0
 23  4  1  0
 21  8  1  0
 20 14  1  0
  5 24  1  0
  6 25  1  0
  9 26  1  0
 12 27  1  0
 15 28  1  0
 15 29  1  0
 16 30  1  0
 16 31  1  0
 17 32  1  0
 17 33  1  0
 18 34  1  0
 18 35  1  0
 19 36  1  0
 19 37  1  0
 20 38  1  0
 20 39  1  0
 22 40  1  0
 23 41  1  0
M  CHG  2   2   1   3  -1
M  END
$$$$
