@<TRIPOS>MOLECULE
*****
 24 24 0 0 0
SMALL
GASTEIGER

@<TRIPOS>ATOM
      1 O           3.1556   -0.2151    0.0924 O.3     1  UNK1       -0.3934
      2 C           2.3050    0.7511   -0.4237 C.3     1  UNK1        0.0620
      3 C           0.9021    0.5853    0.1241 C.3     1  UNK1        0.0596
      4 N          -0.0031    1.5641   -0.3858 N.3     1  UNK1       -0.3064
      5 C          -1.3613    1.1219   -0.4913 C.3     0  UNK0        0.0249
      6 C          -1.7454    0.0696    0.4972 C.3     1  UNK1        0.0959
      7 O          -1.9663    0.5773    1.7783 O.3     1  UNK1       -0.3879
      8 C          -0.8061   -1.0909    0.5627 C.3     1  UNK1        0.1095
      9 O          -1.4090   -2.2947    0.1943 O.3     1  UNK1       -0.3866
     10 C           0.4037   -0.7861   -0.2960 C.3     1  UNK1        0.1009
     11 O           1.4050   -1.7435   -0.1565 O.3     1  UNK1       -0.3875
     12 H           3.0374   -0.2220    1.0796 H       1  UNK1        0.2095
     13 H           2.7035    1.7419   -0.1070 H       1  UNK1        0.0573
     14 H           2.3168    0.7412   -1.5350 H       1  UNK1        0.0573
     15 H           0.9457    0.6078    1.2123 H       1  UNK1        0.0509
     16 H           0.3322    1.8947   -1.3000 H       1  UNK1        0.1224
     17 H          -1.5409    0.7790   -1.5123 H       0  UNK0        0.0450
     18 H          -2.0226    2.0015   -0.3207 H       0  UNK0        0.0450
     19 H          -2.7459   -0.3359    0.1651 H       1  UNK1        0.0633
     20 H          -2.8698    0.9974    1.7999 H       1  UNK1        0.2099
     21 H          -0.4176   -1.2027    1.6093 H       1  UNK1        0.0646
     22 H          -1.7558   -2.1918   -0.7417 H       1  UNK1        0.2100
     23 H           0.0717   -0.7556   -1.3528 H       1  UNK1        0.0636
     24 H           1.0651   -2.5946   -0.4924 H       1  UNK1        0.2100
@<TRIPOS>BOND
     1     1     2    1
     2     2     3    1
     3     3     4    1
     4     4     5    1
     5     5     6    1
     6     6     7    1
     7     6     8    1
     8     8     9    1
     9     8    10    1
    10    10    11    1
    11    10     3    1
    12     1    12    1
    13     2    13    1
    14     2    14    1
    15     3    15    1
    16     4    16    1
    17     5    17    1
    18     5    18    1
    19     6    19    1
    20     7    20    1
    21     8    21    1
    22     9    22    1
    23    10    23    1
    24    11    24    1
