
     RDKit          3D

 56 57  0  0  0  0  0  0  0  0999 V2000
    8.8180    2.0167   -1.2253 C   0  0  0  0  0  0  0  0  0  0  0  0
    7.3325    1.8599   -1.0770 C   0  0  0  0  0  0  0  0  0  0  0  0
    6.9108    1.7481    0.3682 C   0  0  0  0  0  0  0  0  0  0  0  0
    5.4889    1.5967    0.5447 N   0  0  0  0  0  0  0  0  0  0  0  0
    4.8025    0.5052    0.0028 C   0  0  0  0  0  0  0  0  0  0  0  0
    5.4369   -0.3627   -0.6493 O   0  0  0  0  0  0  0  0  0  0  0  0
    3.3422    0.3279    0.1675 C   0  0  0  0  0  0  0  0  0  0  0  0
    2.4822    1.1249    0.8156 N   0  0  0  0  0  0  0  0  0  0  0  0
    1.2900    0.6170    0.7278 O   0  0  0  0  0  0  0  0  0  0  0  0
    1.3303   -0.4869    0.0452 C   0  0  0  0  0  0  0  0  0  0  0  0
    0.1832   -1.4015   -0.2998 C   0  0  2  0  0  0  0  0  0  0  0  0
   -0.7034   -0.6972   -1.2828 C   0  0  0  0  0  0  0  0  0  0  0  0
   -1.2406    0.6136   -0.9213 C   0  0  0  0  0  0  0  0  0  0  0  0
   -2.1600    0.9535    0.1287 C   0  0  0  0  0  0  0  0  0  0  0  0
   -3.5729    0.5543    0.1606 C   0  0  0  0  0  0  0  0  0  0  0  0
   -3.9476   -0.8777    0.1645 C   0  0  0  0  0  0  0  0  0  0  0  0
   -5.4714   -1.0291    0.0146 C   0  0  0  0  0  0  0  0  0  0  0  0
   -6.1124    0.1942    0.5984 C   0  0  0  0  0  0  0  0  0  0  0  0
   -5.8113    1.4287   -0.2503 C   0  0  0  0  0  0  0  0  0  0  0  0
   -4.4217    1.2580   -0.8897 C   0  0  0  0  0  0  0  0  0  0  0  0
   -0.3793   -2.0316    0.9009 C   0  0  0  0  0  0  0  0  0  0  0  0
   -1.4266   -3.0076    0.5538 C   0  0  0  0  0  0  0  0  0  0  0  0
   -1.7386   -3.3759   -0.5923 O   0  0  0  0  0  0  0  0  0  0  0  0
   -2.1699   -3.6034    1.6394 N   0  0  0  0  0  0  0  0  0  0  0  0
   -3.1562   -4.5178    1.3989 O   0  0  0  0  0  0  0  0  0  0  0  0
    2.5949   -0.6935   -0.3174 N   0  0  0  0  0  0  0  0  0  0  0  0
    9.3823    1.4721   -0.4390 H   0  0  0  0  0  0  0  0  0  0  0  0
    9.1145    3.0892   -1.1912 H   0  0  0  0  0  0  0  0  0  0  0  0
    9.0900    1.5940   -2.2232 H   0  0  0  0  0  0  0  0  0  0  0  0
    6.8480    2.8058   -1.4587 H   0  0  0  0  0  0  0  0  0  0  0  0
    6.9205    1.0568   -1.7082 H   0  0  0  0  0  0  0  0  0  0  0  0
    7.2911    2.6266    0.9460 H   0  0  0  0  0  0  0  0  0  0  0  0
    7.4782    0.8745    0.7838 H   0  0  0  0  0  0  0  0  0  0  0  0
    4.9129    2.3073    1.0920 H   0  0  0  0  0  0  0  0  0  0  0  0
    0.6420   -2.2669   -0.9046 H   0  0  0  0  0  0  0  0  0  0  0  0
   -0.0179   -0.5055   -2.1940 H   0  0  0  0  0  0  0  0  0  0  0  0
   -1.4322   -1.4159   -1.6797 H   0  0  0  0  0  0  0  0  0  0  0  0
   -0.3346    1.3523   -0.7885 H   0  0  0  0  0  0  0  0  0  0  0  0
   -1.6694    1.1098   -1.8912 H   0  0  0  0  0  0  0  0  0  0  0  0
   -1.7492    0.7072    1.1755 H   0  0  0  0  0  0  0  0  0  0  0  0
   -2.1303    2.1157    0.2161 H   0  0  0  0  0  0  0  0  0  0  0  0
   -3.9825    0.9722    1.1495 H   0  0  0  0  0  0  0  0  0  0  0  0
   -3.6372   -1.3127    1.1469 H   0  0  0  0  0  0  0  0  0  0  0  0
   -3.5553   -1.4443   -0.7105 H   0  0  0  0  0  0  0  0  0  0  0  0
   -5.7337   -1.1271   -1.0563 H   0  0  0  0  0  0  0  0  0  0  0  0
   -5.7947   -1.9503    0.5437 H   0  0  0  0  0  0  0  0  0  0  0  0
   -5.8337    0.3387    1.6370 H   0  0  0  0  0  0  0  0  0  0  0  0
   -7.2116    0.0537    0.5376 H   0  0  0  0  0  0  0  0  0  0  0  0
   -6.5823    1.5614   -1.0068 H   0  0  0  0  0  0  0  0  0  0  0  0
   -5.7741    2.2750    0.4430 H   0  0  0  0  0  0  0  0  0  0  0  0
   -4.5544    0.6771   -1.7994 H   0  0  0  0  0  0  0  0  0  0  0  0
   -4.0018    2.2428   -1.1086 H   0  0  0  0  0  0  0  0  0  0  0  0
    0.4548   -2.5972    1.4106 H   0  0  0  0  0  0  0  0  0  0  0  0
   -0.7119   -1.3209    1.6934 H   0  0  0  0  0  0  0  0  0  0  0  0
   -1.9191   -3.3054    2.5983 H   0  0  0  0  0  0  0  0  0  0  0  0
   -3.2091   -4.7004    0.4409 H   0  0  0  0  0  0  0  0  0  0  0  0
  1  2  1  0
  2  3  1  0
  3  4  1  0
  4  5  1  0
  5  6  2  0
  5  7  1  0
  7  8  2  0
  8  9  1  0
  9 10  1  0
 10 11  1  0
 11 12  1  0
 12 13  1  0
 13 14  1  0
 14 15  1  0
 15 16  1  0
 16 17  1  0
 17 18  1  0
 18 19  1  0
 19 20  1  0
 11 21  1  0
 21 22  1  0
 22 23  2  0
 22 24  1  0
 24 25  1  0
 10 26  2  0
 26  7  1  0
 20 15  1  0
  1 27  1  0
  1 28  1  0
  1 29  1  0
  2 30  1  0
  2 31  1  0
  3 32  1  0
  3 33  1  0
  4 34  1  0
 11 35  1  6
 12 36  1  0
 12 37  1  0
 13 38  1  0
 13 39  1  0
 14 40  1  0
 14 41  1  0
 15 42  1  0
 16 43  1  0
 16 44  1  0
 17 45  1  0
 17 46  1  0
 18 47  1  0
 18 48  1  0
 19 49  1  0
 19 50  1  0
 20 51  1  0
 20 52  1  0
 21 53  1  0
 21 54  1  0
 24 55  1  0
 25 56  1  0
M  END
$$$$
