@<TRIPOS>MOLECULE
*****
 56 57 0 0 0
SMALL
GASTEIGER

@<TRIPOS>ATOM
      1 C           8.8180    2.0167   -1.2253 C.3     1  UNL1       -0.0639
      2 C           7.3325    1.8599   -1.0770 C.3     1  UNL1       -0.0402
      3 C           6.9108    1.7481    0.3682 C.3     1  UNL1        0.0117
      4 N           5.4889    1.5967    0.5447 N.am    1  UNL1       -0.3087
      5 C           4.8025    0.5052    0.0028 C.2     1  UNL1        0.2847
      6 O           5.4369   -0.3627   -0.6493 O.2     1  UNL1       -0.2667
      7 C           3.3422    0.3279    0.1675 C.ar    1  UNL1        0.2570
      8 N           2.4822    1.1249    0.8156 N.ar    1  UNL1       -0.0512
      9 O           1.2900    0.6170    0.7278 O.2     1  UNL1       -0.3373
     10 C           1.3303   -0.4869    0.0452 C.ar    1  UNL1        0.2313
     11 C           0.1832   -1.4015   -0.2998 C.3     1  UNL1        0.0464
     12 C          -0.7034   -0.6972   -1.2828 C.3     1  UNL1       -0.0413
     13 C          -1.2406    0.6136   -0.9213 C.3     1  UNL1       -0.0521
     14 C          -2.1600    0.9535    0.1287 C.3     1  UNL1       -0.0502
     15 C          -3.5729    0.5543    0.1606 C.3     1  UNL1       -0.0410
     16 C          -3.9476   -0.8777    0.1645 C.3     1  UNL1       -0.0502
     17 C          -5.4714   -1.0291    0.0146 C.3     1  UNL1       -0.0528
     18 C          -6.1124    0.1942    0.5984 C.3     1  UNL1       -0.0530
     19 C          -5.8113    1.4287   -0.2503 C.3     1  UNL1       -0.0528
     20 C          -4.4217    1.2580   -0.8897 C.3     1  UNL1       -0.0502
     21 C          -0.3793   -2.0316    0.9009 C.3     1  UNL1        0.0372
     22 C          -1.4266   -3.0076    0.5538 C.2     1  UNL1        0.2362
     23 O          -1.7386   -3.3759   -0.5923 O.2     1  UNL1       -0.2737
     24 N          -2.1699   -3.6034    1.6394 N.am    1  UNL1       -0.1975
     25 O          -3.1562   -4.5178    1.3989 O.3     1  UNL1       -0.2952
     26 N           2.5949   -0.6935   -0.3174 N.ar    1  UNL1       -0.1872
     27 H           9.3823    1.4721   -0.4390 H       1  UNL1        0.0230
     28 H           9.1145    3.0892   -1.1912 H       1  UNL1        0.0230
     29 H           9.0900    1.5940   -2.2232 H       1  UNL1        0.0230
     30 H           6.8480    2.8058   -1.4587 H       1  UNL1        0.0278
     31 H           6.9205    1.0568   -1.7082 H       1  UNL1        0.0278
     32 H           7.2911    2.6266    0.9460 H       1  UNL1        0.0462
     33 H           7.4782    0.8745    0.7838 H       1  UNL1        0.0462
     34 H           4.9129    2.3073    1.0920 H       1  UNL1        0.1491
     35 H           0.6420   -2.2669   -0.9046 H       1  UNL1        0.0401
     36 H          -0.0179   -0.5055   -2.1940 H       1  UNL1        0.0273
     37 H          -1.4322   -1.4159   -1.6797 H       1  UNL1        0.0273
     38 H          -0.3346    1.3523   -0.7885 H       1  UNL1        0.0266
     39 H          -1.6694    1.1098   -1.8912 H       1  UNL1        0.0266
     40 H          -1.7492    0.7072    1.1755 H       1  UNL1        0.0268
     41 H          -2.1303    2.1157    0.2161 H       1  UNL1        0.0268
     42 H          -3.9825    0.9722    1.1495 H       1  UNL1        0.0301
     43 H          -3.6372   -1.3127    1.1469 H       1  UNL1        0.0268
     44 H          -3.5553   -1.4443   -0.7105 H       1  UNL1        0.0268
     45 H          -5.7337   -1.1271   -1.0563 H       1  UNL1        0.0265
     46 H          -5.7947   -1.9503    0.5437 H       1  UNL1        0.0265
     47 H          -5.8337    0.3387    1.6370 H       1  UNL1        0.0265
     48 H          -7.2116    0.0537    0.5376 H       1  UNL1        0.0265
     49 H          -6.5823    1.5614   -1.0068 H       1  UNL1        0.0265
     50 H          -5.7741    2.2750    0.4430 H       1  UNL1        0.0265
     51 H          -4.5544    0.6771   -1.7994 H       1  UNL1        0.0268
     52 H          -4.0018    2.2428   -1.1086 H       1  UNL1        0.0268
     53 H           0.4548   -2.5972    1.4106 H       1  UNL1        0.0366
     54 H          -0.7119   -1.3209    1.6934 H       1  UNL1        0.0366
     55 H          -1.9191   -3.3054    2.5983 H       1  UNL1        0.1822
     56 H          -3.2091   -4.7004    0.4409 H       1  UNL1        0.2414
@<TRIPOS>BOND
     1     1     2    1
     2     2     3    1
     3     3     4    1
     4     4     5   am
     5     5     6    2
     6     5     7    1
     7     7     8   ar
     8     8     9   ar
     9     9    10   ar
    10    10    11    1
    11    11    12    1
    12    12    13    1
    13    13    14    1
    14    14    15    1
    15    15    16    1
    16    16    17    1
    17    17    18    1
    18    18    19    1
    19    19    20    1
    20    11    21    1
    21    21    22    1
    22    22    23    2
    23    22    24   am
    24    24    25    1
    25    10    26   ar
    26    26     7   ar
    27    20    15    1
    28     1    27    1
    29     1    28    1
    30     1    29    1
    31     2    30    1
    32     2    31    1
    33     3    32    1
    34     3    33    1
    35     4    34    1
    36    11    35    1
    37    12    36    1
    38    12    37    1
    39    13    38    1
    40    13    39    1
    41    14    40    1
    42    14    41    1
    43    15    42    1
    44    16    43    1
    45    16    44    1
    46    17    45    1
    47    17    46    1
    48    18    47    1
    49    18    48    1
    50    19    49    1
    51    19    50    1
    52    20    51    1
    53    20    52    1
    54    21    53    1
    55    21    54    1
    56    24    55    1
    57    25    56    1
