@<TRIPOS>MOLECULE
*****
 60 63 0 0 0
SMALL
GASTEIGER

@<TRIPOS>ATOM
      1 C          -3.5361    0.9724    1.6412 C.3     1  UNL1       -0.0599
      2 C          -2.6614   -0.0648    0.9754 C.3     1  UNL1       -0.0112
      3 C          -1.2223    0.4449    0.9330 C.3     1  UNL1        0.0031
      4 N          -0.4499   -0.6365    0.3731 N.3     1  UNL1       -0.2991
      5 C          -0.7284   -0.8765   -1.0091 C.3     1  UNL1        0.0005
      6 C          -2.0590   -0.3284   -1.4575 C.3     1  UNL1       -0.0200
      7 C          -3.1186   -0.4346   -0.3912 C.3     1  UNL1        0.0973
      8 C          -3.5237   -1.8886   -0.3652 C.2     1  UNL1        0.3157
      9 O          -2.5901   -2.8385   -0.0545 O.3     1  UNL1       -0.4800
     10 O          -4.6547   -2.4404   -0.5948 O.2     1  UNL1       -0.2500
     11 C          -4.3493    0.3221   -0.7297 C.ar    1  UNL1       -0.0303
     12 C          -5.5074   -0.0359   -0.0277 C.ar    1  UNL1       -0.0575
     13 C          -6.7155    0.5957   -0.2585 C.ar    1  UNL1       -0.0615
     14 C          -6.8378    1.6030   -1.1857 C.ar    1  UNL1       -0.0617
     15 C          -5.7015    1.9638   -1.8834 C.ar    1  UNL1       -0.0615
     16 C          -4.4985    1.3329   -1.6518 C.ar    1  UNL1       -0.0575
     17 C           0.9385   -0.5945    0.7140 C.3     1  UNL1        0.0105
     18 C           1.7046   -1.7645    0.0925 C.3     1  UNL1       -0.0356
     19 C           3.1642   -1.4983    0.4897 C.3     1  UNL1       -0.0290
     20 C           3.6613   -0.4591   -0.4940 C.3     1  UNL1        0.0823
     21 C           2.6670    0.6513   -0.6286 C.3     1  UNL1       -0.0290
     22 C           1.6316    0.6934    0.4504 C.3     1  UNL1       -0.0356
     23 C           3.8765   -1.1609   -1.7684 C.1     1  UNL1        0.0739
     24 N           4.0496   -1.7097   -2.7937 N.1     1  UNL1       -0.1956
     25 C           4.9891   -0.0013   -0.0247 C.ar    1  UNL1       -0.0273
     26 C           5.5066    0.9612   -0.8891 C.ar    1  UNL1       -0.0544
     27 C           6.7546    1.5494   -0.6591 C.ar    1  UNL1       -0.0261
     28 C           7.4657    1.1513    0.4517 C.ar    1  UNL1        0.1234
     29 F           8.6759    1.7083    0.6929 F       1  UNL1       -0.2055
     30 C           6.9537    0.1991    1.3069 C.ar    1  UNL1       -0.0261
     31 C           5.7233   -0.3765    1.0742 C.ar    1  UNL1       -0.0544
     32 H          -4.2573    0.4674    2.3051 H       1  UNL1        0.0233
     33 H          -2.8696    1.5713    2.3099 H       1  UNL1        0.0233
     34 H          -3.9753    1.6828    0.9366 H       1  UNL1        0.0233
     35 H          -2.6332   -0.9466    1.6361 H       1  UNL1        0.0324
     36 H          -1.1569    1.3405    0.2817 H       1  UNL1        0.0430
     37 H          -0.8696    0.6462    1.9437 H       1  UNL1        0.0430
     38 H          -0.7423   -1.9717   -1.1768 H       1  UNL1        0.0427
     39 H           0.0472   -0.4792   -1.7020 H       1  UNL1        0.0427
     40 H          -1.8617    0.7054   -1.8032 H       1  UNL1        0.0291
     41 H          -2.3717   -0.9066   -2.3511 H       1  UNL1        0.0291
     42 H          -2.8166   -3.6476    0.4976 H       1  UNL1        0.2951
     43 H          -5.6039   -0.7965    0.7353 H       1  UNL1        0.0621
     44 H          -7.6439    0.3610    0.2540 H       1  UNL1        0.0618
     45 H          -7.7281    2.1574   -1.4410 H       1  UNL1        0.0618
     46 H          -5.7182    2.7473   -2.6288 H       1  UNL1        0.0618
     47 H          -3.6234    1.6098   -2.1883 H       1  UNL1        0.0621
     48 H           1.0057   -0.7942    1.8139 H       1  UNL1        0.0462
     49 H           1.4075   -2.7039    0.6032 H       1  UNL1        0.0281
     50 H           1.5733   -1.7906   -0.9892 H       1  UNL1        0.0281
     51 H           3.7374   -2.4415    0.4224 H       1  UNL1        0.0284
     52 H           3.1881   -1.0427    1.4926 H       1  UNL1        0.0284
     53 H           2.2022    0.5819   -1.6341 H       1  UNL1        0.0284
     54 H           3.1827    1.6479   -0.6068 H       1  UNL1        0.0284
     55 H           0.8768    1.4497    0.1497 H       1  UNL1        0.0281
     56 H           2.1271    1.1293    1.3638 H       1  UNL1        0.0281
     57 H           5.0345    1.3569   -1.8022 H       1  UNL1        0.0622
     58 H           7.1869    2.2975   -1.3064 H       1  UNL1        0.0646
     59 H           7.4754   -0.1436    2.1895 H       1  UNL1        0.0646
     60 H           5.2187   -1.1275    1.6666 H       1  UNL1        0.0622
@<TRIPOS>BOND
     1     1     2    1
     2     2     3    1
     3     3     4    1
     4     4     5    1
     5     5     6    1
     6     6     7    1
     7     7     8    1
     8     8     9    1
     9     8    10    2
    10     7    11    1
    11    11    12   ar
    12    12    13   ar
    13    13    14   ar
    14    14    15   ar
    15    15    16   ar
    16     4    17    1
    17    17    18    1
    18    18    19    1
    19    19    20    1
    20    20    21    1
    21    21    22    1
    22    20    23    1
    23    23    24    3
    24    20    25    1
    25    25    26   ar
    26    26    27   ar
    27    27    28   ar
    28    28    29    1
    29    28    30   ar
    30    30    31   ar
    31     7     2    1
    32    16    11   ar
    33    22    17    1
    34    31    25   ar
    35     1    32    1
    36     1    33    1
    37     1    34    1
    38     2    35    1
    39     3    36    1
    40     3    37    1
    41     5    38    1
    42     5    39    1
    43     6    40    1
    44     6    41    1
    45     9    42    1
    46    12    43    1
    47    13    44    1
    48    14    45    1
    49    15    46    1
    50    16    47    1
    51    17    48    1
    52    18    49    1
    53    18    50    1
    54    19    51    1
    55    19    52    1
    56    21    53    1
    57    21    54    1
    58    22    55    1
    59    22    56    1
    60    26    57    1
    61    27    58    1
    62    30    59    1
    63    31    60    1
