
     RDKit          3D

 56 58  0  0  0  0  0  0  0  0999 V2000
    1.1588   -4.9233    1.3490 C   0  0  0  0  0  0  0  0  0  0  0  0
    0.4364   -3.5971    1.1820 N   0  0  0  0  0  0  0  0  0  0  0  0
   -0.9776   -3.7541    1.3789 C   0  0  0  0  0  0  0  0  0  0  0  0
    1.1937   -2.4668    0.8853 C   0  0  0  0  0  0  0  0  0  0  0  0
    2.4987   -2.8187    0.8160 O   0  0  0  0  0  0  0  0  0  0  0  0
    1.0235   -1.1396    0.6482 N   0  0  0  0  0  0  0  0  0  0  0  0
    2.2302   -0.2553    0.3651 C   0  0  0  0  0  0  0  0  0  0  0  0
    1.7086    0.4526   -0.8062 C   0  0  0  0  0  0  0  0  0  0  0  0
    2.5250    1.0169   -1.9092 C   0  0  0  0  0  0  0  0  0  0  0  0
    1.9311    1.6323   -2.9874 C   0  0  0  0  0  0  0  0  0  0  0  0
    2.6634    2.1800   -4.0349 C   0  0  0  0  0  0  0  0  0  0  0  0
    2.0702    2.7825   -5.0894 F   0  0  0  0  0  0  0  0  0  0  0  0
    4.0422    2.1064   -3.9971 C   0  0  0  0  0  0  0  0  0  0  0  0
    4.6438    1.4930   -2.9227 C   0  0  0  0  0  0  0  0  0  0  0  0
    3.8929    0.9460   -1.8750 C   0  0  0  0  0  0  0  0  0  0  0  0
    4.5845    0.3735   -0.8647 F   0  0  0  0  0  0  0  0  0  0  0  0
    0.3772    0.5133   -0.7329 C   0  0  0  0  0  0  0  0  0  0  0  0
   -0.0252   -0.1745    0.5593 C   0  0  2  0  0  0  0  0  0  0  0  0
    0.1036    0.8944    1.5953 C   0  0  0  0  0  0  0  0  0  0  0  0
   -0.9006    1.9307    1.7225 C   0  0  0  0  0  0  0  0  0  0  0  0
   -1.3039    2.8459    0.6283 C   0  0  1  0  0  0  0  0  0  0  0  0
   -1.9190    2.2948   -0.5201 N   0  0  0  0  0  0  0  0  0  0  0  0
   -2.2733    3.8870    1.2395 C   0  0  0  0  0  0  0  0  0  0  0  0
   -1.5548    4.5310    2.2248 F   0  0  0  0  0  0  0  0  0  0  0  0
   -2.6542    4.7469    0.2320 F   0  0  0  0  0  0  0  0  0  0  0  0
   -1.3984   -0.6473    0.4677 C   0  0  0  0  0  0  0  0  0  0  0  0
   -2.1849   -0.7188    1.5883 C   0  0  0  0  0  0  0  0  0  0  0  0
   -3.5294   -1.0966    1.5368 C   0  0  0  0  0  0  0  0  0  0  0  0
   -4.0867   -1.4106    0.3230 C   0  0  0  0  0  0  0  0  0  0  0  0
   -3.3205   -1.3499   -0.8188 C   0  0  0  0  0  0  0  0  0  0  0  0
   -1.9989   -0.9745   -0.7463 C   0  0  0  0  0  0  0  0  0  0  0  0
    0.7605   -5.6272    0.6020 H   0  0  0  0  0  0  0  0  0  0  0  0
    2.2334   -4.7566    1.3249 H   0  0  0  0  0  0  0  0  0  0  0  0
    0.8525   -5.2414    2.3657 H   0  0  0  0  0  0  0  0  0  0  0  0
   -1.2476   -4.8492    1.5660 H   0  0  0  0  0  0  0  0  0  0  0  0
   -1.5320   -3.4777    0.4686 H   0  0  0  0  0  0  0  0  0  0  0  0
   -1.3366   -3.2673    2.3108 H   0  0  0  0  0  0  0  0  0  0  0  0
    3.0796   -0.9381    0.1026 H   0  0  0  0  0  0  0  0  0  0  0  0
    2.4458    0.2794    1.2677 H   0  0  0  0  0  0  0  0  0  0  0  0
    0.8584    1.7225   -3.0769 H   0  0  0  0  0  0  0  0  0  0  0  0
    4.6510    2.5283   -4.8073 H   0  0  0  0  0  0  0  0  0  0  0  0
    5.7218    1.4444   -2.9094 H   0  0  0  0  0  0  0  0  0  0  0  0
   -0.1753    0.9495   -1.5142 H   0  0  0  0  0  0  0  0  0  0  0  0
    1.0727    1.4557    1.3325 H   0  0  0  0  0  0  0  0  0  0  0  0
    0.3586    0.4123    2.6045 H   0  0  0  0  0  0  0  0  0  0  0  0
   -1.8806    1.5874    2.1862 H   0  0  0  0  0  0  0  0  0  0  0  0
   -0.5233    2.6302    2.6143 H   0  0  0  0  0  0  0  0  0  0  0  0
   -0.3824    3.4577    0.3501 H   0  0  0  0  0  0  0  0  0  0  0  0
   -2.9570    2.1853   -0.3810 H   0  0  0  0  0  0  0  0  0  0  0  0
   -1.7224    2.7798   -1.4012 H   0  0  0  0  0  0  0  0  0  0  0  0
   -3.1189    3.3001    1.6392 H   0  0  0  0  0  0  0  0  0  0  0  0
   -1.7839   -0.5285    2.6028 H   0  0  0  0  0  0  0  0  0  0  0  0
   -4.0856   -1.1270    2.4692 H   0  0  0  0  0  0  0  0  0  0  0  0
   -5.1096   -1.7038    0.2406 H   0  0  0  0  0  0  0  0  0  0  0  0
   -3.7570   -1.5979   -1.7777 H   0  0  0  0  0  0  0  0  0  0  0  0
   -1.3788   -0.9183   -1.6173 H   0  0  0  0  0  0  0  0  0  0  0  0
  1  2  1  0
  2  3  1  0
  2  4  1  0
  4  5  2  0
  4  6  1  0
  6  7  1  0
  7  8  1  0
  8  9  1  0
  9 10  2  0
 10 11  1  0
 11 12  1  0
 11 13  2  0
 13 14  1  0
 14 15  2  0
 15 16  1  0
  8 17  2  0
 17 18  1  0
 18 19  1  1
 19 20  1  0
 20 21  1  0
 21 22  1  0
 21 23  1  0
 23 24  1  0
 23 25  1  0
 18 26  1  0
 26 27  2  0
 27 28  1  0
 28 29  2  0
 29 30  1  0
 30 31  2  0
 18  6  1  0
 31 26  1  0
 15  9  1  0
  1 32  1  0
  1 33  1  0
  1 34  1  0
  3 35  1  0
  3 36  1  0
  3 37  1  0
  7 38  1  0
  7 39  1  0
 10 40  1  0
 13 41  1  0
 14 42  1  0
 17 43  1  0
 19 44  1  0
 19 45  1  0
 20 46  1  0
 20 47  1  0
 21 48  1  6
 22 49  1  0
 22 50  1  0
 23 51  1  0
 27 52  1  0
 28 53  1  0
 29 54  1  0
 30 55  1  0
 31 56  1  0
M  END
$$$$
