@<TRIPOS>MOLECULE
*****
 56 58 0 0 0
SMALL
GASTEIGER

@<TRIPOS>ATOM
      1 C           1.1588   -4.9233    1.3490 C.3     1  UNL1        0.0043
      2 N           0.4364   -3.5971    1.1820 N.am    1  UNL1       -0.2916
      3 C          -0.9776   -3.7541    1.3789 C.3     1  UNL1        0.0043
      4 C           1.1937   -2.4668    0.8853 C.2     1  UNL1        0.3055
      5 O           2.4987   -2.8187    0.8160 O.2     1  UNL1       -0.2524
      6 N           1.0235   -1.1396    0.6482 N.am    1  UNL1       -0.2680
      7 C           2.2302   -0.2553    0.3651 C.3     1  UNL1        0.0428
      8 C           1.7086    0.4526   -0.8062 C.2     1  UNL1       -0.0216
      9 C           2.5250    1.0169   -1.9092 C.ar    1  UNL1        0.0173
     10 C           1.9311    1.6323   -2.9874 C.ar    1  UNL1       -0.0163
     11 C           2.6634    2.1800   -4.0349 C.ar    1  UNL1        0.1241
     12 F           2.0702    2.7825   -5.0894 F       1  UNL1       -0.2055
     13 C           4.0422    2.1064   -3.9971 C.ar    1  UNL1       -0.0237
     14 C           4.6438    1.4930   -2.9227 C.ar    1  UNL1       -0.0231
     15 C           3.8929    0.9460   -1.8750 C.ar    1  UNL1        0.1310
     16 F           4.5845    0.3735   -0.8647 F       1  UNL1       -0.2049
     17 C           0.3772    0.5133   -0.7329 C.2     1  UNL1       -0.0509
     18 C          -0.0252   -0.1745    0.5593 C.3     1  UNL1        0.0834
     19 C           0.1036    0.8944    1.5953 C.3     1  UNL1       -0.0219
     20 C          -0.9006    1.9307    1.7225 C.3     1  UNL1       -0.0299
     21 C          -1.3039    2.8459    0.6283 C.3     1  UNL1        0.0662
     22 N          -1.9190    2.2948   -0.5201 N.3     1  UNL1       -0.3228
     23 C          -2.2733    3.8870    1.2395 C.3     1  UNL1        0.2541
     24 F          -1.5548    4.5310    2.2248 F       1  UNL1       -0.2076
     25 F          -2.6542    4.7469    0.2320 F       1  UNL1       -0.2076
     26 C          -1.3984   -0.6473    0.4677 C.ar    1  UNL1       -0.0200
     27 C          -2.1849   -0.7188    1.5883 C.ar    1  UNL1       -0.0562
     28 C          -3.5294   -1.0966    1.5368 C.ar    1  UNL1       -0.0614
     29 C          -4.0867   -1.4106    0.3230 C.ar    1  UNL1       -0.0617
     30 C          -3.3205   -1.3499   -0.8188 C.ar    1  UNL1       -0.0614
     31 C          -1.9989   -0.9745   -0.7463 C.ar    1  UNL1       -0.0562
     32 H           0.7605   -5.6272    0.6020 H       1  UNL1        0.0429
     33 H           2.2334   -4.7566    1.3249 H       1  UNL1        0.0429
     34 H           0.8525   -5.2414    2.3657 H       1  UNL1        0.0429
     35 H          -1.2476   -4.8492    1.5660 H       1  UNL1        0.0429
     36 H          -1.5320   -3.4777    0.4686 H       1  UNL1        0.0429
     37 H          -1.3366   -3.2673    2.3108 H       1  UNL1        0.0429
     38 H           3.0796   -0.9381    0.1026 H       1  UNL1        0.0515
     39 H           2.4458    0.2794    1.2677 H       1  UNL1        0.0515
     40 H           0.8584    1.7225   -3.0769 H       1  UNL1        0.0653
     41 H           4.6510    2.5283   -4.8073 H       1  UNL1        0.0647
     42 H           5.7218    1.4444   -2.9094 H       1  UNL1        0.0647
     43 H          -0.1753    0.9495   -1.5142 H       1  UNL1        0.0600
     44 H           1.0727    1.4557    1.3325 H       1  UNL1        0.0293
     45 H           0.3586    0.4123    2.6045 H       1  UNL1        0.0293
     46 H          -1.8806    1.5874    2.1862 H       1  UNL1        0.0283
     47 H          -0.5233    2.6302    2.6143 H       1  UNL1        0.0283
     48 H          -0.3824    3.4577    0.3501 H       1  UNL1        0.0514
     49 H          -2.9570    2.1853   -0.3810 H       1  UNL1        0.1186
     50 H          -1.7224    2.7798   -1.4012 H       1  UNL1        0.1186
     51 H          -3.1189    3.3001    1.6392 H       1  UNL1        0.1034
     52 H          -1.7839   -0.5285    2.6028 H       1  UNL1        0.0621
     53 H          -4.0856   -1.1270    2.4692 H       1  UNL1        0.0618
     54 H          -5.1096   -1.7038    0.2406 H       1  UNL1        0.0618
     55 H          -3.7570   -1.5979   -1.7777 H       1  UNL1        0.0618
     56 H          -1.3788   -0.9183   -1.6173 H       1  UNL1        0.0621
@<TRIPOS>BOND
     1     1     2    1
     2     2     3    1
     3     2     4   am
     4     4     5    2
     5     4     6   am
     6     6     7    1
     7     7     8    1
     8     8     9    1
     9     9    10   ar
    10    10    11   ar
    11    11    12    1
    12    11    13   ar
    13    13    14   ar
    14    14    15   ar
    15    15    16    1
    16     8    17    2
    17    17    18    1
    18    18    19    1
    19    19    20    1
    20    20    21    1
    21    21    22    1
    22    21    23    1
    23    23    24    1
    24    23    25    1
    25    18    26    1
    26    26    27   ar
    27    27    28   ar
    28    28    29   ar
    29    29    30   ar
    30    30    31   ar
    31    18     6    1
    32    31    26   ar
    33    15     9   ar
    34     1    32    1
    35     1    33    1
    36     1    34    1
    37     3    35    1
    38     3    36    1
    39     3    37    1
    40     7    38    1
    41     7    39    1
    42    10    40    1
    43    13    41    1
    44    14    42    1
    45    17    43    1
    46    19    44    1
    47    19    45    1
    48    20    46    1
    49    20    47    1
    50    21    48    1
    51    22    49    1
    52    22    50    1
    53    23    51    1
    54    27    52    1
    55    28    53    1
    56    29    54    1
    57    30    55    1
    58    31    56    1
