@<TRIPOS>MOLECULE
*****
 46 48 0 0 0
SMALL
GASTEIGER

@<TRIPOS>ATOM
      1 C          -1.0196    4.4150   -0.4279 C.3     1  UNL1        0.0196
      2 N          -0.4959    3.0623   -0.1873 N.ar    1  UNL1       -0.2639
      3 C           0.6346    3.0742    0.5782 C.ar    1  UNL1        0.2581
      4 O           1.1633    4.1065    1.0245 O.2     1  UNL1       -0.2675
      5 C           1.1757    1.8410    0.8376 C.ar    1  UNL1        0.0414
      6 C           0.5578    0.7284    0.3244 C.ar    1  UNL1        0.1107
      7 N           1.3172   -0.4775    0.5603 N.pl3   1  UNL1       -0.3148
      8 C           1.7937   -1.3656    1.5979 C.3     1  UNL1        0.0136
      9 C           3.2976   -1.4128    1.6627 C.3     1  UNL1       -0.0357
     10 C           3.9164   -1.7602    0.3276 C.3     1  UNL1       -0.0349
     11 C           3.3340   -0.8084   -0.6717 C.3     1  UNL1        0.0207
     12 N           3.9117   -0.9665   -1.9910 N.3     1  UNL1       -0.3259
     13 C           1.8300   -1.0409   -0.6952 C.3     1  UNL1        0.0286
     14 N          -0.5429    0.6647   -0.4210 N.ar    1  UNL1       -0.2770
     15 C          -1.3058   -0.4335   -0.9203 C.3     1  UNL1        0.0554
     16 C          -2.5795   -0.7382   -0.2652 C.ar    1  UNL1       -0.0102
     17 C          -3.0052   -1.3205    0.8848 C.ar    1  UNL1        0.0566
     18 C          -4.2977   -1.5008    1.2982 C.ar    1  UNL1       -0.0440
     19 C          -5.3285   -1.0677    0.5073 C.ar    1  UNL1       -0.0605
     20 C          -5.0168   -0.4682   -0.6725 C.ar    1  UNL1       -0.0614
     21 C          -3.6879   -0.3186   -1.0277 C.ar    1  UNL1       -0.0556
     22 C          -1.9540   -1.8002    1.7153 C.1     1  UNL1        0.0995
     23 N          -1.1211   -2.1967    2.3951 N.1     1  UNL1       -0.1909
     24 C          -1.0307    1.9150   -0.6458 C.ar    1  UNL1        0.3333
     25 O          -2.0588    2.2114   -1.3173 O.2     1  UNL1       -0.2462
     26 H          -1.7470    4.4019   -1.2446 H       1  UNL1        0.0458
     27 H          -0.1937    5.0717   -0.7018 H       1  UNL1        0.0458
     28 H          -1.4208    4.7876    0.5319 H       1  UNL1        0.0458
     29 H           2.0637    1.7975    1.4357 H       1  UNL1        0.0706
     30 H           1.4456   -2.3965    1.3987 H       1  UNL1        0.0464
     31 H           1.4305   -1.0850    2.6072 H       1  UNL1        0.0464
     32 H           3.6859   -0.4075    1.9537 H       1  UNL1        0.0281
     33 H           3.6074   -2.1406    2.4386 H       1  UNL1        0.0281
     34 H           3.6626   -2.7833    0.0437 H       1  UNL1        0.0281
     35 H           5.0134   -1.6349    0.4637 H       1  UNL1        0.0281
     36 H           3.4985    0.2296   -0.2873 H       1  UNL1        0.0474
     37 H           3.7273   -1.9444   -2.3082 H       1  UNL1        0.1185
     38 H           4.9450   -0.7935   -1.8587 H       1  UNL1        0.1185
     39 H           1.6454   -2.1189   -0.7607 H       1  UNL1        0.0479
     40 H           1.4735   -0.4881   -1.5887 H       1  UNL1        0.0479
     41 H          -0.6179   -1.3499   -0.8492 H       1  UNL1        0.0544
     42 H          -1.4250   -0.2968   -2.0172 H       1  UNL1        0.0544
     43 H          -4.4841   -1.9800    2.2360 H       1  UNL1        0.0630
     44 H          -6.3232   -1.2356    0.8835 H       1  UNL1        0.0618
     45 H          -5.8551   -0.1411   -1.2676 H       1  UNL1        0.0618
     46 H          -3.6194    0.1655   -2.0054 H       1  UNL1        0.0621
@<TRIPOS>BOND
     1     1     2    1
     2     2     3   ar
     3     3     4    2
     4     3     5   ar
     5     5     6   ar
     6     6     7    1
     7     7     8    1
     8     8     9    1
     9     9    10    1
    10    10    11    1
    11    11    12    1
    12    11    13    1
    13     6    14   ar
    14    14    15    1
    15    15    16    1
    16    16    17   ar
    17    17    18   ar
    18    18    19   ar
    19    19    20   ar
    20    20    21   ar
    21    17    22    1
    22    22    23    3
    23    14    24   ar
    24    24    25    2
    25    24     2   ar
    26    13     7    1
    27    21    16   ar
    28     1    26    1
    29     1    27    1
    30     1    28    1
    31     5    29    1
    32     8    30    1
    33     8    31    1
    34     9    32    1
    35     9    33    1
    36    10    34    1
    37    10    35    1
    38    11    36    1
    39    12    37    1
    40    12    38    1
    41    13    39    1
    42    13    40    1
    43    15    41    1
    44    15    42    1
    45    18    43    1
    46    19    44    1
    47    20    45    1
    48    21    46    1
