
     RDKit          3D

 53 57  0  0  0  0  0  0  0  0999 V2000
    4.8101   -2.4627   -0.3817 O   0  0  0  0  0  0  0  0  0  0  0  0
    5.8719   -1.8940   -0.0515 C   0  0  0  0  0  0  0  0  0  0  0  0
    7.1309   -2.5954    0.0518 N   0  0  0  0  0  0  0  0  0  0  0  0
    8.1159   -1.6227    0.3586 C   0  0  0  0  0  0  0  0  0  0  0  0
    7.3966   -0.3485    0.5901 C   0  0  0  0  0  0  0  0  0  0  0  0
    7.9043    0.8676    1.0347 C   0  0  0  0  0  0  0  0  0  0  0  0
    7.0358    1.9173    1.1602 C   0  0  0  0  0  0  0  0  0  0  0  0
    5.7031    1.7843    0.8570 C   0  0  0  0  0  0  0  0  0  0  0  0
    5.1734    0.5634    0.4047 C   0  0  0  0  0  0  0  0  0  0  0  0
    3.7476    0.4848    0.1337 C   0  0  0  0  0  0  0  0  0  0  0  0
    3.0093   -0.2507   -0.7480 C   0  0  0  0  0  0  0  0  0  0  0  0
    1.6636    0.1734   -0.6449 C   0  0  0  0  0  0  0  0  0  0  0  0
    0.5407   -0.2571   -1.3161 C   0  0  0  0  0  0  0  0  0  0  0  0
   -0.7084    0.3300   -1.0339 C   0  0  0  0  0  0  0  0  0  0  0  0
   -1.8134   -0.1001   -1.7048 O   0  0  0  0  0  0  0  0  0  0  0  0
   -3.1457    0.2392   -1.6418 C   0  0  0  0  0  0  0  0  0  0  0  0
   -3.7469   -0.1019   -0.3288 C   0  0  0  0  0  0  0  0  0  0  0  0
   -5.1521    0.2506   -0.2315 N   0  0  0  0  0  0  0  0  0  0  0  0
   -5.6064   -0.1297    1.0771 C   0  0  0  0  0  0  0  0  0  0  0  0
   -6.7749   -1.0630    1.0733 C   0  0  0  0  0  0  0  0  0  0  0  0
   -7.8878   -0.3899    0.2698 C   0  0  0  0  0  0  0  0  0  0  0  0
   -7.3816   -0.0149   -1.0818 C   0  0  0  0  0  0  0  0  0  0  0  0
   -5.9315   -0.3108   -1.3050 C   0  0  0  0  0  0  0  0  0  0  0  0
   -0.7092    1.3168   -0.0829 C   0  0  0  0  0  0  0  0  0  0  0  0
    0.4065    1.7535    0.5935 C   0  0  0  0  0  0  0  0  0  0  0  0
    1.6402    1.1586    0.3011 C   0  0  0  0  0  0  0  0  0  0  0  0
    2.8677    1.3469    0.7637 N   0  0  0  0  0  0  0  0  0  0  0  0
    6.0347   -0.4948    0.2801 C   0  0  0  0  0  0  0  0  0  0  0  0
    7.2209   -3.6400   -0.0882 H   0  0  0  0  0  0  0  0  0  0  0  0
    8.8899   -1.4995   -0.4303 H   0  0  0  0  0  0  0  0  0  0  0  0
    8.6007   -1.8849    1.3463 H   0  0  0  0  0  0  0  0  0  0  0  0
    8.9619    0.9608    1.2701 H   0  0  0  0  0  0  0  0  0  0  0  0
    7.4211    2.8598    1.5049 H   0  0  0  0  0  0  0  0  0  0  0  0
    5.0002    2.6041    0.9472 H   0  0  0  0  0  0  0  0  0  0  0  0
    3.3053   -0.9865   -1.4471 H   0  0  0  0  0  0  0  0  0  0  0  0
    0.5910   -1.0428   -2.0631 H   0  0  0  0  0  0  0  0  0  0  0  0
   -3.6966   -0.3706   -2.4148 H   0  0  0  0  0  0  0  0  0  0  0  0
   -3.2249    1.3273   -1.8894 H   0  0  0  0  0  0  0  0  0  0  0  0
   -3.6718   -1.2195   -0.1913 H   0  0  0  0  0  0  0  0  0  0  0  0
   -3.2472    0.3254    0.5308 H   0  0  0  0  0  0  0  0  0  0  0  0
   -5.9256    0.8011    1.5996 H   0  0  0  0  0  0  0  0  0  0  0  0
   -4.7711   -0.5412    1.7158 H   0  0  0  0  0  0  0  0  0  0  0  0
   -6.5548   -2.0757    0.7163 H   0  0  0  0  0  0  0  0  0  0  0  0
   -7.1635   -1.0998    2.1288 H   0  0  0  0  0  0  0  0  0  0  0  0
   -8.1116    0.5619    0.8324 H   0  0  0  0  0  0  0  0  0  0  0  0
   -8.8140   -0.9774    0.2710 H   0  0  0  0  0  0  0  0  0  0  0  0
   -7.9538   -0.6095   -1.8527 H   0  0  0  0  0  0  0  0  0  0  0  0
   -7.5680    1.0483   -1.3264 H   0  0  0  0  0  0  0  0  0  0  0  0
   -5.7196   -1.3686   -1.5113 H   0  0  0  0  0  0  0  0  0  0  0  0
   -5.6307    0.2527   -2.2371 H   0  0  0  0  0  0  0  0  0  0  0  0
   -1.6254    1.8463    0.1859 H   0  0  0  0  0  0  0  0  0  0  0  0
    0.3757    2.5252    1.3313 H   0  0  0  0  0  0  0  0  0  0  0  0
    3.1174    2.0526    1.5020 H   0  0  0  0  0  0  0  0  0  0  0  0
  1  2  2  0
  2  3  1  0
  3  4  1  0
  4  5  1  0
  5  6  2  0
  6  7  1  0
  7  8  2  0
  8  9  1  0
  9 10  1  0
 10 11  2  0
 11 12  1  0
 12 13  2  0
 13 14  1  0
 14 15  1  0
 15 16  1  0
 16 17  1  0
 17 18  1  0
 18 19  1  0
 19 20  1  0
 20 21  1  0
 21 22  1  0
 22 23  1  0
 14 24  2  0
 24 25  1  0
 25 26  2  0
 26 27  1  0
  9 28  2  0
 28  2  1  0
 28  5  1  0
 27 10  1  0
 26 12  1  0
 23 18  1  0
  3 29  1  0
  4 30  1  0
  4 31  1  0
  6 32  1  0
  7 33  1  0
  8 34  1  0
 11 35  1  0
 13 36  1  0
 16 37  1  0
 16 38  1  0
 17 39  1  0
 17 40  1  0
 19 41  1  0
 19 42  1  0
 20 43  1  0
 20 44  1  0
 21 45  1  0
 21 46  1  0
 22 47  1  0
 22 48  1  0
 23 49  1  0
 23 50  1  0
 24 51  1  0
 25 52  1  0
 27 53  1  0
M  END
$$$$
