@<TRIPOS>MOLECULE
*****
 53 57 0 0 0
SMALL
GASTEIGER

@<TRIPOS>ATOM
      1 O           4.8101   -2.4627   -0.3817 O.2     1  UNL1       -0.2702
      2 C           5.8719   -1.8940   -0.0515 C.2     1  UNL1        0.2453
      3 N           7.1309   -2.5954    0.0518 N.am    1  UNL1       -0.3072
      4 C           8.1159   -1.6227    0.3586 C.3     1  UNL1        0.0379
      5 C           7.3966   -0.3485    0.5901 C.ar    1  UNL1       -0.0176
      6 C           7.9043    0.8676    1.0347 C.ar    1  UNL1       -0.0563
      7 C           7.0358    1.9173    1.1602 C.ar    1  UNL1       -0.0608
      8 C           5.7031    1.7843    0.8570 C.ar    1  UNL1       -0.0519
      9 C           5.1734    0.5634    0.4047 C.ar    1  UNL1        0.0107
     10 C           3.7476    0.4848    0.1337 C.ar    1  UNL1        0.0482
     11 C           3.0093   -0.2507   -0.7480 C.ar    1  UNL1       -0.0285
     12 C           1.6636    0.1734   -0.6449 C.ar    1  UNL1        0.0037
     13 C           0.5407   -0.2571   -1.3161 C.ar    1  UNL1       -0.0108
     14 C          -0.7084    0.3300   -1.0339 C.ar    1  UNL1        0.1212
     15 O          -1.8134   -0.1001   -1.7048 O.3     1  UNL1       -0.4907
     16 C          -3.1457    0.2392   -1.6418 C.3     1  UNL1        0.1022
     17 C          -3.7469   -0.1019   -0.3288 C.3     1  UNL1        0.0331
     18 N          -5.1521    0.2506   -0.2315 N.3     1  UNL1       -0.2991
     19 C          -5.6064   -0.1297    1.0771 C.3     1  UNL1       -0.0010
     20 C          -6.7749   -1.0630    1.0733 C.3     1  UNL1       -0.0402
     21 C          -7.8878   -0.3899    0.2698 C.3     1  UNL1       -0.0507
     22 C          -7.3816   -0.0149   -1.0818 C.3     1  UNL1       -0.0402
     23 C          -5.9315   -0.3108   -1.3050 C.3     1  UNL1       -0.0010
     24 C          -0.7092    1.3168   -0.0829 C.ar    1  UNL1       -0.0180
     25 C           0.4065    1.7535    0.5935 C.ar    1  UNL1       -0.0343
     26 C           1.6402    1.1586    0.3011 C.ar    1  UNL1        0.0471
     27 N           2.8677    1.3469    0.7637 N.ar    1  UNL1       -0.3541
     28 C           6.0347   -0.4948    0.2801 C.ar    1  UNL1        0.0504
     29 H           7.2209   -3.6400   -0.0882 H       1  UNL1        0.1493
     30 H           8.8899   -1.4995   -0.4303 H       1  UNL1        0.0512
     31 H           8.6007   -1.8849    1.3463 H       1  UNL1        0.0512
     32 H           8.9619    0.9608    1.2701 H       1  UNL1        0.0621
     33 H           7.4211    2.8598    1.5049 H       1  UNL1        0.0618
     34 H           5.0002    2.6041    0.9472 H       1  UNL1        0.0624
     35 H           3.3053   -0.9865   -1.4471 H       1  UNL1        0.0645
     36 H           0.5910   -1.0428   -2.0631 H       1  UNL1        0.0661
     37 H          -3.6966   -0.3706   -2.4148 H       1  UNL1        0.0709
     38 H          -3.2249    1.3273   -1.8894 H       1  UNL1        0.0709
     39 H          -3.6718   -1.2195   -0.1913 H       1  UNL1        0.0460
     40 H          -3.2472    0.3254    0.5308 H       1  UNL1        0.0460
     41 H          -5.9256    0.8011    1.5996 H       1  UNL1        0.0427
     42 H          -4.7711   -0.5412    1.7158 H       1  UNL1        0.0427
     43 H          -6.5548   -2.0757    0.7163 H       1  UNL1        0.0278
     44 H          -7.1635   -1.0998    2.1288 H       1  UNL1        0.0278
     45 H          -8.1116    0.5619    0.8324 H       1  UNL1        0.0266
     46 H          -8.8140   -0.9774    0.2710 H       1  UNL1        0.0266
     47 H          -7.9538   -0.6095   -1.8527 H       1  UNL1        0.0278
     48 H          -7.5680    1.0483   -1.3264 H       1  UNL1        0.0278
     49 H          -5.7196   -1.3686   -1.5113 H       1  UNL1        0.0427
     50 H          -5.6307    0.2527   -2.2371 H       1  UNL1        0.0427
     51 H          -1.6254    1.8463    0.1859 H       1  UNL1        0.0655
     52 H           0.3757    2.5252    1.3313 H       1  UNL1        0.0639
     53 H           3.1174    2.0526    1.5020 H       1  UNL1        0.1659
@<TRIPOS>BOND
     1     1     2    2
     2     2     3   am
     3     3     4    1
     4     4     5    1
     5     5     6   ar
     6     6     7   ar
     7     7     8   ar
     8     8     9   ar
     9     9    10    1
    10    10    11   ar
    11    11    12   ar
    12    12    13   ar
    13    13    14   ar
    14    14    15    1
    15    15    16    1
    16    16    17    1
    17    17    18    1
    18    18    19    1
    19    19    20    1
    20    20    21    1
    21    21    22    1
    22    22    23    1
    23    14    24   ar
    24    24    25   ar
    25    25    26   ar
    26    26    27   ar
    27     9    28   ar
    28    28     2    1
    29    28     5   ar
    30    27    10   ar
    31    26    12   ar
    32    23    18    1
    33     3    29    1
    34     4    30    1
    35     4    31    1
    36     6    32    1
    37     7    33    1
    38     8    34    1
    39    11    35    1
    40    13    36    1
    41    16    37    1
    42    16    38    1
    43    17    39    1
    44    17    40    1
    45    19    41    1
    46    19    42    1
    47    20    43    1
    48    20    44    1
    49    21    45    1
    50    21    46    1
    51    22    47    1
    52    22    48    1
    53    23    49    1
    54    23    50    1
    55    24    51    1
    56    25    52    1
    57    27    53    1
