
     RDKit          3D

 42 45  0  0  0  0  0  0  0  0999 V2000
    4.7881   -0.5198   -0.7392 N   0  0  0  0  0  0  0  0  0  0  0  0
    4.1291    0.7682   -0.8634 C   0  0  0  0  0  0  0  0  0  0  0  0
    3.3852    1.0222    0.3975 C   0  0  0  0  0  0  0  0  0  0  0  0
    3.8383    1.6543    1.5329 C   0  0  0  0  0  0  0  0  0  0  0  0
    2.8578    1.6812    2.4496 N   0  0  0  0  0  0  0  0  0  0  0  0
    1.7761    1.0679    1.9062 C   0  0  0  0  0  0  0  0  0  0  0  0
    0.5023    0.8051    2.3767 C   0  0  0  0  0  0  0  0  0  0  0  0
   -0.3789    0.1523    1.5630 C   0  0  0  0  0  0  0  0  0  0  0  0
   -0.0038   -0.2322    0.3070 C   0  0  0  0  0  0  0  0  0  0  0  0
   -0.9471   -0.9343   -0.5731 C   0  0  0  0  0  0  0  0  0  0  0  0
   -2.1298   -0.4201   -1.0427 C   0  0  0  0  0  0  0  0  0  0  0  0
   -2.7081    0.8891   -0.7919 C   0  0  0  0  0  0  0  0  0  0  0  0
   -2.0367    2.0163   -1.2168 C   0  0  0  0  0  0  0  0  0  0  0  0
   -2.6149    3.2364   -0.9611 C   0  0  0  0  0  0  0  0  0  0  0  0
   -3.8310    3.3581   -0.3005 C   0  0  0  0  0  0  0  0  0  0  0  0
   -4.3440    4.5783   -0.0805 F   0  0  0  0  0  0  0  0  0  0  0  0
   -4.4937    2.2359    0.1193 C   0  0  0  0  0  0  0  0  0  0  0  0
   -3.9250    1.0079   -0.1307 C   0  0  0  0  0  0  0  0  0  0  0  0
   -2.6583   -1.3979   -1.8013 N   0  0  0  0  0  0  0  0  0  0  0  0
   -1.8301   -2.4784   -1.8000 C   0  0  0  0  0  0  0  0  0  0  0  0
   -0.7618   -2.1852   -1.0315 N   0  0  0  0  0  0  0  0  0  0  0  0
    0.3787   -3.0427   -0.7435 C   0  0  0  0  0  0  0  0  0  0  0  0
    0.0058   -3.8272    0.5207 C   0  0  0  0  0  0  0  0  0  0  0  0
   -1.1492   -4.5425    0.1757 F   0  0  0  0  0  0  0  0  0  0  0  0
    0.9708   -4.7217    0.8661 F   0  0  0  0  0  0  0  0  0  0  0  0
    1.2338    0.0379   -0.1145 N   0  0  0  0  0  0  0  0  0  0  0  0
    2.0911    0.6681    0.6655 N   0  0  0  0  0  0  0  0  0  0  0  0
    4.1882   -1.3173   -0.9993 H   0  0  0  0  0  0  0  0  0  0  0  0
    5.0566   -0.6554    0.2640 H   0  0  0  0  0  0  0  0  0  0  0  0
    4.8833    1.5428   -1.0658 H   0  0  0  0  0  0  0  0  0  0  0  0
    3.4233    0.6747   -1.7346 H   0  0  0  0  0  0  0  0  0  0  0  0
    4.8493    2.0479    1.6067 H   0  0  0  0  0  0  0  0  0  0  0  0
    0.2607    1.1342    3.3826 H   0  0  0  0  0  0  0  0  0  0  0  0
   -1.3821   -0.0619    1.9163 H   0  0  0  0  0  0  0  0  0  0  0  0
   -1.0936    1.8787   -1.7269 H   0  0  0  0  0  0  0  0  0  0  0  0
   -2.0838    4.1108   -1.2963 H   0  0  0  0  0  0  0  0  0  0  0  0
   -5.4491    2.3478    0.6375 H   0  0  0  0  0  0  0  0  0  0  0  0
   -4.4703    0.1178    0.2131 H   0  0  0  0  0  0  0  0  0  0  0  0
   -1.9650   -3.4240   -2.3100 H   0  0  0  0  0  0  0  0  0  0  0  0
    0.5408   -3.7287   -1.6002 H   0  0  0  0  0  0  0  0  0  0  0  0
    1.2888   -2.4526   -0.5157 H   0  0  0  0  0  0  0  0  0  0  0  0
   -0.1922   -3.0922    1.3108 H   0  0  0  0  0  0  0  0  0  0  0  0
  1  2  1  0
  2  3  1  0
  3  4  2  0
  4  5  1  0
  5  6  2  0
  6  7  1  0
  7  8  2  0
  8  9  1  0
  9 10  1  0
 10 11  2  0
 11 12  1  0
 12 13  2  0
 13 14  1  0
 14 15  2  0
 15 16  1  0
 15 17  1  0
 17 18  2  0
 11 19  1  0
 19 20  2  0
 20 21  1  0
 21 22  1  0
 22 23  1  0
 23 24  1  0
 23 25  1  0
  9 26  2  0
 26 27  1  0
 27  3  1  0
 27  6  1  0
 21 10  1  0
 18 12  1  0
  1 28  1  0
  1 29  1  0
  2 30  1  0
  2 31  1  0
  4 32  1  0
  7 33  1  0
  8 34  1  0
 13 35  1  0
 14 36  1  0
 17 37  1  0
 18 38  1  0
 20 39  1  0
 22 40  1  0
 22 41  1  0
 23 42  1  0
M  END
$$$$
