@<TRIPOS>MOLECULE
*****
 42 45 0 0 0
SMALL
GASTEIGER

@<TRIPOS>ATOM
      1 N           4.7881   -0.5198   -0.7392 N.3     1  UNL1       -0.3249
      2 C           4.1291    0.7682   -0.8634 C.3     1  UNL1        0.0376
      3 C           3.3852    1.0222    0.3975 C.ar    1  UNL1        0.0767
      4 C           3.8383    1.6543    1.5329 C.ar    1  UNL1        0.0526
      5 N           2.8578    1.6812    2.4496 N.ar    1  UNL1       -0.2343
      6 C           1.7761    1.0679    1.9062 C.ar    1  UNL1        0.1544
      7 C           0.5023    0.8051    2.3767 C.ar    1  UNL1       -0.0153
      8 C          -0.3789    0.1523    1.5630 C.ar    1  UNL1       -0.0290
      9 C          -0.0038   -0.2322    0.3070 C.ar    1  UNL1        0.1103
     10 C          -0.9471   -0.9343   -0.5731 C.ar    1  UNL1        0.0968
     11 C          -2.1298   -0.4201   -1.0427 C.ar    1  UNL1        0.0982
     12 C          -2.7081    0.8891   -0.7919 C.ar    1  UNL1        0.0027
     13 C          -2.0367    2.0163   -1.2168 C.ar    1  UNL1       -0.0498
     14 C          -2.6149    3.2364   -0.9611 C.ar    1  UNL1       -0.0258
     15 C          -3.8310    3.3581   -0.3005 C.ar    1  UNL1        0.1234
     16 F          -4.3440    4.5783   -0.0805 F       1  UNL1       -0.2055
     17 C          -4.4937    2.2359    0.1193 C.ar    1  UNL1       -0.0258
     18 C          -3.9250    1.0079   -0.1307 C.ar    1  UNL1       -0.0498
     19 N          -2.6583   -1.3979   -1.8013 N.ar    1  UNL1       -0.2351
     20 C          -1.8301   -2.4784   -1.8000 C.ar    1  UNL1        0.0973
     21 N          -0.7618   -2.1852   -1.0315 N.ar    1  UNL1       -0.3229
     22 C           0.3787   -3.0427   -0.7435 C.3     1  UNL1        0.0852
     23 C           0.0058   -3.8272    0.5207 C.3     1  UNL1        0.2569
     24 F          -1.1492   -4.5425    0.1757 F       1  UNL1       -0.2073
     25 F           0.9708   -4.7217    0.8661 F       1  UNL1       -0.2073
     26 N           1.2338    0.0379   -0.1145 N.ar    1  UNL1       -0.1632
     27 N           2.0911    0.6681    0.6655 N.ar    1  UNL1       -0.2154
     28 H           4.1882   -1.3173   -0.9993 H       1  UNL1        0.1186
     29 H           5.0566   -0.6554    0.2640 H       1  UNL1        0.1186
     30 H           4.8833    1.5428   -1.0658 H       1  UNL1        0.0487
     31 H           3.4233    0.6747   -1.7346 H       1  UNL1        0.0487
     32 H           4.8493    2.0479    1.6067 H       1  UNL1        0.0849
     33 H           0.2607    1.1342    3.3826 H       1  UNL1        0.0655
     34 H          -1.3821   -0.0619    1.9163 H       1  UNL1        0.0641
     35 H          -1.0936    1.8787   -1.7269 H       1  UNL1        0.0625
     36 H          -2.0838    4.1108   -1.2963 H       1  UNL1        0.0646
     37 H          -5.4491    2.3478    0.6375 H       1  UNL1        0.0646
     38 H          -4.4703    0.1178    0.2131 H       1  UNL1        0.0625
     39 H          -1.9650   -3.4240   -2.3100 H       1  UNL1        0.1029
     40 H           0.5408   -3.7287   -1.6002 H       1  UNL1        0.0548
     41 H           1.2888   -2.4526   -0.5157 H       1  UNL1        0.0548
     42 H          -0.1922   -3.0922    1.3108 H       1  UNL1        0.1037
@<TRIPOS>BOND
     1     1     2    1
     2     2     3    1
     3     3     4   ar
     4     4     5   ar
     5     5     6   ar
     6     6     7   ar
     7     7     8   ar
     8     8     9   ar
     9     9    10    1
    10    10    11   ar
    11    11    12    1
    12    12    13   ar
    13    13    14   ar
    14    14    15   ar
    15    15    16    1
    16    15    17   ar
    17    17    18   ar
    18    11    19   ar
    19    19    20   ar
    20    20    21   ar
    21    21    22    1
    22    22    23    1
    23    23    24    1
    24    23    25    1
    25     9    26   ar
    26    26    27   ar
    27    27     3   ar
    28    27     6   ar
    29    21    10   ar
    30    18    12   ar
    31     1    28    1
    32     1    29    1
    33     2    30    1
    34     2    31    1
    35     4    32    1
    36     7    33    1
    37     8    34    1
    38    13    35    1
    39    14    36    1
    40    17    37    1
    41    18    38    1
    42    20    39    1
    43    22    40    1
    44    22    41    1
    45    23    42    1
