
     RDKit          3D

 59 61  0  0  0  0  0  0  0  0999 V2000
   -0.9249   -3.3029    1.2091 C   0  0  0  0  0  0  0  0  0  0  0  0
   -2.2395   -3.2218    0.4687 C   0  0  0  0  0  0  0  0  0  0  0  0
   -3.2757   -3.8379    1.4418 C   0  0  0  0  0  0  0  0  0  0  0  0
   -2.5691   -1.8090    0.2195 C   0  0  0  0  0  0  0  0  0  0  0  0
   -3.4335   -1.1522    1.0705 C   0  0  0  0  0  0  0  0  0  0  0  0
   -3.7996    0.1096    0.9115 N   0  0  0  0  0  0  0  0  0  0  0  0
   -3.3342    0.8410   -0.1194 C   0  0  0  0  0  0  0  0  0  0  0  0
   -3.7618    2.2365   -0.2642 C   0  0  0  0  0  0  0  0  0  0  0  0
   -3.3221    3.0330   -1.2894 C   0  0  0  0  0  0  0  0  0  0  0  0
   -3.7552    4.3518   -1.3861 C   0  0  0  0  0  0  0  0  0  0  0  0
   -3.2070    5.3917   -2.6889 Cl  0  0  0  0  0  0  0  0  0  0  0  0
   -4.6181    4.8709   -0.4694 C   0  0  0  0  0  0  0  0  0  0  0  0
   -5.0598    4.0568    0.5679 C   0  0  0  0  0  0  0  0  0  0  0  0
   -4.6306    2.7617    0.6575 C   0  0  0  0  0  0  0  0  0  0  0  0
   -5.0723    1.9928    1.6702 F   0  0  0  0  0  0  0  0  0  0  0  0
   -2.4792    0.2282   -0.9799 C   0  0  0  0  0  0  0  0  0  0  0  0
   -2.0532   -1.1077   -0.8641 C   0  0  0  0  0  0  0  0  0  0  0  0
   -1.1711   -1.6679   -1.7779 N   0  0  0  0  0  0  0  0  0  0  0  0
    0.0616   -2.3206   -1.6559 C   0  0  0  0  0  0  0  0  0  0  0  0
    0.0499   -3.6481   -2.1326 C   0  0  0  0  0  0  0  0  0  0  0  0
    1.1357   -4.4646   -2.0980 C   0  0  0  0  0  0  0  0  0  0  0  0
    2.2666   -3.9636   -1.5804 N   0  0  0  0  0  0  0  0  0  0  0  0
    2.3301   -2.7043   -1.1137 C   0  0  0  0  0  0  0  0  0  0  0  0
    1.2282   -1.8560   -1.1428 C   0  0  0  0  0  0  0  0  0  0  0  0
    1.3419   -0.4816   -0.6880 C   0  0  0  0  0  0  0  0  0  0  0  0
    0.4569    0.3572   -0.8472 O   0  0  0  0  0  0  0  0  0  0  0  0
    2.5203   -0.0229   -0.0125 N   0  0  0  0  0  0  0  0  0  0  0  0
    2.6096    1.3732    0.4375 C   0  0  0  0  0  0  0  0  0  0  0  0
    3.9083    1.6463    1.1168 C   0  0  0  0  0  0  0  0  0  0  0  0
    5.0494    1.4151    0.2653 N   0  0  0  0  0  0  0  0  0  0  0  0
    6.4943    1.7613    1.1518 S   0  0  0  0  0  6  0  0  0  0  0  0
    6.4994    3.4701    1.6422 C   0  0  0  0  0  0  0  0  0  0  0  0
    7.6684    1.5545    0.2292 O   0  0  0  0  0  0  0  0  0  0  0  0
    6.6021    0.9283    2.3865 O   0  0  0  0  0  0  0  0  0  0  0  0
   -1.0438   -3.6586    2.2688 H   0  0  0  0  0  0  0  0  0  0  0  0
   -0.4183   -2.2984    1.1999 H   0  0  0  0  0  0  0  0  0  0  0  0
   -0.2542   -4.0089    0.7241 H   0  0  0  0  0  0  0  0  0  0  0  0
   -2.1563   -3.8495   -0.4266 H   0  0  0  0  0  0  0  0  0  0  0  0
   -3.1912   -4.9484    1.3438 H   0  0  0  0  0  0  0  0  0  0  0  0
   -3.0431   -3.5511    2.4698 H   0  0  0  0  0  0  0  0  0  0  0  0
   -4.2849   -3.5646    1.1239 H   0  0  0  0  0  0  0  0  0  0  0  0
   -3.8156   -1.7483    1.9156 H   0  0  0  0  0  0  0  0  0  0  0  0
   -2.6478    2.7043   -2.0463 H   0  0  0  0  0  0  0  0  0  0  0  0
   -4.9805    5.8988   -0.5105 H   0  0  0  0  0  0  0  0  0  0  0  0
   -5.7357    4.4776    1.2786 H   0  0  0  0  0  0  0  0  0  0  0  0
   -2.0941    0.8147   -1.8230 H   0  0  0  0  0  0  0  0  0  0  0  0
   -1.4816   -1.5978   -2.8214 H   0  0  0  0  0  0  0  0  0  0  0  0
   -0.8896   -4.0520   -2.5584 H   0  0  0  0  0  0  0  0  0  0  0  0
    1.1065   -5.5031   -2.4769 H   0  0  0  0  0  0  0  0  0  0  0  0
    3.2676   -2.3402   -0.7057 H   0  0  0  0  0  0  0  0  0  0  0  0
    3.3344   -0.6212    0.1893 H   0  0  0  0  0  0  0  0  0  0  0  0
    2.5703    2.0114   -0.4792 H   0  0  0  0  0  0  0  0  0  0  0  0
    1.7356    1.5819    1.0617 H   0  0  0  0  0  0  0  0  0  0  0  0
    3.9347    2.7101    1.4152 H   0  0  0  0  0  0  0  0  0  0  0  0
    4.0104    1.0622    2.0620 H   0  0  0  0  0  0  0  0  0  0  0  0
    5.0043    2.1071   -0.5151 H   0  0  0  0  0  0  0  0  0  0  0  0
    5.8799    4.0982    0.9986 H   0  0  0  0  0  0  0  0  0  0  0  0
    7.5407    3.8590    1.6000 H   0  0  0  0  0  0  0  0  0  0  0  0
    6.1365    3.5980    2.6953 H   0  0  0  0  0  0  0  0  0  0  0  0
  1  2  1  0
  2  3  1  0
  2  4  1  0
  4  5  2  0
  5  6  1  0
  6  7  2  0
  7  8  1  0
  8  9  2  0
  9 10  1  0
 10 11  1  0
 10 12  2  0
 12 13  1  0
 13 14  2  0
 14 15  1  0
  7 16  1  0
 16 17  2  0
 17 18  1  0
 18 19  1  0
 19 20  2  0
 20 21  1  0
 21 22  2  0
 22 23  1  0
 23 24  2  0
 24 25  1  0
 25 26  2  0
 25 27  1  0
 27 28  1  0
 28 29  1  0
 29 30  1  0
 30 31  1  0
 31 32  1  0
 31 33  2  0
 31 34  2  0
 17  4  1  0
 24 19  1  0
 14  8  1  0
  1 35  1  0
  1 36  1  0
  1 37  1  0
  2 38  1  0
  3 39  1  0
  3 40  1  0
  3 41  1  0
  5 42  1  0
  9 43  1  0
 12 44  1  0
 13 45  1  0
 16 46  1  0
 18 47  1  0
 20 48  1  0
 21 49  1  0
 23 50  1  0
 27 51  1  0
 28 52  1  0
 28 53  1  0
 29 54  1  0
 29 55  1  0
 30 56  1  0
 32 57  1  0
 32 58  1  0
 32 59  1  0
M  END
$$$$
