@<TRIPOS>MOLECULE
*****
 59 61 0 0 0
SMALL
GASTEIGER

@<TRIPOS>ATOM
      1 C          -0.9249   -3.3029    1.2091 C.3     1  UNL1       -0.0585
      2 C          -2.2395   -3.2218    0.4687 C.3     1  UNL1       -0.0183
      3 C          -3.2757   -3.8379    1.4418 C.3     1  UNL1       -0.0585
      4 C          -2.5691   -1.8090    0.2195 C.ar    1  UNL1       -0.0056
      5 C          -3.4335   -1.1522    1.0705 C.ar    1  UNL1        0.0334
      6 N          -3.7996    0.1096    0.9115 N.ar    1  UNL1       -0.2545
      7 C          -3.3342    0.8410   -0.1194 C.ar    1  UNL1        0.0755
      8 C          -3.7618    2.2365   -0.2642 C.ar    1  UNL1        0.0369
      9 C          -3.3221    3.0330   -1.2894 C.ar    1  UNL1       -0.0314
     10 C          -3.7552    4.3518   -1.3861 C.ar    1  UNL1        0.0418
     11 CL         -3.2070    5.3917   -2.6889 Cl      1  UNL1       -0.0835
     12 C          -4.6181    4.8709   -0.4694 C.ar    1  UNL1       -0.0406
     13 C          -5.0598    4.0568    0.5679 C.ar    1  UNL1       -0.0244
     14 C          -4.6306    2.7617    0.6575 C.ar    1  UNL1        0.1326
     15 F          -5.0723    1.9928    1.6702 F       1  UNL1       -0.2048
     16 C          -2.4792    0.2282   -0.9799 C.ar    1  UNL1       -0.0141
     17 C          -2.0532   -1.1077   -0.8641 C.ar    1  UNL1        0.0383
     18 N          -1.1711   -1.6679   -1.7779 N.pl3   1  UNL1       -0.3135
     19 C           0.0616   -2.3206   -1.6559 C.ar    1  UNL1        0.0465
     20 C           0.0499   -3.6481   -2.1326 C.ar    1  UNL1       -0.0217
     21 C           1.1357   -4.4646   -2.0980 C.ar    1  UNL1        0.0293
     22 N           2.2666   -3.9636   -1.5804 N.ar    1  UNL1       -0.2624
     23 C           2.3301   -2.7043   -1.1137 C.ar    1  UNL1        0.0415
     24 C           1.2282   -1.8560   -1.1428 C.ar    1  UNL1        0.0758
     25 C           1.3419   -0.4816   -0.6880 C.2     1  UNL1        0.2474
     26 O           0.4569    0.3572   -0.8472 O.2     1  UNL1       -0.2701
     27 N           2.5203   -0.0229   -0.0125 N.am    1  UNL1       -0.3100
     28 C           2.6096    1.3732    0.4375 C.3     1  UNL1        0.0260
     29 C           3.9083    1.6463    1.1168 C.3     1  UNL1        0.0326
     30 N           5.0494    1.4151    0.2653 N.3     1  UNL1       -0.1933
     31 S           6.4943    1.7613    1.1518 S.O2    1  UNL1        0.0266
     32 C           6.4994    3.4701    1.6422 C.3     1  UNL1        0.0705
     33 O           7.6684    1.5545    0.2292 O.2     1  UNL1       -0.1585
     34 O           6.6021    0.9283    2.3865 O.2     1  UNL1       -0.1585
     35 H          -1.0438   -3.6586    2.2688 H       1  UNL1        0.0235
     36 H          -0.4183   -2.2984    1.1999 H       1  UNL1        0.0235
     37 H          -0.2542   -4.0089    0.7241 H       1  UNL1        0.0235
     38 H          -2.1563   -3.8495   -0.4266 H       1  UNL1        0.0344
     39 H          -3.1912   -4.9484    1.3438 H       1  UNL1        0.0235
     40 H          -3.0431   -3.5511    2.4698 H       1  UNL1        0.0235
     41 H          -4.2849   -3.5646    1.1239 H       1  UNL1        0.0235
     42 H          -3.8156   -1.7483    1.9156 H       1  UNL1        0.0833
     43 H          -2.6478    2.7043   -2.0463 H       1  UNL1        0.0639
     44 H          -4.9805    5.8988   -0.5105 H       1  UNL1        0.0633
     45 H          -5.7357    4.4776    1.2786 H       1  UNL1        0.0647
     46 H          -2.0941    0.8147   -1.8230 H       1  UNL1        0.0658
     47 H          -1.4816   -1.5978   -2.8214 H       1  UNL1        0.1522
     48 H          -0.8896   -4.0520   -2.5584 H       1  UNL1        0.0651
     49 H           1.1065   -5.5031   -2.4769 H       1  UNL1        0.0830
     50 H           3.2676   -2.3402   -0.7057 H       1  UNL1        0.0838
     51 H           3.3344   -0.6212    0.1893 H       1  UNL1        0.1491
     52 H           2.5703    2.0114   -0.4792 H       1  UNL1        0.0475
     53 H           1.7356    1.5819    1.0617 H       1  UNL1        0.0475
     54 H           3.9347    2.7101    1.4152 H       1  UNL1        0.0456
     55 H           4.0104    1.0622    2.0620 H       1  UNL1        0.0456
     56 H           5.0043    2.1071   -0.5151 H       1  UNL1        0.1476
     57 H           5.8799    4.0982    0.9986 H       1  UNL1        0.0479
     58 H           7.5407    3.8590    1.6000 H       1  UNL1        0.0479
     59 H           6.1365    3.5980    2.6953 H       1  UNL1        0.0479
@<TRIPOS>BOND
     1     1     2    1
     2     2     3    1
     3     2     4    1
     4     4     5   ar
     5     5     6   ar
     6     6     7   ar
     7     7     8    1
     8     8     9   ar
     9     9    10   ar
    10    10    11    1
    11    10    12   ar
    12    12    13   ar
    13    13    14   ar
    14    14    15    1
    15     7    16   ar
    16    16    17   ar
    17    17    18    1
    18    18    19    1
    19    19    20   ar
    20    20    21   ar
    21    21    22   ar
    22    22    23   ar
    23    23    24   ar
    24    24    25    1
    25    25    26    2
    26    25    27   am
    27    27    28    1
    28    28    29    1
    29    29    30    1
    30    30    31    1
    31    31    32    1
    32    31    33    2
    33    31    34    2
    34    17     4   ar
    35    24    19   ar
    36    14     8   ar
    37     1    35    1
    38     1    36    1
    39     1    37    1
    40     2    38    1
    41     3    39    1
    42     3    40    1
    43     3    41    1
    44     5    42    1
    45     9    43    1
    46    12    44    1
    47    13    45    1
    48    16    46    1
    49    18    47    1
    50    20    48    1
    51    21    49    1
    52    23    50    1
    53    27    51    1
    54    28    52    1
    55    28    53    1
    56    29    54    1
    57    29    55    1
    58    30    56    1
    59    32    57    1
    60    32    58    1
    61    32    59    1
