
     RDKit          3D

 52 54  0  0  0  0  0  0  0  0999 V2000
    5.8346   -2.0859   -0.9828 C   0  0  0  0  0  0  0  0  0  0  0  0
    5.4419   -0.6578   -0.8412 C   0  0  0  0  0  0  0  0  0  0  0  0
    5.9011    0.2717   -1.7827 C   0  0  0  0  0  0  0  0  0  0  0  0
    5.5319    1.5859   -1.6426 C   0  0  0  0  0  0  0  0  0  0  0  0
    4.7256    2.0147   -0.6059 C   0  0  0  0  0  0  0  0  0  0  0  0
    4.2999    1.0658    0.2931 C   0  0  0  0  0  0  0  0  0  0  0  0
    4.6387   -0.2675    0.2028 C   0  0  0  0  0  0  0  0  0  0  0  0
    4.1875   -1.2778    1.1864 C   0  0  0  0  0  0  0  0  0  0  0  0
    3.1499   -0.7859    2.0119 O   0  0  0  0  0  0  0  0  0  0  0  0
    1.9114   -0.3762    1.5186 C   0  0  0  0  0  0  0  0  0  0  0  0
    1.5797   -0.4220    0.1941 C   0  0  0  0  0  0  0  0  0  0  0  0
    0.3354    0.0013   -0.2210 C   0  0  0  0  0  0  0  0  0  0  0  0
   -0.5594    0.4653    0.7064 C   0  0  0  0  0  0  0  0  0  0  0  0
   -2.1833    1.0151    0.2500 S   0  0  0  0  0  6  0  0  0  0  0  0
   -2.5465    2.0962    1.2163 O   0  0  0  0  0  0  0  0  0  0  0  0
   -2.0866    1.5804   -1.1336 O   0  0  0  0  0  0  0  0  0  0  0  0
   -3.2550   -0.3432    0.3990 C   0  0  2  0  0  0  0  0  0  0  0  0
   -2.7765   -1.5713   -0.3496 C   0  0  0  0  0  0  0  0  0  0  0  0
   -3.2578   -1.5946   -1.7623 C   0  0  0  0  0  0  0  0  0  0  0  0
   -4.6549   -1.4725   -1.8267 O   0  0  0  0  0  0  0  0  0  0  0  0
   -5.0114   -0.2015   -1.3754 C   0  0  0  0  0  0  0  0  0  0  0  0
   -4.6958   -0.1355    0.0929 C   0  0  1  0  0  0  0  0  0  0  0  0
   -5.3495   -1.2596    0.6858 O   0  0  0  0  0  0  0  0  0  0  0  0
   -5.2009    1.0648    0.7528 C   0  0  0  0  0  0  0  0  0  0  0  0
   -5.8635    0.9025    1.8381 O   0  0  0  0  0  0  0  0  0  0  0  0
   -5.0394    2.4033    0.3176 N   0  0  0  0  0  0  0  0  0  0  0  0
   -5.5639    3.4116    1.0422 O   0  0  0  0  0  0  0  0  0  0  0  0
   -0.2416    0.5177    2.0416 C   0  0  0  0  0  0  0  0  0  0  0  0
    0.9998    0.0921    2.4295 C   0  0  0  0  0  0  0  0  0  0  0  0
    5.1291   -2.5356   -1.7274 H   0  0  0  0  0  0  0  0  0  0  0  0
    6.8536   -2.1649   -1.4153 H   0  0  0  0  0  0  0  0  0  0  0  0
    5.7434   -2.6457   -0.0510 H   0  0  0  0  0  0  0  0  0  0  0  0
    6.5261   -0.0912   -2.5780 H   0  0  0  0  0  0  0  0  0  0  0  0
    5.9037    2.2919   -2.3926 H   0  0  0  0  0  0  0  0  0  0  0  0
    4.4749    3.0621   -0.5575 H   0  0  0  0  0  0  0  0  0  0  0  0
    3.6678    1.3570    1.1206 H   0  0  0  0  0  0  0  0  0  0  0  0
    5.0473   -1.5217    1.8428 H   0  0  0  0  0  0  0  0  0  0  0  0
    3.8898   -2.2169    0.6717 H   0  0  0  0  0  0  0  0  0  0  0  0
    2.2850   -0.7938   -0.5396 H   0  0  0  0  0  0  0  0  0  0  0  0
    0.0497   -0.0254   -1.2716 H   0  0  0  0  0  0  0  0  0  0  0  0
   -3.2178   -0.6621    1.4909 H   0  0  0  0  0  0  0  0  0  0  0  0
   -1.6721   -1.6484   -0.3520 H   0  0  0  0  0  0  0  0  0  0  0  0
   -3.2037   -2.4558    0.1646 H   0  0  0  0  0  0  0  0  0  0  0  0
   -2.9978   -2.5874   -2.1842 H   0  0  0  0  0  0  0  0  0  0  0  0
   -2.7788   -0.8087   -2.3588 H   0  0  0  0  0  0  0  0  0  0  0  0
   -4.4397    0.5190   -1.9803 H   0  0  0  0  0  0  0  0  0  0  0  0
   -6.0784   -0.0328   -1.5455 H   0  0  0  0  0  0  0  0  0  0  0  0
   -6.1378   -0.9221    1.1371 H   0  0  0  0  0  0  0  0  0  0  0  0
   -4.5292    2.5731   -0.5620 H   0  0  0  0  0  0  0  0  0  0  0  0
   -5.0352    4.2391    0.8319 H   0  0  0  0  0  0  0  0  0  0  0  0
   -0.9796    0.8964    2.7709 H   0  0  0  0  0  0  0  0  0  0  0  0
    1.2479    0.1367    3.4995 H   0  0  0  0  0  0  0  0  0  0  0  0
  1  2  1  0
  2  3  2  0
  3  4  1  0
  4  5  2  0
  5  6  1  0
  6  7  2  0
  7  8  1  0
  8  9  1  0
  9 10  1  0
 10 11  2  0
 11 12  1  0
 12 13  2  0
 13 14  1  0
 14 15  2  0
 14 16  2  0
 14 17  1  0
 17 18  1  0
 18 19  1  0
 19 20  1  0
 20 21  1  0
 21 22  1  0
 22 23  1  1
 22 24  1  0
 24 25  2  0
 24 26  1  0
 26 27  1  0
 13 28  1  0
 28 29  2  0
  7  2  1  0
 29 10  1  0
 22 17  1  0
  1 30  1  0
  1 31  1  0
  1 32  1  0
  3 33  1  0
  4 34  1  0
  5 35  1  0
  6 36  1  0
  8 37  1  0
  8 38  1  0
 11 39  1  0
 12 40  1  0
 17 41  1  1
 18 42  1  0
 18 43  1  0
 19 44  1  0
 19 45  1  0
 21 46  1  0
 21 47  1  0
 23 48  1  0
 26 49  1  0
 27 50  1  0
 28 51  1  0
 29 52  1  0
M  END
$$$$
