@<TRIPOS>MOLECULE
*****
 52 54 0 0 0
SMALL
GASTEIGER

@<TRIPOS>ATOM
      1 C           5.8346   -2.0859   -0.9828 C.3     1  UNL1       -0.0393
      2 C           5.4419   -0.6578   -0.8412 C.ar    1  UNL1       -0.0441
      3 C           5.9011    0.2717   -1.7827 C.ar    1  UNL1       -0.0585
      4 C           5.5319    1.5859   -1.6426 C.ar    1  UNL1       -0.0615
      5 C           4.7256    2.0147   -0.6059 C.ar    1  UNL1       -0.0614
      6 C           4.2999    1.0658    0.2931 C.ar    1  UNL1       -0.0551
      7 C           4.6387   -0.2675    0.2028 C.ar    1  UNL1       -0.0075
      8 C           4.1875   -1.2778    1.1864 C.3     1  UNL1        0.1149
      9 O           3.1499   -0.7859    2.0119 O.3     1  UNL1       -0.4874
     10 C           1.9114   -0.3762    1.5186 C.ar    1  UNL1        0.1211
     11 C           1.5797   -0.4220    0.1941 C.ar    1  UNL1       -0.0181
     12 C           0.3354    0.0013   -0.2210 C.ar    1  UNL1       -0.0334
     13 C          -0.5594    0.4653    0.7064 C.ar    1  UNL1        0.0888
     14 S          -2.1833    1.0151    0.2500 S.O2    1  UNL1        0.0031
     15 O          -2.5465    2.0962    1.2163 O.2     1  UNL1       -0.1690
     16 O          -2.0866    1.5804   -1.1336 O.2     1  UNL1       -0.1690
     17 C          -3.2550   -0.3432    0.3990 C.3     1  UNL1        0.1234
     18 C          -2.7765   -1.5713   -0.3496 C.3     1  UNL1       -0.0035
     19 C          -3.2578   -1.5946   -1.7623 C.3     1  UNL1        0.0497
     20 O          -4.6549   -1.4725   -1.8267 O.3     1  UNL1       -0.3763
     21 C          -5.0114   -0.2015   -1.3754 C.3     1  UNL1        0.0869
     22 C          -4.6958   -0.1355    0.0929 C.3     1  UNL1        0.1891
     23 O          -5.3495   -1.2596    0.6858 O.3     1  UNL1       -0.3756
     24 C          -5.2009    1.0648    0.7528 C.2     1  UNL1        0.2714
     25 O          -5.8635    0.9025    1.8381 O.2     1  UNL1       -0.2704
     26 N          -5.0394    2.4033    0.3176 N.am    1  UNL1       -0.1950
     27 O          -5.5639    3.4116    1.0422 O.3     1  UNL1       -0.2951
     28 C          -0.2416    0.5177    2.0416 C.ar    1  UNL1       -0.0334
     29 C           0.9998    0.0921    2.4295 C.ar    1  UNL1       -0.0181
     30 H           5.1291   -2.5356   -1.7274 H       1  UNL1        0.0278
     31 H           6.8536   -2.1649   -1.4153 H       1  UNL1        0.0278
     32 H           5.7434   -2.6457   -0.0510 H       1  UNL1        0.0278
     33 H           6.5261   -0.0912   -2.5780 H       1  UNL1        0.0620
     34 H           5.9037    2.2919   -2.3926 H       1  UNL1        0.0618
     35 H           4.4749    3.0621   -0.5575 H       1  UNL1        0.0618
     36 H           3.6678    1.3570    1.1206 H       1  UNL1        0.0621
     37 H           5.0473   -1.5217    1.8428 H       1  UNL1        0.0748
     38 H           3.8898   -2.2169    0.6717 H       1  UNL1        0.0748
     39 H           2.2850   -0.7938   -0.5396 H       1  UNL1        0.0655
     40 H           0.0497   -0.0254   -1.2716 H       1  UNL1        0.0638
     41 H          -3.2178   -0.6621    1.4909 H       1  UNL1        0.0575
     42 H          -1.6721   -1.6484   -0.3520 H       1  UNL1        0.0307
     43 H          -3.2037   -2.4558    0.1646 H       1  UNL1        0.0307
     44 H          -2.9978   -2.5874   -2.1842 H       1  UNL1        0.0560
     45 H          -2.7788   -0.8087   -2.3588 H       1  UNL1        0.0560
     46 H          -4.4397    0.5190   -1.9803 H       1  UNL1        0.0594
     47 H          -6.0784   -0.0328   -1.5455 H       1  UNL1        0.0594
     48 H          -6.1378   -0.9221    1.1371 H       1  UNL1        0.2110
     49 H          -4.5292    2.5731   -0.5620 H       1  UNL1        0.1823
     50 H          -5.0352    4.2391    0.8319 H       1  UNL1        0.2414
     51 H          -0.9796    0.8964    2.7709 H       1  UNL1        0.0638
     52 H           1.2479    0.1367    3.4995 H       1  UNL1        0.0655
@<TRIPOS>BOND
     1     1     2    1
     2     2     3   ar
     3     3     4   ar
     4     4     5   ar
     5     5     6   ar
     6     6     7   ar
     7     7     8    1
     8     8     9    1
     9     9    10    1
    10    10    11   ar
    11    11    12   ar
    12    12    13   ar
    13    13    14    1
    14    14    15    2
    15    14    16    2
    16    14    17    1
    17    17    18    1
    18    18    19    1
    19    19    20    1
    20    20    21    1
    21    21    22    1
    22    22    23    1
    23    22    24    1
    24    24    25    2
    25    24    26   am
    26    26    27    1
    27    13    28   ar
    28    28    29   ar
    29     7     2   ar
    30    29    10   ar
    31    22    17    1
    32     1    30    1
    33     1    31    1
    34     1    32    1
    35     3    33    1
    36     4    34    1
    37     5    35    1
    38     6    36    1
    39     8    37    1
    40     8    38    1
    41    11    39    1
    42    12    40    1
    43    17    41    1
    44    18    42    1
    45    18    43    1
    46    19    44    1
    47    19    45    1
    48    21    46    1
    49    21    47    1
    50    23    48    1
    51    26    49    1
    52    27    50    1
    53    28    51    1
    54    29    52    1
