@<TRIPOS>MOLECULE
*****
 41 43 0 0 0
SMALL
GASTEIGER

@<TRIPOS>ATOM
      1 C          -3.4827   -0.0400    0.0519 C.3     1  UNL1       -0.0354
      2 C          -2.2735   -0.7139   -0.5948 C.3     1  UNL1        0.0897
      3 C          -1.1413    0.2334   -0.7157 C.ar    1  UNL1        0.0154
      4 C           0.0878   -0.0412   -0.1332 C.ar    1  UNL1       -0.0464
      5 C           1.1385    0.8716   -0.2671 C.ar    1  UNL1        0.0021
      6 C           2.4782    0.6412    0.3316 C.3     1  UNL1        0.0253
      7 N           2.6511    1.4588    1.5244 N.3     1  UNL1       -0.2949
      8 C           3.9279    1.2750    2.1376 C.3     1  UNL1        0.1072
      9 C           5.1608    1.5764    1.3808 C.1     1  UNL1        0.0847
     10 N           6.1088    1.8141    0.7757 N.1     1  UNL1       -0.1946
     11 C           4.0117    1.8001    3.5706 C.3     1  UNL1       -0.0188
     12 C           4.1227    0.3381    3.2700 C.3     1  UNL1       -0.0188
     13 C           0.9199    2.0276   -0.9804 C.ar    1  UNL1        0.1305
     14 F           1.9176    2.9096   -1.1160 F       1  UNL1       -0.2051
     15 C          -0.3222    2.2957   -1.5643 C.ar    1  UNL1        0.0095
     16 C          -1.3586    1.3982   -1.4336 C.ar    1  UNL1        0.1316
     17 F          -2.5778    1.6016   -1.9749 F       1  UNL1       -0.2050
     18 C          -1.8614   -1.8628    0.2517 C.3     1  UNL1       -0.0142
     19 C          -2.9308   -2.8715    0.5496 C.3     1  UNL1        0.0034
     20 S          -3.9393   -3.1448   -0.9091 S.3     1  UNL1       -0.0910
     21 C          -3.3319   -2.1245   -2.2267 C.2     1  UNL1        0.1475
     22 N          -3.6786   -2.5111   -3.5553 N.pl3   1  UNL1       -0.3380
     23 N          -2.6249   -1.1058   -1.9489 N.2     1  UNL1       -0.2524
     24 H          -4.4004   -0.2078   -0.5638 H       1  UNL1        0.0256
     25 H          -3.6611   -0.4482    1.0828 H       1  UNL1        0.0256
     26 H          -3.3568    1.0636    0.1129 H       1  UNL1        0.0256
     27 H           0.2948   -0.9309    0.4253 H       1  UNL1        0.0626
     28 H           2.5571   -0.4252    0.6885 H       1  UNL1        0.0475
     29 H           3.3029    0.7652   -0.3918 H       1  UNL1        0.0475
     30 H           2.5158    2.4687    1.2520 H       1  UNL1        0.1237
     31 H           3.0648    2.1552    4.0494 H       1  UNL1        0.0294
     32 H           4.8911    2.3472    3.9085 H       1  UNL1        0.0294
     33 H           5.1070   -0.1140    3.4316 H       1  UNL1        0.0294
     34 H           3.2514   -0.2870    3.5634 H       1  UNL1        0.0294
     35 H          -0.4734    3.2005   -2.1160 H       1  UNL1        0.0675
     36 H          -1.4727   -1.4144    1.2157 H       1  UNL1        0.0300
     37 H          -0.9934   -2.3575   -0.2399 H       1  UNL1        0.0300
     38 H          -3.6061   -2.4694    1.3367 H       1  UNL1        0.0381
     39 H          -2.4194   -3.7997    0.8934 H       1  UNL1        0.0381
     40 H          -4.0952   -1.8753   -4.2671 H       1  UNL1        0.1442
     41 H          -3.5084   -3.4967   -3.8465 H       1  UNL1        0.1442
@<TRIPOS>BOND
     1     2     1    1
     2     2     3    1
     3     3     4   ar
     4     4     5   ar
     5     5     6    1
     6     6     7    1
     7     7     8    1
     8     8     9    1
     9     9    10    3
    10     8    11    1
    11    11    12    1
    12     5    13   ar
    13    13    14    1
    14    13    15   ar
    15    15    16   ar
    16    16    17    1
    17     2    18    1
    18    18    19    1
    19    19    20    1
    20    20    21    1
    21    21    22    1
    22    21    23    2
    23    23     2    1
    24    16     3   ar
    25    12     8    1
    26     1    24    1
    27     1    25    1
    28     1    26    1
    29     4    27    1
    30     6    28    1
    31     6    29    1
    32     7    30    1
    33    11    31    1
    34    11    32    1
    35    12    33    1
    36    12    34    1
    37    15    35    1
    38    18    36    1
    39    18    37    1
    40    19    38    1
    41    19    39    1
    42    22    40    1
    43    22    41    1
