@<TRIPOS>MOLECULE
*****
 55 58 0 0 0
SMALL
GASTEIGER

@<TRIPOS>ATOM
      1 N          -3.7354    0.1727    7.3331 N.1     1  UNL1       -0.1909
      2 C          -3.8606   -0.0935    6.1580 C.1     1  UNL1        0.0992
      3 C          -3.9816   -0.4048    4.7891 C.ar    1  UNL1        0.0519
      4 C          -4.2028   -1.7274    4.4492 C.ar    1  UNL1       -0.0426
      5 C          -4.4209   -2.1133    3.1746 C.ar    1  UNL1       -0.0392
      6 C          -4.4268   -1.1608    2.1156 C.ar    1  UNL1        0.0348
      7 N          -4.6968   -1.5384    0.7851 N.am    1  UNL1       -0.2695
      8 C          -3.7129   -1.9521   -0.1467 C.2     1  UNL1        0.3041
      9 O          -2.5044   -2.0018    0.2063 O.2     1  UNL1       -0.2525
     10 N          -4.0257   -2.3247   -1.5018 N.am    1  UNL1       -0.2950
     11 C          -3.0453   -2.7338   -2.4583 C.3     1  UNL1        0.0383
     12 C          -2.3354   -1.5807   -3.0419 C.ar    1  UNL1       -0.0296
     13 C          -2.8845   -1.0267   -4.2101 C.ar    1  UNL1       -0.0570
     14 C          -2.2494    0.0218   -4.8292 C.ar    1  UNL1       -0.0607
     15 C          -1.0857    0.5486   -4.3336 C.ar    1  UNL1       -0.0496
     16 C          -0.5148    0.0323   -3.1860 C.ar    1  UNL1        0.0373
     17 C           0.7125    0.5802   -2.6796 C.2     1  UNL1        0.2483
     18 O           1.5665    1.0936   -3.4085 O.2     1  UNL1       -0.2699
     19 N           1.0191    0.5666   -1.2674 N.am    1  UNL1       -0.2815
     20 C           2.2171    1.0976   -0.7331 C.ar    1  UNL1        0.0340
     21 C           2.3773    2.4481   -0.4619 C.ar    1  UNL1       -0.0402
     22 C           3.5432    2.9210    0.0978 C.ar    1  UNL1       -0.0565
     23 C           4.5762    2.0841    0.4024 C.ar    1  UNL1       -0.0417
     24 C           4.4572    0.7429    0.1496 C.ar    1  UNL1       -0.0286
     25 C           3.2776    0.2738   -0.4156 C.ar    1  UNL1       -0.0358
     26 C           5.5727   -0.1397    0.5091 C.3     1  UNL1        0.0216
     27 N           6.8001    0.5677    0.2354 N.3     1  UNL1       -0.3117
     28 C           6.9673    1.7693    1.0008 C.3     1  UNL1        0.0002
     29 C           5.7974    2.6969    1.0014 C.3     1  UNL1       -0.0148
     30 C          -1.1667   -1.0346   -2.5622 C.ar    1  UNL1       -0.0449
     31 C          -4.2030    0.1174    2.4825 C.ar    1  UNL1       -0.0392
     32 C          -3.9799    0.5334    3.7896 C.ar    1  UNL1       -0.0426
     33 H          -4.1960   -2.4783    5.2651 H       1  UNL1        0.0631
     34 H          -4.5935   -3.1374    2.9189 H       1  UNL1        0.0636
     35 H          -5.6945   -1.5339    0.4023 H       1  UNL1        0.1564
     36 H          -5.0548   -2.2775   -1.7354 H       1  UNL1        0.1506
     37 H          -2.2885   -3.3737   -1.9319 H       1  UNL1        0.0512
     38 H          -3.5578   -3.3395   -3.2520 H       1  UNL1        0.0512
     39 H          -3.8119   -1.4395   -4.6094 H       1  UNL1        0.0621
     40 H          -2.6737    0.4589   -5.7273 H       1  UNL1        0.0618
     41 H          -0.6214    1.3718   -4.8535 H       1  UNL1        0.0625
     42 H           0.3214    0.1541   -0.6431 H       1  UNL1        0.1551
     43 H           1.5611    3.1028   -0.7095 H       1  UNL1        0.0636
     44 H           3.6576    3.9917    0.3113 H       1  UNL1        0.0621
     45 H           3.1971   -0.8062   -0.6140 H       1  UNL1        0.0639
     46 H           5.5632   -1.0698   -0.1002 H       1  UNL1        0.0474
     47 H           5.5089   -0.4087    1.5955 H       1  UNL1        0.0474
     48 H           6.8372    0.8072   -0.7769 H       1  UNL1        0.1223
     49 H           7.3129    1.5627    2.0461 H       1  UNL1        0.0427
     50 H           7.8462    2.3231    0.5367 H       1  UNL1        0.0427
     51 H           5.5590    3.0452    2.0310 H       1  UNL1        0.0326
     52 H           6.0189    3.6147    0.4104 H       1  UNL1        0.0326
     53 H          -0.7304   -1.4456   -1.6786 H       1  UNL1        0.0628
     54 H          -4.2038    0.8837    1.6949 H       1  UNL1        0.0636
     55 H          -3.8083    1.5585    4.0281 H       1  UNL1        0.0631
@<TRIPOS>BOND
     1     1     2    3
     2     2     3    1
     3     3     4   ar
     4     4     5   ar
     5     5     6   ar
     6     6     7    1
     7     7     8   am
     8     8     9    2
     9     8    10   am
    10    10    11    1
    11    11    12    1
    12    12    13   ar
    13    13    14   ar
    14    14    15   ar
    15    15    16   ar
    16    16    17    1
    17    17    18    2
    18    17    19   am
    19    19    20    1
    20    20    21   ar
    21    21    22   ar
    22    22    23   ar
    23    23    24   ar
    24    24    25   ar
    25    24    26    1
    26    26    27    1
    27    27    28    1
    28    28    29    1
    29    16    30   ar
    30     6    31   ar
    31    31    32   ar
    32    32     3   ar
    33    30    12   ar
    34    25    20   ar
    35    29    23    1
    36     4    33    1
    37     5    34    1
    38     7    35    1
    39    10    36    1
    40    11    37    1
    41    11    38    1
    42    13    39    1
    43    14    40    1
    44    15    41    1
    45    19    42    1
    46    21    43    1
    47    22    44    1
    48    25    45    1
    49    26    46    1
    50    26    47    1
    51    27    48    1
    52    28    49    1
    53    28    50    1
    54    29    51    1
    55    29    52    1
    56    30    53    1
    57    31    54    1
    58    32    55    1
