
     RDKit          3D

 55 58  0  0  0  0  0  0  0  0999 V2000
   -3.7354    0.1727    7.3331 N   0  0  0  0  0  0  0  0  0  0  0  0
   -3.8606   -0.0935    6.1580 C   0  0  0  0  0  0  0  0  0  0  0  0
   -3.9816   -0.4048    4.7891 C   0  0  0  0  0  0  0  0  0  0  0  0
   -4.2028   -1.7274    4.4492 C   0  0  0  0  0  0  0  0  0  0  0  0
   -4.4209   -2.1133    3.1746 C   0  0  0  0  0  0  0  0  0  0  0  0
   -4.4268   -1.1608    2.1156 C   0  0  0  0  0  0  0  0  0  0  0  0
   -4.6968   -1.5384    0.7851 N   0  0  0  0  0  0  0  0  0  0  0  0
   -3.7129   -1.9521   -0.1467 C   0  0  0  0  0  0  0  0  0  0  0  0
   -2.5044   -2.0018    0.2063 O   0  0  0  0  0  0  0  0  0  0  0  0
   -4.0257   -2.3247   -1.5018 N   0  0  0  0  0  0  0  0  0  0  0  0
   -3.0453   -2.7338   -2.4583 C   0  0  0  0  0  0  0  0  0  0  0  0
   -2.3354   -1.5807   -3.0419 C   0  0  0  0  0  0  0  0  0  0  0  0
   -2.8845   -1.0267   -4.2101 C   0  0  0  0  0  0  0  0  0  0  0  0
   -2.2494    0.0218   -4.8292 C   0  0  0  0  0  0  0  0  0  0  0  0
   -1.0857    0.5486   -4.3336 C   0  0  0  0  0  0  0  0  0  0  0  0
   -0.5148    0.0323   -3.1860 C   0  0  0  0  0  0  0  0  0  0  0  0
    0.7125    0.5802   -2.6796 C   0  0  0  0  0  0  0  0  0  0  0  0
    1.5665    1.0936   -3.4085 O   0  0  0  0  0  0  0  0  0  0  0  0
    1.0191    0.5666   -1.2674 N   0  0  0  0  0  0  0  0  0  0  0  0
    2.2171    1.0976   -0.7331 C   0  0  0  0  0  0  0  0  0  0  0  0
    2.3773    2.4481   -0.4619 C   0  0  0  0  0  0  0  0  0  0  0  0
    3.5432    2.9210    0.0978 C   0  0  0  0  0  0  0  0  0  0  0  0
    4.5762    2.0841    0.4024 C   0  0  0  0  0  0  0  0  0  0  0  0
    4.4572    0.7429    0.1496 C   0  0  0  0  0  0  0  0  0  0  0  0
    3.2776    0.2738   -0.4156 C   0  0  0  0  0  0  0  0  0  0  0  0
    5.5727   -0.1397    0.5091 C   0  0  0  0  0  0  0  0  0  0  0  0
    6.8001    0.5677    0.2354 N   0  0  0  0  0  0  0  0  0  0  0  0
    6.9673    1.7693    1.0008 C   0  0  0  0  0  0  0  0  0  0  0  0
    5.7974    2.6969    1.0014 C   0  0  0  0  0  0  0  0  0  0  0  0
   -1.1667   -1.0346   -2.5622 C   0  0  0  0  0  0  0  0  0  0  0  0
   -4.2030    0.1174    2.4825 C   0  0  0  0  0  0  0  0  0  0  0  0
   -3.9799    0.5334    3.7896 C   0  0  0  0  0  0  0  0  0  0  0  0
   -4.1960   -2.4783    5.2651 H   0  0  0  0  0  0  0  0  0  0  0  0
   -4.5935   -3.1374    2.9189 H   0  0  0  0  0  0  0  0  0  0  0  0
   -5.6945   -1.5339    0.4023 H   0  0  0  0  0  0  0  0  0  0  0  0
   -5.0548   -2.2775   -1.7354 H   0  0  0  0  0  0  0  0  0  0  0  0
   -2.2885   -3.3737   -1.9319 H   0  0  0  0  0  0  0  0  0  0  0  0
   -3.5578   -3.3395   -3.2520 H   0  0  0  0  0  0  0  0  0  0  0  0
   -3.8119   -1.4395   -4.6094 H   0  0  0  0  0  0  0  0  0  0  0  0
   -2.6737    0.4589   -5.7273 H   0  0  0  0  0  0  0  0  0  0  0  0
   -0.6214    1.3718   -4.8535 H   0  0  0  0  0  0  0  0  0  0  0  0
    0.3214    0.1541   -0.6431 H   0  0  0  0  0  0  0  0  0  0  0  0
    1.5611    3.1028   -0.7095 H   0  0  0  0  0  0  0  0  0  0  0  0
    3.6576    3.9917    0.3113 H   0  0  0  0  0  0  0  0  0  0  0  0
    3.1971   -0.8062   -0.6140 H   0  0  0  0  0  0  0  0  0  0  0  0
    5.5632   -1.0698   -0.1002 H   0  0  0  0  0  0  0  0  0  0  0  0
    5.5089   -0.4087    1.5955 H   0  0  0  0  0  0  0  0  0  0  0  0
    6.8372    0.8072   -0.7769 H   0  0  0  0  0  0  0  0  0  0  0  0
    7.3129    1.5627    2.0461 H   0  0  0  0  0  0  0  0  0  0  0  0
    7.8462    2.3231    0.5367 H   0  0  0  0  0  0  0  0  0  0  0  0
    5.5590    3.0452    2.0310 H   0  0  0  0  0  0  0  0  0  0  0  0
    6.0189    3.6147    0.4104 H   0  0  0  0  0  0  0  0  0  0  0  0
   -0.7304   -1.4456   -1.6786 H   0  0  0  0  0  0  0  0  0  0  0  0
   -4.2038    0.8837    1.6949 H   0  0  0  0  0  0  0  0  0  0  0  0
   -3.8083    1.5585    4.0281 H   0  0  0  0  0  0  0  0  0  0  0  0
  1  2  3  0
  2  3  1  0
  3  4  2  0
  4  5  1  0
  5  6  2  0
  6  7  1  0
  7  8  1  0
  8  9  2  0
  8 10  1  0
 10 11  1  0
 11 12  1  0
 12 13  2  0
 13 14  1  0
 14 15  2  0
 15 16  1  0
 16 17  1  0
 17 18  2  0
 17 19  1  0
 19 20  1  0
 20 21  2  0
 21 22  1  0
 22 23  2  0
 23 24  1  0
 24 25  2  0
 24 26  1  0
 26 27  1  0
 27 28  1  0
 28 29  1  0
 16 30  2  0
  6 31  1  0
 31 32  2  0
 32  3  1  0
 30 12  1  0
 25 20  1  0
 29 23  1  0
  4 33  1  0
  5 34  1  0
  7 35  1  0
 10 36  1  0
 11 37  1  0
 11 38  1  0
 13 39  1  0
 14 40  1  0
 15 41  1  0
 19 42  1  0
 21 43  1  0
 22 44  1  0
 25 45  1  0
 26 46  1  0
 26 47  1  0
 27 48  1  0
 28 49  1  0
 28 50  1  0
 29 51  1  0
 29 52  1  0
 30 53  1  0
 31 54  1  0
 32 55  1  0
M  END
$$$$
