@<TRIPOS>MOLECULE
*****
 45 46 0 0 0
SMALL
GASTEIGER

@<TRIPOS>ATOM
      1 C          -2.5362    1.5757    2.5156 C.3     1  UNL1       -0.0613
      2 C          -2.5925    1.8095    1.0431 C.3     1  UNL1       -0.0303
      3 C          -1.6888    0.9115    0.2639 C.ar    1  UNL1       -0.0439
      4 C          -0.4796    1.3846   -0.2602 C.ar    1  UNL1       -0.0548
      5 C           0.3718    0.5832   -0.9783 C.ar    1  UNL1       -0.0424
      6 C           1.6297    1.1177   -1.4969 C.3     1  UNL1        0.0023
      7 C           2.8318    0.8146   -0.7394 C.ar    1  UNL1        0.0146
      8 C           3.7068   -0.1660   -1.1826 C.ar    1  UNL1        0.0379
      9 N           4.8124   -0.4401   -0.4685 N.ar    1  UNL1       -0.2227
     10 C           5.1305    0.1962    0.6816 C.ar    1  UNL1        0.2142
     11 N           6.3144   -0.1502    1.3765 N.pl3   1  UNL1       -0.3274
     12 N           4.2849    1.1499    1.1173 N.ar    1  UNL1       -0.1999
     13 C           3.1516    1.4592    0.4224 C.ar    1  UNL1        0.1247
     14 N           2.2862    2.4705    0.9022 N.pl3   1  UNL1       -0.3428
     15 C           0.0620   -0.7390   -1.2137 C.ar    1  UNL1       -0.0548
     16 C          -1.1245   -1.2250   -0.7061 C.ar    1  UNL1       -0.0439
     17 C          -1.5334   -2.6452   -0.9126 C.3     1  UNL1       -0.0303
     18 C          -0.4823   -3.3620   -1.7506 C.3     1  UNL1       -0.0613
     19 C          -1.9879   -0.4150    0.0213 C.ar    1  UNL1       -0.0413
     20 C          -3.2548   -0.9612    0.5490 C.3     1  UNL1       -0.0300
     21 C          -4.3971   -0.4842   -0.3147 C.3     1  UNL1       -0.0612
     22 H          -1.9304    0.7212    2.8371 H       1  UNL1        0.0233
     23 H          -2.1087    2.4724    3.0545 H       1  UNL1        0.0233
     24 H          -3.5941    1.5205    2.9034 H       1  UNL1        0.0233
     25 H          -3.6420    1.7795    0.6368 H       1  UNL1        0.0311
     26 H          -2.2633    2.8676    0.8412 H       1  UNL1        0.0311
     27 H          -0.3001    2.4331   -0.0448 H       1  UNL1        0.0623
     28 H           1.5344    2.2286   -1.7026 H       1  UNL1        0.0363
     29 H           1.7494    0.6936   -2.5395 H       1  UNL1        0.0363
     30 H           3.4950   -0.7089   -2.1051 H       1  UNL1        0.0834
     31 H           6.8603   -0.9705    1.0459 H       1  UNL1        0.1452
     32 H           6.6557    0.3823    2.2009 H       1  UNL1        0.1452
     33 H           1.5751    2.2097    1.6108 H       1  UNL1        0.1437
     34 H           2.3122    3.4611    0.5937 H       1  UNL1        0.1437
     35 H           0.7156   -1.4004   -1.7794 H       1  UNL1        0.0623
     36 H          -2.4833   -2.6554   -1.4766 H       1  UNL1        0.0311
     37 H          -1.5797   -3.2009    0.0424 H       1  UNL1        0.0311
     38 H          -0.8914   -4.4040   -1.8999 H       1  UNL1        0.0233
     39 H          -0.3729   -2.9104   -2.7539 H       1  UNL1        0.0233
     40 H           0.4813   -3.4392   -1.2258 H       1  UNL1        0.0233
     41 H          -3.4008   -0.7337    1.6250 H       1  UNL1        0.0311
     42 H          -3.2110   -2.0640    0.4617 H       1  UNL1        0.0311
     43 H          -4.0369    0.1985   -1.1197 H       1  UNL1        0.0233
     44 H          -4.8755   -1.3362   -0.8687 H       1  UNL1        0.0233
     45 H          -5.1940   -0.0292    0.2930 H       1  UNL1        0.0233
@<TRIPOS>BOND
     1     1     2    1
     2     2     3    1
     3     3     4   ar
     4     4     5   ar
     5     5     6    1
     6     6     7    1
     7     7     8   ar
     8     8     9   ar
     9     9    10   ar
    10    10    11    1
    11    10    12   ar
    12    12    13   ar
    13    13    14    1
    14     5    15   ar
    15    15    16   ar
    16    16    17    1
    17    17    18    1
    18    16    19   ar
    19    19    20    1
    20    20    21    1
    21    19     3   ar
    22    13     7   ar
    23     1    22    1
    24     1    23    1
    25     1    24    1
    26     2    25    1
    27     2    26    1
    28     4    27    1
    29     6    28    1
    30     6    29    1
    31     8    30    1
    32    11    31    1
    33    11    32    1
    34    14    33    1
    35    14    34    1
    36    15    35    1
    37    17    36    1
    38    17    37    1
    39    18    38    1
    40    18    39    1
    41    18    40    1
    42    20    41    1
    43    20    42    1
    44    21    43    1
    45    21    44    1
    46    21    45    1
