@<TRIPOS>MOLECULE
*****
 68 71 0 0 0
SMALL
GASTEIGER

@<TRIPOS>ATOM
      1 C          10.0744   -2.4431   -0.6657 C.3     1  UNL1       -0.0306
      2 C          10.5107   -0.9958   -0.5298 C.3     1  UNL1        0.0884
      3 O           9.7452   -0.3257    0.4597 O.3     1  UNL1       -0.4766
      4 C           8.3689   -0.2177    0.3403 C.ar    1  UNL1        0.2147
      5 C           7.6171    0.4276    1.2904 C.ar    1  UNL1        0.0003
      6 C           6.2495    0.5475    1.1943 C.ar    1  UNL1       -0.0494
      7 C           5.6352   -0.0161    0.0819 C.ar    1  UNL1        0.0022
      8 C           4.1627    0.0653   -0.0971 C.3     1  UNL1        0.0924
      9 O           3.5025   -0.5116    0.9930 O.3     1  UNL1       -0.3839
     10 C           3.7770   -0.5967   -1.3804 C.3     1  UNL1       -0.0184
     11 C           2.2725   -0.5927   -1.5941 C.3     1  UNL1       -0.0344
     12 C           1.6882    0.6379   -0.9212 C.3     1  UNL1        0.0107
     13 N           0.4573    1.0447   -1.5726 N.3     1  UNL1       -0.2958
     14 C          -0.5672    0.0171   -1.5542 C.3     1  UNL1        0.0189
     15 C          -1.5147    1.0741   -0.9697 C.3     1  UNL1        0.0486
     16 N          -2.2367    0.4994    0.1379 N.am    1  UNL1       -0.3087
     17 C          -3.6515    0.4353    0.2192 C.2     1  UNL1        0.2305
     18 O          -4.3132    0.9086   -0.7324 O.2     1  UNL1       -0.2741
     19 C          -4.3695   -0.1601    1.3677 C.3     1  UNL1        0.0884
     20 N          -5.8050   -0.0507    1.1029 N.am    1  UNL1       -0.3028
     21 C          -6.7698   -0.5357    2.0254 C.2     1  UNL1        0.2445
     22 O          -6.3301   -1.0633    3.0817 O.2     1  UNL1       -0.2702
     23 C          -8.2076   -0.4599    1.8243 C.ar    1  UNL1        0.0372
     24 C          -9.0689   -0.9569    2.7908 C.ar    1  UNL1       -0.0496
     25 C         -10.4391   -0.9180    2.6647 C.ar    1  UNL1       -0.0605
     26 C         -11.0285   -0.3635    1.5322 C.ar    1  UNL1       -0.0501
     27 C         -10.1859    0.1325    0.5673 C.ar    1  UNL1        0.0555
     28 C         -10.7788    0.7318   -0.6538 C.3     1  UNL1        0.4174
     29 F         -10.4580    0.0143   -1.7913 F       1  UNL1       -0.1659
     30 F         -10.2612    2.0064   -0.7799 F       1  UNL1       -0.1659
     31 F         -12.1396    0.8679   -0.5191 F       1  UNL1       -0.1659
     32 C          -8.8080    0.0847    0.7114 C.ar    1  UNL1       -0.0380
     33 C          -0.3139    1.8993   -0.6550 C.3     1  UNL1        0.0189
     34 C           2.6916    1.7586   -1.0883 C.3     1  UNL1       -0.0344
     35 C           3.7909    1.5378   -0.0761 C.3     1  UNL1       -0.0184
     36 C           6.3856   -0.6612   -0.8682 C.ar    1  UNL1        0.0373
     37 N           7.7328   -0.7436   -0.7112 N.ar    1  UNL1       -0.2210
     38 H           9.9255   -2.8906    0.3377 H       1  UNL1        0.0262
     39 H           9.1797   -2.5402   -1.3014 H       1  UNL1        0.0262
     40 H          10.8781   -3.0280   -1.1575 H       1  UNL1        0.0262
     41 H          10.3633   -0.4575   -1.4823 H       1  UNL1        0.0694
     42 H          11.5617   -0.9136   -0.2310 H       1  UNL1        0.0694
     43 H           8.1504    0.8461    2.1329 H       1  UNL1        0.0671
     44 H           5.6463    1.0458    1.9227 H       1  UNL1        0.0623
     45 H           3.3208   -1.4745    0.8591 H       1  UNL1        0.2106
     46 H           4.3056   -0.1052   -2.2165 H       1  UNL1        0.0297
     47 H           4.0754   -1.6550   -1.3420 H       1  UNL1        0.0297
     48 H           1.7887   -1.5242   -1.2752 H       1  UNL1        0.0281
     49 H           2.0887   -0.4683   -2.6805 H       1  UNL1        0.0281
     50 H           1.5449    0.4447    0.1473 H       1  UNL1        0.0462
     51 H          -0.3115   -0.7642   -0.8111 H       1  UNL1        0.0445
     52 H          -0.8738   -0.3821   -2.5256 H       1  UNL1        0.0445
     53 H          -2.1069    1.4880   -1.7819 H       1  UNL1        0.0523
     54 H          -1.7068    0.0987    0.9424 H       1  UNL1        0.1491
     55 H          -4.0856    0.4258    2.2658 H       1  UNL1        0.0558
     56 H          -4.0790   -1.2036    1.5612 H       1  UNL1        0.0558
     57 H          -6.1657    0.3878    0.2258 H       1  UNL1        0.1495
     58 H          -8.6123   -1.3952    3.6846 H       1  UNL1        0.0625
     59 H         -11.1146   -1.3043    3.4154 H       1  UNL1        0.0618
     60 H         -12.1063   -0.3423    1.4521 H       1  UNL1        0.0623
     61 H          -8.1492    0.4831   -0.0639 H       1  UNL1        0.0631
     62 H          -0.3296    2.9292   -1.0950 H       1  UNL1        0.0445
     63 H           0.0401    1.8706    0.3917 H       1  UNL1        0.0445
     64 H           2.2222    2.7553   -0.9938 H       1  UNL1        0.0281
     65 H           3.1274    1.6842   -2.1140 H       1  UNL1        0.0281
     66 H           4.6575    2.1837   -0.2635 H       1  UNL1        0.0297
     67 H           3.3786    1.8454    0.9235 H       1  UNL1        0.0297
     68 H           5.9718   -1.1184   -1.7484 H       1  UNL1        0.0834
@<TRIPOS>BOND
     1     1     2    1
     2     2     3    1
     3     3     4    1
     4     4     5   ar
     5     5     6   ar
     6     6     7   ar
     7     7     8    1
     8     8     9    1
     9     8    10    1
    10    10    11    1
    11    11    12    1
    12    12    13    1
    13    13    14    1
    14    14    15    1
    15    15    16    1
    16    16    17   am
    17    17    18    2
    18    17    19    1
    19    19    20    1
    20    20    21   am
    21    21    22    2
    22    21    23    1
    23    23    24   ar
    24    24    25   ar
    25    25    26   ar
    26    26    27   ar
    27    27    28    1
    28    28    29    1
    29    28    30    1
    30    28    31    1
    31    27    32   ar
    32    15    33    1
    33    12    34    1
    34    34    35    1
    35     7    36   ar
    36    36    37   ar
    37    37     4   ar
    38    35     8    1
    39    33    13    1
    40    32    23   ar
    41     1    38    1
    42     1    39    1
    43     1    40    1
    44     2    41    1
    45     2    42    1
    46     5    43    1
    47     6    44    1
    48     9    45    1
    49    10    46    1
    50    10    47    1
    51    11    48    1
    52    11    49    1
    53    12    50    1
    54    14    51    1
    55    14    52    1
    56    15    53    1
    57    16    54    1
    58    19    55    1
    59    19    56    1
    60    20    57    1
    61    24    58    1
    62    25    59    1
    63    26    60    1
    64    32    61    1
    65    33    62    1
    66    33    63    1
    67    34    64    1
    68    34    65    1
    69    35    66    1
    70    35    67    1
    71    36    68    1
