
     RDKit          3D

 68 71  0  0  0  0  0  0  0  0999 V2000
   10.0744   -2.4431   -0.6657 C   0  0  0  0  0  0  0  0  0  0  0  0
   10.5107   -0.9958   -0.5298 C   0  0  0  0  0  0  0  0  0  0  0  0
    9.7452   -0.3257    0.4597 O   0  0  0  0  0  0  0  0  0  0  0  0
    8.3689   -0.2177    0.3403 C   0  0  0  0  0  0  0  0  0  0  0  0
    7.6171    0.4276    1.2904 C   0  0  0  0  0  0  0  0  0  0  0  0
    6.2495    0.5475    1.1943 C   0  0  0  0  0  0  0  0  0  0  0  0
    5.6352   -0.0161    0.0819 C   0  0  0  0  0  0  0  0  0  0  0  0
    4.1627    0.0653   -0.0971 C   0  0  2  0  0  0  0  0  0  0  0  0
    3.5025   -0.5116    0.9930 O   0  0  0  0  0  0  0  0  0  0  0  0
    3.7770   -0.5967   -1.3804 C   0  0  0  0  0  0  0  0  0  0  0  0
    2.2725   -0.5927   -1.5941 C   0  0  0  0  0  0  0  0  0  0  0  0
    1.6882    0.6379   -0.9212 C   0  0  2  0  0  0  0  0  0  0  0  0
    0.4573    1.0447   -1.5726 N   0  0  0  0  0  0  0  0  0  0  0  0
   -0.5672    0.0171   -1.5542 C   0  0  0  0  0  0  0  0  0  0  0  0
   -1.5147    1.0741   -0.9697 C   0  0  0  0  0  0  0  0  0  0  0  0
   -2.2367    0.4994    0.1379 N   0  0  0  0  0  0  0  0  0  0  0  0
   -3.6515    0.4353    0.2192 C   0  0  0  0  0  0  0  0  0  0  0  0
   -4.3132    0.9086   -0.7324 O   0  0  0  0  0  0  0  0  0  0  0  0
   -4.3695   -0.1601    1.3677 C   0  0  0  0  0  0  0  0  0  0  0  0
   -5.8050   -0.0507    1.1029 N   0  0  0  0  0  0  0  0  0  0  0  0
   -6.7698   -0.5357    2.0254 C   0  0  0  0  0  0  0  0  0  0  0  0
   -6.3301   -1.0633    3.0817 O   0  0  0  0  0  0  0  0  0  0  0  0
   -8.2076   -0.4599    1.8243 C   0  0  0  0  0  0  0  0  0  0  0  0
   -9.0689   -0.9569    2.7908 C   0  0  0  0  0  0  0  0  0  0  0  0
  -10.4391   -0.9180    2.6647 C   0  0  0  0  0  0  0  0  0  0  0  0
  -11.0285   -0.3635    1.5322 C   0  0  0  0  0  0  0  0  0  0  0  0
  -10.1859    0.1325    0.5673 C   0  0  0  0  0  0  0  0  0  0  0  0
  -10.7788    0.7318   -0.6538 C   0  0  0  0  0  0  0  0  0  0  0  0
  -10.4580    0.0143   -1.7913 F   0  0  0  0  0  0  0  0  0  0  0  0
  -10.2612    2.0064   -0.7799 F   0  0  0  0  0  0  0  0  0  0  0  0
  -12.1396    0.8679   -0.5191 F   0  0  0  0  0  0  0  0  0  0  0  0
   -8.8080    0.0847    0.7114 C   0  0  0  0  0  0  0  0  0  0  0  0
   -0.3139    1.8993   -0.6550 C   0  0  0  0  0  0  0  0  0  0  0  0
    2.6916    1.7586   -1.0883 C   0  0  0  0  0  0  0  0  0  0  0  0
    3.7909    1.5378   -0.0761 C   0  0  0  0  0  0  0  0  0  0  0  0
    6.3856   -0.6612   -0.8682 C   0  0  0  0  0  0  0  0  0  0  0  0
    7.7328   -0.7436   -0.7112 N   0  0  0  0  0  0  0  0  0  0  0  0
    9.9255   -2.8906    0.3377 H   0  0  0  0  0  0  0  0  0  0  0  0
    9.1797   -2.5402   -1.3014 H   0  0  0  0  0  0  0  0  0  0  0  0
   10.8781   -3.0280   -1.1575 H   0  0  0  0  0  0  0  0  0  0  0  0
   10.3633   -0.4575   -1.4823 H   0  0  0  0  0  0  0  0  0  0  0  0
   11.5617   -0.9136   -0.2310 H   0  0  0  0  0  0  0  0  0  0  0  0
    8.1504    0.8461    2.1329 H   0  0  0  0  0  0  0  0  0  0  0  0
    5.6463    1.0458    1.9227 H   0  0  0  0  0  0  0  0  0  0  0  0
    3.3208   -1.4745    0.8591 H   0  0  0  0  0  0  0  0  0  0  0  0
    4.3056   -0.1052   -2.2165 H   0  0  0  0  0  0  0  0  0  0  0  0
    4.0754   -1.6550   -1.3420 H   0  0  0  0  0  0  0  0  0  0  0  0
    1.7887   -1.5242   -1.2752 H   0  0  0  0  0  0  0  0  0  0  0  0
    2.0887   -0.4683   -2.6805 H   0  0  0  0  0  0  0  0  0  0  0  0
    1.5449    0.4447    0.1473 H   0  0  0  0  0  0  0  0  0  0  0  0
   -0.3115   -0.7642   -0.8111 H   0  0  0  0  0  0  0  0  0  0  0  0
   -0.8738   -0.3821   -2.5256 H   0  0  0  0  0  0  0  0  0  0  0  0
   -2.1069    1.4880   -1.7819 H   0  0  0  0  0  0  0  0  0  0  0  0
   -1.7068    0.0987    0.9424 H   0  0  0  0  0  0  0  0  0  0  0  0
   -4.0856    0.4258    2.2658 H   0  0  0  0  0  0  0  0  0  0  0  0
   -4.0790   -1.2036    1.5612 H   0  0  0  0  0  0  0  0  0  0  0  0
   -6.1657    0.3878    0.2258 H   0  0  0  0  0  0  0  0  0  0  0  0
   -8.6123   -1.3952    3.6846 H   0  0  0  0  0  0  0  0  0  0  0  0
  -11.1146   -1.3043    3.4154 H   0  0  0  0  0  0  0  0  0  0  0  0
  -12.1063   -0.3423    1.4521 H   0  0  0  0  0  0  0  0  0  0  0  0
   -8.1492    0.4831   -0.0639 H   0  0  0  0  0  0  0  0  0  0  0  0
   -0.3296    2.9292   -1.0950 H   0  0  0  0  0  0  0  0  0  0  0  0
    0.0401    1.8706    0.3917 H   0  0  0  0  0  0  0  0  0  0  0  0
    2.2222    2.7553   -0.9938 H   0  0  0  0  0  0  0  0  0  0  0  0
    3.1274    1.6842   -2.1140 H   0  0  0  0  0  0  0  0  0  0  0  0
    4.6575    2.1837   -0.2635 H   0  0  0  0  0  0  0  0  0  0  0  0
    3.3786    1.8454    0.9235 H   0  0  0  0  0  0  0  0  0  0  0  0
    5.9718   -1.1184   -1.7484 H   0  0  0  0  0  0  0  0  0  0  0  0
  1  2  1  0
  2  3  1  0
  3  4  1  0
  4  5  2  0
  5  6  1  0
  6  7  2  0
  7  8  1  0
  8  9  1  1
  8 10  1  0
 10 11  1  0
 11 12  1  0
 12 13  1  0
 13 14  1  0
 14 15  1  0
 15 16  1  0
 16 17  1  0
 17 18  2  0
 17 19  1  0
 19 20  1  0
 20 21  1  0
 21 22  2  0
 21 23  1  0
 23 24  2  0
 24 25  1  0
 25 26  2  0
 26 27  1  0
 27 28  1  0
 28 29  1  0
 28 30  1  0
 28 31  1  0
 27 32  2  0
 15 33  1  0
 12 34  1  0
 34 35  1  0
  7 36  1  0
 36 37  2  0
 37  4  1  0
 35  8  1  0
 33 13  1  0
 32 23  1  0
  1 38  1  0
  1 39  1  0
  1 40  1  0
  2 41  1  0
  2 42  1  0
  5 43  1  0
  6 44  1  0
  9 45  1  0
 10 46  1  0
 10 47  1  0
 11 48  1  0
 11 49  1  0
 12 50  1  1
 14 51  1  0
 14 52  1  0
 15 53  1  0
 16 54  1  0
 19 55  1  0
 19 56  1  0
 20 57  1  0
 24 58  1  0
 25 59  1  0
 26 60  1  0
 32 61  1  0
 33 62  1  0
 33 63  1  0
 34 64  1  0
 34 65  1  0
 35 66  1  0
 35 67  1  0
 36 68  1  0
M  END
$$$$
