@<TRIPOS>MOLECULE
*****
 42 43 0 0 0
SMALL
GASTEIGER

@<TRIPOS>ATOM
      1 C          -2.2672   -3.0203   -1.2467 C.3     1  UNL1        0.0790
      2 O          -2.6154   -1.7055   -0.9360 O.3     1  UNL1       -0.4913
      3 C          -1.7466   -0.8154   -0.3089 C.ar    1  UNL1        0.1654
      4 C          -0.4595   -1.2503    0.0305 C.ar    1  UNL1       -0.0126
      5 C           0.4331   -0.4095    0.6499 C.ar    1  UNL1       -0.0358
      6 C           1.7679   -0.8698    0.9988 C.3     1  UNL1        0.0025
      7 C           2.7571   -0.6407   -0.0873 C.ar    1  UNL1        0.0146
      8 C           2.4400   -0.0566   -1.2913 C.ar    1  UNL1        0.0379
      9 N           3.3941    0.1168   -2.2270 N.ar    1  UNL1       -0.2227
     10 C           4.6738   -0.2577   -2.0488 C.ar    1  UNL1        0.2142
     11 N           5.6564   -0.0561   -3.0667 N.pl3   1  UNL1       -0.3274
     12 N           4.9842   -0.8293   -0.8707 N.ar    1  UNL1       -0.1999
     13 C           4.0655   -1.0289    0.1073 C.ar    1  UNL1        0.1247
     14 N           4.4218   -1.6387    1.3501 N.pl3   1  UNL1       -0.3428
     15 C           0.0360    0.8741    0.9316 C.ar    1  UNL1       -0.0126
     16 C          -1.2418    1.3336    0.6040 C.ar    1  UNL1        0.1654
     17 O          -1.6096    2.6342    0.9025 O.3     1  UNL1       -0.4913
     18 C          -0.6929    3.4923    1.5369 C.3     1  UNL1        0.0790
     19 C          -2.1280    0.4770   -0.0184 C.ar    1  UNL1        0.2038
     20 O          -3.3824    0.9491   -0.3329 O.3     1  UNL1       -0.4840
     21 C          -4.4893    0.8613    0.5451 C.3     1  UNL1        0.1033
     22 C          -5.7271    1.4530   -0.0538 C.3     1  UNL1        0.0567
     23 CL         -7.0544    1.2934    1.1235 Cl      1  UNL1       -0.1219
     24 H          -3.0195   -3.4041   -1.9804 H       1  UNL1        0.0660
     25 H          -1.2751   -3.0213   -1.7430 H       1  UNL1        0.0660
     26 H          -2.1836   -3.6862   -0.3627 H       1  UNL1        0.0660
     27 H          -0.1688   -2.2689   -0.2023 H       1  UNL1        0.0658
     28 H           1.8090   -1.9730    1.2183 H       1  UNL1        0.0363
     29 H           2.1605   -0.3751    1.9350 H       1  UNL1        0.0363
     30 H           1.4122    0.2470   -1.4409 H       1  UNL1        0.0834
     31 H           6.6179    0.3177   -2.8416 H       1  UNL1        0.1452
     32 H           5.4749   -0.2653   -4.0681 H       1  UNL1        0.1452
     33 H           4.7423   -2.6264    1.3658 H       1  UNL1        0.1437
     34 H           4.3588   -1.0907    2.2354 H       1  UNL1        0.1437
     35 H           0.6950    1.5951    1.4227 H       1  UNL1        0.0658
     36 H           0.2178    3.5170    0.8934 H       1  UNL1        0.0660
     37 H          -1.1094    4.4959    1.6979 H       1  UNL1        0.0660
     38 H          -0.3779    2.9915    2.4858 H       1  UNL1        0.0660
     39 H          -4.2543    1.4258    1.4707 H       1  UNL1        0.0708
     40 H          -4.6734   -0.1865    0.8008 H       1  UNL1        0.0708
     41 H          -6.0456    0.8985   -0.9738 H       1  UNL1        0.0463
     42 H          -5.5963    2.5031   -0.3715 H       1  UNL1        0.0463
@<TRIPOS>BOND
     1     1     2    1
     2     2     3    1
     3     3     4   ar
     4     4     5   ar
     5     5     6    1
     6     6     7    1
     7     7     8   ar
     8     8     9   ar
     9     9    10   ar
    10    10    11    1
    11    10    12   ar
    12    12    13   ar
    13    13    14    1
    14     5    15   ar
    15    15    16   ar
    16    16    17    1
    17    17    18    1
    18    16    19   ar
    19    19    20    1
    20    20    21    1
    21    21    22    1
    22    22    23    1
    23    19     3   ar
    24    13     7   ar
    25     1    24    1
    26     1    25    1
    27     1    26    1
    28     4    27    1
    29     6    28    1
    30     6    29    1
    31     8    30    1
    32    11    31    1
    33    11    32    1
    34    14    33    1
    35    14    34    1
    36    15    35    1
    37    18    36    1
    38    18    37    1
    39    18    38    1
    40    21    39    1
    41    21    40    1
    42    22    41    1
    43    22    42    1
