
     RDKit          3D

 53 53  0  0  0  0  0  0  0  0999 V2000
    0.0000    0.0000    0.0000 Br  0  0  0  0  0 15  0  0  0  0  0  0
    5.1441   -2.0272   -0.5786 C   0  0  0  0  0  0  0  0  0  0  0  0
    3.8073   -2.1398   -1.2223 C   0  0  0  0  0  0  0  0  0  0  0  0
    2.7248   -1.4916   -0.4675 C   0  0  0  0  0  0  0  0  0  0  0  0
    2.6944   -0.0441   -0.2335 C   0  0  0  0  0  0  0  0  0  0  0  0
    3.8304    0.5257    0.5083 C   0  0  0  0  0  0  0  0  0  0  0  0
    3.7043    2.0301    0.7349 C   0  0  0  0  0  0  0  0  0  0  0  0
    3.6227    2.8317   -0.5134 C   0  0  0  0  0  0  0  0  0  0  0  0
    1.3949    0.2334    0.5098 C   0  0  0  0  0  0  0  0  0  0  0  0
    1.1455    0.7360    1.6403 O   0  0  0  0  0  0  0  0  0  0  0  0
    0.2361   -0.1425   -0.1975 O   0  0  0  0  0  0  0  0  0  0  0  0
   -1.0547    0.0486    0.3552 C   0  0  0  0  0  0  0  0  0  0  0  0
   -1.7659   -1.2711    0.4572 C   0  0  0  0  0  0  0  0  0  0  0  0
   -3.2313   -1.0159    0.7067 C   0  0  0  0  0  0  0  0  0  0  0  0
   -3.3135   -0.0665    1.9083 C   0  0  0  0  0  0  0  0  0  0  0  0
   -3.2918    1.3080    1.3163 C   0  0  0  0  0  0  0  0  0  0  0  0
   -3.2283    1.0736   -0.1802 C   0  0  0  0  0  0  0  0  0  0  0  0
   -1.7673    1.0079   -0.5688 C   0  0  0  0  0  0  0  0  0  0  0  0
   -3.8479   -0.2119   -0.3237 N   0  0  0  0  0  4  0  0  0  0  0  0
   -3.7223   -0.7798   -1.6471 C   0  0  0  0  0  0  0  0  0  0  0  0
   -5.2546   -0.1063   -0.0288 C   0  0  0  0  0  0  0  0  0  0  0  0
    5.8373   -1.3425   -1.0966 H   0  0  0  0  0  0  0  0  0  0  0  0
    5.0965   -1.7809    0.4981 H   0  0  0  0  0  0  0  0  0  0  0  0
    5.6956   -3.0284   -0.6225 H   0  0  0  0  0  0  0  0  0  0  0  0
    3.5864   -3.2554   -1.2676 H   0  0  0  0  0  0  0  0  0  0  0  0
    3.8267   -1.8611   -2.3074 H   0  0  0  0  0  0  0  0  0  0  0  0
    1.7261   -1.7576   -0.9743 H   0  0  0  0  0  0  0  0  0  0  0  0
    2.5883   -2.0073    0.5305 H   0  0  0  0  0  0  0  0  0  0  0  0
    2.5877    0.4303   -1.2709 H   0  0  0  0  0  0  0  0  0  0  0  0
    4.7462    0.4180   -0.1204 H   0  0  0  0  0  0  0  0  0  0  0  0
    3.9431    0.0510    1.4805 H   0  0  0  0  0  0  0  0  0  0  0  0
    2.8900    2.2818    1.4487 H   0  0  0  0  0  0  0  0  0  0  0  0
    4.6442    2.3297    1.2536 H   0  0  0  0  0  0  0  0  0  0  0  0
    3.0902    3.7977   -0.2675 H   0  0  0  0  0  0  0  0  0  0  0  0
    4.6270    3.1481   -0.8876 H   0  0  0  0  0  0  0  0  0  0  0  0
    3.0601    2.4102   -1.3416 H   0  0  0  0  0  0  0  0  0  0  0  0
   -0.9782    0.5088    1.3589 H   0  0  0  0  0  0  0  0  0  0  0  0
   -1.3837   -1.7955    1.3594 H   0  0  0  0  0  0  0  0  0  0  0  0
   -1.5867   -1.9347   -0.4043 H   0  0  0  0  0  0  0  0  0  0  0  0
   -3.7749   -1.9516    0.8924 H   0  0  0  0  0  0  0  0  0  0  0  0
   -2.4606   -0.2167    2.5762 H   0  0  0  0  0  0  0  0  0  0  0  0
   -4.2413   -0.2877    2.4666 H   0  0  0  0  0  0  0  0  0  0  0  0
   -2.4265    1.9228    1.6363 H   0  0  0  0  0  0  0  0  0  0  0  0
   -4.2106    1.9002    1.5084 H   0  0  0  0  0  0  0  0  0  0  0  0
   -3.6843    1.8682   -0.7748 H   0  0  0  0  0  0  0  0  0  0  0  0
   -1.6349    0.6280   -1.5976 H   0  0  0  0  0  0  0  0  0  0  0  0
   -1.3012    1.9948   -0.4691 H   0  0  0  0  0  0  0  0  0  0  0  0
   -4.0616    0.0072   -2.3537 H   0  0  0  0  0  0  0  0  0  0  0  0
   -4.4563   -1.6289   -1.6727 H   0  0  0  0  0  0  0  0  0  0  0  0
   -2.7129   -1.0993   -1.9164 H   0  0  0  0  0  0  0  0  0  0  0  0
   -5.4533    0.3776    0.9586 H   0  0  0  0  0  0  0  0  0  0  0  0
   -5.6951   -1.1263    0.0469 H   0  0  0  0  0  0  0  0  0  0  0  0
   -5.7104    0.5015   -0.8458 H   0  0  0  0  0  0  0  0  0  0  0  0
  2  3  1  0
  3  4  1  0
  4  5  1  0
  5  6  1  0
  6  7  1  0
  7  8  1  0
  5  9  1  0
  9 10  2  0
  9 11  1  0
 11 12  1  0
 12 13  1  0
 13 14  1  0
 14 15  1  0
 15 16  1  0
 16 17  1  0
 17 18  1  0
 17 19  1  0
 19 20  1  0
 19 21  1  0
 18 12  1  0
 19 14  1  0
  2 22  1  0
  2 23  1  0
  2 24  1  0
  3 25  1  0
  3 26  1  0
  4 27  1  0
  4 28  1  0
  5 29  1  0
  6 30  1  0
  6 31  1  0
  7 32  1  0
  7 33  1  0
  8 34  1  0
  8 35  1  0
  8 36  1  0
 12 37  1  0
 13 38  1  0
 13 39  1  0
 14 40  1  0
 15 41  1  0
 15 42  1  0
 16 43  1  0
 16 44  1  0
 17 45  1  0
 18 46  1  0
 18 47  1  0
 20 48  1  0
 20 49  1  0
 20 50  1  0
 21 51  1  0
 21 52  1  0
 21 53  1  0
M  CHG  2   1  -1  19   1
M  END
$$$$
