
     RDKit          3D

 59 61  0  0  0  0  0  0  0  0999 V2000
   -8.6274    1.7205   -1.6009 C   0  0  0  0  0  0  0  0  0  0  0  0
   -9.0204    0.5377   -0.9292 O   0  0  0  0  0  0  0  0  0  0  0  0
   -8.1088   -0.3061   -0.3149 C   0  0  0  0  0  0  0  0  0  0  0  0
   -6.7397   -0.0567   -0.3108 C   0  0  0  0  0  0  0  0  0  0  0  0
   -5.8477   -0.9042    0.3035 C   0  0  0  0  0  0  0  0  0  0  0  0
   -4.4031   -0.6713    0.3261 C   0  0  0  0  0  0  0  0  0  0  0  0
   -3.8290    0.3686   -0.2380 C   0  0  0  0  0  0  0  0  0  0  0  0
   -2.3927    0.6313   -0.2344 C   0  0  0  0  0  0  0  0  0  0  0  0
   -1.9377    1.6625   -0.8065 O   0  0  0  0  0  0  0  0  0  0  0  0
   -1.4455   -0.2266    0.3914 N   0  0  0  0  0  0  0  0  0  0  0  0
   -0.0128    0.0945    0.3592 C   0  0  0  0  0  0  0  0  0  0  0  0
    0.7050   -0.9863    1.0933 C   0  0  0  0  0  0  0  0  0  0  0  0
    2.2029   -0.7864    1.1430 C   0  0  0  0  0  0  0  0  0  0  0  0
    2.4712    0.5131    1.8336 C   0  0  0  0  0  0  0  0  0  0  0  0
    3.1582    1.5191    0.9163 C   0  0  0  0  0  0  0  0  0  0  0  0
    4.3655    0.8474    0.4758 N   0  0  0  0  0  0  0  0  0  0  0  0
    5.4109    1.7409    0.1067 C   0  0  0  0  0  0  0  0  0  0  0  0
    6.5910    0.9499   -0.3287 C   0  0  0  0  0  0  0  0  0  0  0  0
    6.7900    0.5884   -1.6500 C   0  0  0  0  0  0  0  0  0  0  0  0
    7.8569   -0.1350   -2.0874 C   0  0  0  0  0  0  0  0  0  0  0  0
    8.8068   -0.5398   -1.1672 C   0  0  0  0  0  0  0  0  0  0  0  0
    8.6450   -0.1993    0.1617 C   0  0  0  0  0  0  0  0  0  0  0  0
    7.5590    0.5340    0.5904 C   0  0  0  0  0  0  0  0  0  0  0  0
    3.9941   -0.0954   -0.5186 C   0  0  0  0  0  0  0  0  0  0  0  0
    2.8662   -0.9763   -0.1624 C   0  0  0  0  0  0  0  0  0  0  0  0
   -6.3376   -2.0469    0.9400 C   0  0  0  0  0  0  0  0  0  0  0  0
   -7.6834   -2.3058    0.9443 C   0  0  0  0  0  0  0  0  0  0  0  0
   -8.5582   -1.4279    0.3136 C   0  0  0  0  0  0  0  0  0  0  0  0
   -9.9205   -1.6899    0.3179 O   0  0  0  0  0  0  0  0  0  0  0  0
   -8.0226    1.5027   -2.5175 H   0  0  0  0  0  0  0  0  0  0  0  0
   -7.9958    2.3543   -0.9570 H   0  0  0  0  0  0  0  0  0  0  0  0
   -9.5438    2.2195   -1.9553 H   0  0  0  0  0  0  0  0  0  0  0  0
   -6.4115    0.8325   -0.8122 H   0  0  0  0  0  0  0  0  0  0  0  0
   -3.7780   -1.3950    0.8346 H   0  0  0  0  0  0  0  0  0  0  0  0
   -4.4469    1.1023   -0.7518 H   0  0  0  0  0  0  0  0  0  0  0  0
   -1.8053   -1.0773    0.8651 H   0  0  0  0  0  0  0  0  0  0  0  0
    0.0773    1.0915    0.8355 H   0  0  0  0  0  0  0  0  0  0  0  0
    0.3552    0.1399   -0.6787 H   0  0  0  0  0  0  0  0  0  0  0  0
    0.5340   -1.9382    0.5440 H   0  0  0  0  0  0  0  0  0  0  0  0
    0.3172   -1.1201    2.1233 H   0  0  0  0  0  0  0  0  0  0  0  0
    2.5802   -1.6045    1.8286 H   0  0  0  0  0  0  0  0  0  0  0  0
    3.1560    0.3833    2.6974 H   0  0  0  0  0  0  0  0  0  0  0  0
    1.5450    0.9637    2.2461 H   0  0  0  0  0  0  0  0  0  0  0  0
    2.5363    1.6916    0.0072 H   0  0  0  0  0  0  0  0  0  0  0  0
    3.3458    2.4260    1.4936 H   0  0  0  0  0  0  0  0  0  0  0  0
    5.6760    2.4773    0.8681 H   0  0  0  0  0  0  0  0  0  0  0  0
    5.0662    2.2891   -0.8110 H   0  0  0  0  0  0  0  0  0  0  0  0
    6.0045    0.9362   -2.3398 H   0  0  0  0  0  0  0  0  0  0  0  0
    7.9119   -0.3611   -3.1434 H   0  0  0  0  0  0  0  0  0  0  0  0
    9.6551   -1.1161   -1.5212 H   0  0  0  0  0  0  0  0  0  0  0  0
    9.4186   -0.5378    0.8622 H   0  0  0  0  0  0  0  0  0  0  0  0
    7.4507    0.7909    1.6387 H   0  0  0  0  0  0  0  0  0  0  0  0
    4.9183   -0.7019   -0.7536 H   0  0  0  0  0  0  0  0  0  0  0  0
    3.8149    0.4793   -1.4709 H   0  0  0  0  0  0  0  0  0  0  0  0
    3.2015   -2.0494   -0.3008 H   0  0  0  0  0  0  0  0  0  0  0  0
    2.0857   -0.8733   -0.9752 H   0  0  0  0  0  0  0  0  0  0  0  0
   -5.6501   -2.7157    1.4229 H   0  0  0  0  0  0  0  0  0  0  0  0
   -8.0558   -3.2044    1.4463 H   0  0  0  0  0  0  0  0  0  0  0  0
  -10.4989   -1.3393   -0.4588 H   0  0  0  0  0  0  0  0  0  0  0  0
  1  2  1  0
  2  3  1  0
  3  4  2  0
  4  5  1  0
  5  6  1  0
  6  7  2  0
  7  8  1  0
  8  9  2  0
  8 10  1  0
 10 11  1  0
 11 12  1  0
 12 13  1  0
 13 14  1  0
 14 15  1  0
 15 16  1  0
 16 17  1  0
 17 18  1  0
 18 19  2  0
 19 20  1  0
 20 21  2  0
 21 22  1  0
 22 23  2  0
 16 24  1  0
 24 25  1  0
  5 26  2  0
 26 27  1  0
 27 28  2  0
 28 29  1  0
 28  3  1  0
 25 13  1  0
 23 18  1  0
  1 30  1  0
  1 31  1  0
  1 32  1  0
  4 33  1  0
  6 34  1  0
  7 35  1  0
 10 36  1  0
 11 37  1  0
 11 38  1  0
 12 39  1  0
 12 40  1  0
 13 41  1  0
 14 42  1  0
 14 43  1  0
 15 44  1  0
 15 45  1  0
 17 46  1  0
 17 47  1  0
 19 48  1  0
 20 49  1  0
 21 50  1  0
 22 51  1  0
 23 52  1  0
 24 53  1  0
 24 54  1  0
 25 55  1  0
 25 56  1  0
 26 57  1  0
 27 58  1  0
 29 59  1  0
M  END
$$$$
