@<TRIPOS>MOLECULE
*****
 59 61 0 0 0
SMALL
GASTEIGER

@<TRIPOS>ATOM
      1 C          -8.6274    1.7205   -1.6009 C.3     1  UNL1        0.0790
      2 O          -9.0204    0.5377   -0.9292 O.3     1  UNL1       -0.4914
      3 C          -8.1088   -0.3061   -0.3149 C.ar    1  UNL1        0.1618
      4 C          -6.7397   -0.0567   -0.3108 C.ar    1  UNL1       -0.0092
      5 C          -5.8477   -0.9042    0.3035 C.ar    1  UNL1       -0.0212
      6 C          -4.4031   -0.6713    0.3261 C.2     1  UNL1       -0.0496
      7 C          -3.8290    0.3686   -0.2380 C.2     1  UNL1        0.0007
      8 C          -2.3927    0.6313   -0.2344 C.2     1  UNL1        0.2369
      9 O          -1.9377    1.6625   -0.8065 O.2     1  UNL1       -0.2708
     10 N          -1.4455   -0.2266    0.3914 N.am    1  UNL1       -0.3118
     11 C          -0.0128    0.0945    0.3592 C.3     1  UNL1        0.0121
     12 C           0.7050   -0.9863    1.0933 C.3     1  UNL1       -0.0345
     13 C           2.2029   -0.7864    1.1430 C.3     1  UNL1       -0.0373
     14 C           2.4712    0.5131    1.8336 C.3     1  UNL1       -0.0373
     15 C           3.1582    1.5191    0.9163 C.3     1  UNL1       -0.0005
     16 N           4.3655    0.8474    0.4758 N.3     1  UNL1       -0.2981
     17 C           5.4109    1.7409    0.1067 C.3     1  UNL1        0.0240
     18 C           6.5910    0.9499   -0.3287 C.ar    1  UNL1       -0.0334
     19 C           6.7900    0.5884   -1.6500 C.ar    1  UNL1       -0.0573
     20 C           7.8569   -0.1350   -2.0874 C.ar    1  UNL1       -0.0615
     21 C           8.8068   -0.5398   -1.1672 C.ar    1  UNL1       -0.0617
     22 C           8.6450   -0.1993    0.1617 C.ar    1  UNL1       -0.0615
     23 C           7.5590    0.5340    0.5904 C.ar    1  UNL1       -0.0573
     24 C           3.9941   -0.0954   -0.5186 C.3     1  UNL1       -0.0005
     25 C           2.8662   -0.9763   -0.1624 C.3     1  UNL1       -0.0373
     26 C          -6.3376   -2.0469    0.9400 C.ar    1  UNL1       -0.0509
     27 C          -7.6834   -2.3058    0.9443 C.ar    1  UNL1       -0.0160
     28 C          -8.5582   -1.4279    0.3136 C.ar    1  UNL1        0.1585
     29 O          -9.9205   -1.6899    0.3179 O.3     1  UNL1       -0.5033
     30 H          -8.0226    1.5027   -2.5175 H       1  UNL1        0.0660
     31 H          -7.9958    2.3543   -0.9570 H       1  UNL1        0.0660
     32 H          -9.5438    2.2195   -1.9553 H       1  UNL1        0.0660
     33 H          -6.4115    0.8325   -0.8122 H       1  UNL1        0.0661
     34 H          -3.7780   -1.3950    0.8346 H       1  UNL1        0.0625
     35 H          -4.4469    1.1023   -0.7518 H       1  UNL1        0.0669
     36 H          -1.8053   -1.0773    0.8651 H       1  UNL1        0.1490
     37 H           0.0773    1.0915    0.8355 H       1  UNL1        0.0462
     38 H           0.3552    0.1399   -0.6787 H       1  UNL1        0.0462
     39 H           0.5340   -1.9382    0.5440 H       1  UNL1        0.0283
     40 H           0.3172   -1.1201    2.1233 H       1  UNL1        0.0283
     41 H           2.5802   -1.6045    1.8286 H       1  UNL1        0.0302
     42 H           3.1560    0.3833    2.6974 H       1  UNL1        0.0280
     43 H           1.5450    0.9637    2.2461 H       1  UNL1        0.0280
     44 H           2.5363    1.6916    0.0072 H       1  UNL1        0.0427
     45 H           3.3458    2.4260    1.4936 H       1  UNL1        0.0427
     46 H           5.6760    2.4773    0.8681 H       1  UNL1        0.0476
     47 H           5.0662    2.2891   -0.8110 H       1  UNL1        0.0476
     48 H           6.0045    0.9362   -2.3398 H       1  UNL1        0.0621
     49 H           7.9119   -0.3611   -3.1434 H       1  UNL1        0.0618
     50 H           9.6551   -1.1161   -1.5212 H       1  UNL1        0.0618
     51 H           9.4186   -0.5378    0.8622 H       1  UNL1        0.0618
     52 H           7.4507    0.7909    1.6387 H       1  UNL1        0.0621
     53 H           4.9183   -0.7019   -0.7536 H       1  UNL1        0.0427
     54 H           3.8149    0.4793   -1.4709 H       1  UNL1        0.0427
     55 H           3.2015   -2.0494   -0.3008 H       1  UNL1        0.0280
     56 H           2.0857   -0.8733   -0.9752 H       1  UNL1        0.0280
     57 H          -5.6501   -2.7157    1.4229 H       1  UNL1        0.0625
     58 H          -8.0558   -3.2044    1.4463 H       1  UNL1        0.0655
     59 H         -10.4989   -1.3393   -0.4588 H       1  UNL1        0.2923
@<TRIPOS>BOND
     1     1     2    1
     2     2     3    1
     3     3     4   ar
     4     4     5   ar
     5     5     6    1
     6     6     7    2
     7     7     8    1
     8     8     9    2
     9     8    10   am
    10    10    11    1
    11    11    12    1
    12    12    13    1
    13    13    14    1
    14    14    15    1
    15    15    16    1
    16    16    17    1
    17    17    18    1
    18    18    19   ar
    19    19    20   ar
    20    20    21   ar
    21    21    22   ar
    22    22    23   ar
    23    16    24    1
    24    24    25    1
    25     5    26   ar
    26    26    27   ar
    27    27    28   ar
    28    28    29    1
    29    28     3   ar
    30    25    13    1
    31    23    18   ar
    32     1    30    1
    33     1    31    1
    34     1    32    1
    35     4    33    1
    36     6    34    1
    37     7    35    1
    38    10    36    1
    39    11    37    1
    40    11    38    1
    41    12    39    1
    42    12    40    1
    43    13    41    1
    44    14    42    1
    45    14    43    1
    46    15    44    1
    47    15    45    1
    48    17    46    1
    49    17    47    1
    50    19    48    1
    51    20    49    1
    52    21    50    1
    53    22    51    1
    54    23    52    1
    55    24    53    1
    56    24    54    1
    57    25    55    1
    58    25    56    1
    59    26    57    1
    60    27    58    1
    61    29    59    1
