@<TRIPOS>MOLECULE
*****
 8 7 0 0 0
SMALL
GASTEIGER

@<TRIPOS>ATOM
      1 N          -1.1103    0.3352    0.1131 N.am    1  UNL1       -0.3135
      2 C          -0.0514   -0.4707   -0.4197 C.2     1  UNL1        0.2945
      3 N           1.1609   -0.0256    0.1658 N.am    1  UNL1       -0.3135
      4 O          -0.3271   -1.3561   -1.2381 O.2     1  UNL1       -0.2533
      5 H          -1.1758    1.3289   -0.2549 H       1  UNL1        0.1465
      6 H          -1.7442   -0.0805    0.8137 H       1  UNL1        0.1465
      7 H           1.4033   -0.3554    1.1438 H       1  UNL1        0.1465
      8 H           1.8445    0.6242   -0.3237 H       1  UNL1        0.1465
@<TRIPOS>BOND
     1     1     2   am
     2     2     3   am
     3     2     4    2
     4     1     5    1
     5     1     6    1
     6     3     7    1
     7     3     8    1
