@<TRIPOS>MOLECULE
*****
 34 36 0 0 0
SMALL
GASTEIGER

@<TRIPOS>ATOM
      1 O          -0.9743   -0.7526   -1.8092 O.3     1  UNL1       -0.3802
      2 C          -0.0259   -0.5852   -0.7285 C.3     1  UNL1        0.1323
      3 C           1.2330   -1.0552   -1.3473 C.3     1  UNL1        0.0780
      4 N           2.4404   -1.0426   -0.6077 N.ar    1  UNL1       -0.2489
      5 C           3.4014   -0.0849   -0.5312 C.ar    1  UNL1        0.1144
      6 N           4.4178   -0.4574    0.3006 N.ar    1  UNL1       -0.2228
      7 C           4.0662   -1.6812    0.7460 C.ar    1  UNL1        0.1379
      8 N           2.8931   -1.9989    0.1912 N.ar    1  UNL1       -0.1583
      9 C          -0.4895   -1.5696    0.3184 C.3     1  UNL1        0.0780
     10 N          -1.8486   -1.3030    0.7756 N.ar    1  UNL1       -0.2489
     11 C          -2.9784   -1.8079    0.2398 C.ar    1  UNL1        0.1144
     12 N          -4.0283   -1.3222    0.9457 N.ar    1  UNL1       -0.2228
     13 C          -3.5071   -0.5290    1.8991 C.ar    1  UNL1        0.1379
     14 N          -2.1523   -0.5140    1.7973 N.ar    1  UNL1       -0.1583
     15 C          -0.1741    0.8031   -0.3472 C.ar    1  UNL1        0.0228
     16 C           0.4688    1.4828    0.6753 C.ar    1  UNL1        0.1321
     17 F           1.2814    0.7787    1.4848 F       1  UNL1       -0.2050
     18 C           0.3509    2.7978    1.0009 C.ar    1  UNL1        0.0092
     19 C          -0.4916    3.5956    0.2653 C.ar    1  UNL1        0.1261
     20 F          -0.6580    4.8950    0.5263 F       1  UNL1       -0.2054
     21 C          -1.1959    3.0451   -0.7830 C.ar    1  UNL1       -0.0259
     22 C          -1.0086    1.7041   -1.0350 C.ar    1  UNL1       -0.0503
     23 H          -1.1965   -1.7171   -1.8743 H       1  UNL1        0.2108
     24 H           1.3547   -0.6304   -2.3890 H       1  UNL1        0.0542
     25 H           1.0427   -2.1509   -1.5947 H       1  UNL1        0.0542
     26 H           3.2870    0.8392   -1.1030 H       1  UNL1        0.1044
     27 H           4.6174   -2.3162    1.4318 H       1  UNL1        0.1065
     28 H          -0.5059   -2.5662   -0.2116 H       1  UNL1        0.0542
     29 H           0.1476   -1.5902    1.2086 H       1  UNL1        0.0542
     30 H          -3.0858   -2.4924   -0.6136 H       1  UNL1        0.1044
     31 H          -4.1029    0.0019    2.6214 H       1  UNL1        0.1065
     32 H           0.8800    3.2673    1.8083 H       1  UNL1        0.0675
     33 H          -1.8609    3.6377   -1.3759 H       1  UNL1        0.0646
     34 H          -1.5978    1.3184   -1.8852 H       1  UNL1        0.0623
@<TRIPOS>BOND
     1     1     2    1
     2     2     3    1
     3     3     4    1
     4     4     5   ar
     5     5     6   ar
     6     6     7   ar
     7     7     8   ar
     8     2     9    1
     9     9    10    1
    10    10    11   ar
    11    11    12   ar
    12    12    13   ar
    13    13    14   ar
    14     2    15    1
    15    15    16   ar
    16    16    17    1
    17    16    18   ar
    18    18    19   ar
    19    19    20    1
    20    19    21   ar
    21    21    22   ar
    22     8     4   ar
    23    14    10   ar
    24    22    15   ar
    25     1    23    1
    26     3    24    1
    27     3    25    1
    28     5    26    1
    29     7    27    1
    30     9    28    1
    31     9    29    1
    32    11    30    1
    33    13    31    1
    34    18    32    1
    35    21    33    1
    36    22    34    1
