@<TRIPOS>MOLECULE
*****
 27 29 0 0 0
SMALL
GASTEIGER

@<TRIPOS>ATOM
      1 O          -5.7889   -0.2436   -0.0974 O.3     1  UNL1       -0.5068
      2 C          -4.4137   -0.1394   -0.1309 C.ar    1  UNL1        0.1169
      3 C          -3.7162    0.7924   -0.8668 C.ar    1  UNL1       -0.0195
      4 C          -2.3522    0.8214   -0.8392 C.ar    1  UNL1       -0.0476
      5 C          -1.6658   -0.0909   -0.0672 C.ar    1  UNL1        0.0175
      6 C          -2.3661   -1.0385    0.6816 C.ar    1  UNL1       -0.0476
      7 C          -3.7622   -1.0696    0.6545 C.ar    1  UNL1       -0.0195
      8 C          -0.1973   -0.1138    0.0068 C.ar    1  UNL1        0.1362
      9 C           0.6360    0.7596   -0.6763 C.ar    1  UNL1       -0.0080
     10 C           1.9421    0.3940   -0.3281 C.ar    1  UNL1        0.0242
     11 C           1.8175   -0.6726    0.5397 C.ar    1  UNL1        0.1359
     12 O           0.5534   -0.9251    0.6986 O.2     1  UNL1       -0.4548
     13 C           2.9682   -1.2362    1.0440 C.ar    1  UNL1       -0.0153
     14 C           4.2149   -0.7470    0.6907 C.ar    1  UNL1       -0.0167
     15 C           4.2927    0.3325   -0.1894 C.ar    1  UNL1        0.1177
     16 O           5.5711    0.7640   -0.4942 O.3     1  UNL1       -0.5067
     17 C           3.1598    0.9198   -0.7124 C.ar    1  UNL1       -0.0094
     18 H          -6.3184    0.3852    0.4879 H       1  UNL1        0.2921
     19 H          -4.2901    1.5000   -1.4672 H       1  UNL1        0.0654
     20 H          -1.7743    1.5444   -1.4089 H       1  UNL1        0.0626
     21 H          -1.7964   -1.7402    1.2769 H       1  UNL1        0.0626
     22 H          -4.2105   -1.8390    1.2670 H       1  UNL1        0.0654
     23 H           0.3846    1.5798   -1.3566 H       1  UNL1        0.0661
     24 H           2.8214   -2.0696    1.7202 H       1  UNL1        0.0656
     25 H           5.0539   -1.2566    1.1391 H       1  UNL1        0.0655
     26 H           5.9682    1.6329   -0.1801 H       1  UNL1        0.2921
     27 H           3.2684    1.7560   -1.3922 H       1  UNL1        0.0661
@<TRIPOS>BOND
     1     1     2    1
     2     2     3   ar
     3     3     4   ar
     4     4     5   ar
     5     5     6   ar
     6     6     7   ar
     7     5     8    1
     8     8     9   ar
     9     9    10   ar
    10    10    11   ar
    11    11    12   ar
    12    11    13   ar
    13    13    14   ar
    14    14    15   ar
    15    15    16    1
    16    15    17   ar
    17     7     2   ar
    18    12     8   ar
    19    17    10   ar
    20     1    18    1
    21     3    19    1
    22     4    20    1
    23     6    21    1
    24     7    22    1
    25     9    23    1
    26    13    24    1
    27    14    25    1
    28    16    26    1
    29    17    27    1
