
     RDKit          3D

 27 29  0  0  0  0  0  0  0  0999 V2000
   -5.7889   -0.2436   -0.0974 O   0  0  0  0  0  0  0  0  0  0  0  0
   -4.4137   -0.1394   -0.1309 C   0  0  0  0  0  0  0  0  0  0  0  0
   -3.7162    0.7924   -0.8668 C   0  0  0  0  0  0  0  0  0  0  0  0
   -2.3522    0.8214   -0.8392 C   0  0  0  0  0  0  0  0  0  0  0  0
   -1.6658   -0.0909   -0.0672 C   0  0  0  0  0  0  0  0  0  0  0  0
   -2.3661   -1.0385    0.6816 C   0  0  0  0  0  0  0  0  0  0  0  0
   -3.7622   -1.0696    0.6545 C   0  0  0  0  0  0  0  0  0  0  0  0
   -0.1973   -0.1138    0.0068 C   0  0  0  0  0  0  0  0  0  0  0  0
    0.6360    0.7596   -0.6763 C   0  0  0  0  0  0  0  0  0  0  0  0
    1.9421    0.3940   -0.3281 C   0  0  0  0  0  0  0  0  0  0  0  0
    1.8175   -0.6726    0.5397 C   0  0  0  0  0  0  0  0  0  0  0  0
    0.5534   -0.9251    0.6986 O   0  0  0  0  0  0  0  0  0  0  0  0
    2.9682   -1.2362    1.0440 C   0  0  0  0  0  0  0  0  0  0  0  0
    4.2149   -0.7470    0.6907 C   0  0  0  0  0  0  0  0  0  0  0  0
    4.2927    0.3325   -0.1894 C   0  0  0  0  0  0  0  0  0  0  0  0
    5.5711    0.7640   -0.4942 O   0  0  0  0  0  0  0  0  0  0  0  0
    3.1598    0.9198   -0.7124 C   0  0  0  0  0  0  0  0  0  0  0  0
   -6.3184    0.3852    0.4879 H   0  0  0  0  0  0  0  0  0  0  0  0
   -4.2901    1.5000   -1.4672 H   0  0  0  0  0  0  0  0  0  0  0  0
   -1.7743    1.5444   -1.4089 H   0  0  0  0  0  0  0  0  0  0  0  0
   -1.7964   -1.7402    1.2769 H   0  0  0  0  0  0  0  0  0  0  0  0
   -4.2105   -1.8390    1.2670 H   0  0  0  0  0  0  0  0  0  0  0  0
    0.3846    1.5798   -1.3566 H   0  0  0  0  0  0  0  0  0  0  0  0
    2.8214   -2.0696    1.7202 H   0  0  0  0  0  0  0  0  0  0  0  0
    5.0539   -1.2566    1.1391 H   0  0  0  0  0  0  0  0  0  0  0  0
    5.9682    1.6329   -0.1801 H   0  0  0  0  0  0  0  0  0  0  0  0
    3.2684    1.7560   -1.3922 H   0  0  0  0  0  0  0  0  0  0  0  0
  1  2  1  0
  2  3  2  0
  3  4  1  0
  4  5  2  0
  5  6  1  0
  6  7  2  0
  5  8  1  0
  8  9  2  0
  9 10  1  0
 10 11  2  0
 11 12  1  0
 11 13  1  0
 13 14  2  0
 14 15  1  0
 15 16  1  0
 15 17  2  0
  7  2  1  0
 12  8  1  0
 17 10  1  0
  1 18  1  0
  3 19  1  0
  4 20  1  0
  6 21  1  0
  7 22  1  0
  9 23  1  0
 13 24  1  0
 14 25  1  0
 16 26  1  0
 17 27  1  0
M  END
$$$$
