@<TRIPOS>MOLECULE
*****
 62 66 0 0 0
SMALL
GASTEIGER

@<TRIPOS>ATOM
      1 C          -4.8257    1.4775   -1.2117 C.3     1  UNL1       -0.0275
      2 C          -4.5030    0.4327   -0.1080 C.3     1  UNL1        0.1021
      3 O          -3.2085    0.1867   -0.1224 O.3     1  UNL1       -0.4880
      4 C          -2.2673   -0.7116   -0.3020 C.ar    1  UNL1        0.1321
      5 C          -0.9016   -0.3407   -0.1686 C.ar    1  UNL1       -0.0114
      6 C           0.1233   -1.2053   -0.3374 C.ar    1  UNL1       -0.0123
      7 C           1.5346   -0.7771   -0.1889 C.ar    1  UNL1       -0.0171
      8 C           2.4635   -1.6843    0.2683 C.ar    1  UNL1       -0.0523
      9 C           3.7986   -1.3189    0.4218 C.ar    1  UNL1       -0.0395
     10 C           4.2066   -0.0350    0.1149 C.ar    1  UNL1        0.0416
     11 N           5.5542    0.2731    0.3203 N.pl3   1  UNL1       -0.3251
     12 C           6.0735    1.0703    1.4254 C.3     1  UNL1        0.0357
     13 C           7.0923    2.0159    0.8332 C.3     1  UNL1        0.0634
     14 O           8.2099    1.3135    0.4000 O.3     1  UNL1       -0.3767
     15 C           7.9425   -0.0089    0.1016 C.3     1  UNL1        0.0634
     16 C           6.6153   -0.1957   -0.5932 C.3     1  UNL1        0.0357
     17 C           3.3003    0.8805   -0.3416 C.ar    1  UNL1        0.0763
     18 C           3.6610    2.2691   -0.7219 C.3     1  UNL1        0.4191
     19 F           4.5941    2.2703   -1.7487 F       1  UNL1       -0.1658
     20 F           2.5279    2.8804   -1.2946 F       1  UNL1       -0.1658
     21 F           4.0263    3.0744    0.3055 F       1  UNL1       -0.1658
     22 C           1.9589    0.4920   -0.4887 C.ar    1  UNL1       -0.0406
     23 C          -0.1750   -2.5117   -0.6549 C.ar    1  UNL1       -0.0260
     24 C          -1.4737   -2.9449   -0.8008 C.ar    1  UNL1        0.0968
     25 N          -2.0276   -4.1358   -1.0998 N.ar    1  UNL1       -0.1713
     26 N          -3.3318   -4.0722   -1.1290 N.ar    1  UNL1       -0.2732
     27 C          -4.2814   -5.1576   -1.4166 C.3     1  UNL1        0.0302
     28 C          -3.6602   -2.7848   -0.8371 C.ar    1  UNL1        0.0364
     29 C          -2.5096   -2.0567   -0.6267 C.ar    1  UNL1        0.0614
     30 C          -5.0085    1.0456    1.2241 C.3     1  UNL1        0.0195
     31 C          -4.3107    2.3517    1.5103 C.3     1  UNL1        0.0182
     32 N          -5.1897    3.3972    1.0437 N.am    1  UNL1       -0.3149
     33 C          -6.4576    2.8660    0.7095 C.2     1  UNL1        0.2135
     34 O          -7.4304    3.5077    0.2352 O.2     1  UNL1       -0.2758
     35 C          -6.4599    1.4149    1.0100 C.3     1  UNL1        0.0315
     36 H          -5.9028    1.5367   -1.3769 H       1  UNL1        0.0265
     37 H          -4.3625    1.0569   -2.1358 H       1  UNL1        0.0265
     38 H          -4.3789    2.4459   -0.9797 H       1  UNL1        0.0265
     39 H          -5.2060   -0.3802   -0.3207 H       1  UNL1        0.0733
     40 H          -0.7421    0.6947    0.0804 H       1  UNL1        0.0660
     41 H           2.1503   -2.6798    0.5069 H       1  UNL1        0.0624
     42 H           4.4857   -2.0620    0.7817 H       1  UNL1        0.0636
     43 H           5.3129    1.5592    2.0293 H       1  UNL1        0.0486
     44 H           6.6201    0.3508    2.0977 H       1  UNL1        0.0486
     45 H           6.6330    2.4931   -0.0502 H       1  UNL1        0.0575
     46 H           7.3966    2.8043    1.5516 H       1  UNL1        0.0575
     47 H           8.0234   -0.6508    1.0034 H       1  UNL1        0.0575
     48 H           8.7345   -0.3581   -0.5934 H       1  UNL1        0.0575
     49 H           6.4736   -1.2774   -0.7572 H       1  UNL1        0.0486
     50 H           6.6054    0.3512   -1.5341 H       1  UNL1        0.0486
     51 H           1.2130    1.1898   -0.8467 H       1  UNL1        0.0630
     52 H           0.6355   -3.2063   -0.7911 H       1  UNL1        0.0646
     53 H          -4.4566   -5.2805   -2.4880 H       1  UNL1        0.0473
     54 H          -3.8222   -6.1203   -1.0486 H       1  UNL1        0.0473
     55 H          -5.1734   -4.9904   -0.8074 H       1  UNL1        0.0473
     56 H          -4.6557   -2.4204   -0.7850 H       1  UNL1        0.0833
     57 H          -4.8916    0.3083    2.0200 H       1  UNL1        0.0356
     58 H          -3.3034    2.4138    1.0611 H       1  UNL1        0.0466
     59 H          -4.1565    2.4769    2.6198 H       1  UNL1        0.0466
     60 H          -4.9369    4.4039    0.9604 H       1  UNL1        0.1487
     61 H          -7.0198    1.2520    1.9763 H       1  UNL1        0.0363
     62 H          -6.9366    0.8106    0.2237 H       1  UNL1        0.0363
@<TRIPOS>BOND
     1     1     2    1
     2     2     3    1
     3     3     4    1
     4     4     5   ar
     5     5     6   ar
     6     6     7    1
     7     7     8   ar
     8     8     9   ar
     9     9    10   ar
    10    10    11    1
    11    11    12    1
    12    12    13    1
    13    13    14    1
    14    14    15    1
    15    15    16    1
    16    10    17   ar
    17    17    18    1
    18    18    19    1
    19    18    20    1
    20    18    21    1
    21    17    22   ar
    22     6    23   ar
    23    23    24   ar
    24    24    25   ar
    25    25    26   ar
    26    26    27    1
    27    26    28   ar
    28    28    29   ar
    29     2    30    1
    30    30    31    1
    31    31    32    1
    32    32    33   am
    33    33    34    2
    34    33    35    1
    35    29     4   ar
    36    35    30    1
    37    22     7   ar
    38    29    24   ar
    39    16    11    1
    40     1    36    1
    41     1    37    1
    42     1    38    1
    43     2    39    1
    44     5    40    1
    45     8    41    1
    46     9    42    1
    47    12    43    1
    48    12    44    1
    49    13    45    1
    50    13    46    1
    51    15    47    1
    52    15    48    1
    53    16    49    1
    54    16    50    1
    55    22    51    1
    56    23    52    1
    57    27    53    1
    58    27    54    1
    59    27    55    1
    60    28    56    1
    61    30    57    1
    62    31    58    1
    63    31    59    1
    64    32    60    1
    65    35    61    1
    66    35    62    1
