
     RDKit          3D

 50 54  0  0  0  0  0  0  0  0999 V2000
   -8.3440   -0.5880    0.6473 C   0  0  0  0  0  0  0  0  0  0  0  0
   -7.1889   -0.0733   -0.1271 C   0  0  0  0  0  0  0  0  0  0  0  0
   -7.3925    0.2036   -1.4598 C   0  0  0  0  0  0  0  0  0  0  0  0
   -6.3867    0.6777   -2.2393 N   0  0  0  0  0  0  0  0  0  0  0  0
   -5.1589    0.8841   -1.7018 C   0  0  0  0  0  0  0  0  0  0  0  0
   -4.9653    0.6041   -0.3685 C   0  0  0  0  0  0  0  0  0  0  0  0
   -3.6471    0.8144    0.2178 C   0  0  0  0  0  0  0  0  0  0  0  0
   -3.3205    1.5123    1.3308 N   0  0  0  0  0  0  0  0  0  0  0  0
   -1.9929    1.4544    1.5294 N   0  0  0  0  0  0  0  0  0  0  0  0
   -1.4544    0.7127    0.5358 C   0  0  0  0  0  0  0  0  0  0  0  0
   -2.4745    0.3412   -0.2381 N   0  0  0  0  0  0  0  0  0  0  0  0
   -2.1695   -0.4870   -1.4030 C   0  0  0  0  0  0  0  0  0  0  0  0
   -1.2394   -1.5756   -0.8459 C   0  0  0  0  0  0  0  0  0  0  0  0
    0.0184   -0.8653   -0.5330 N   0  0  0  0  0  0  0  0  0  0  0  0
    1.2054   -1.4035   -1.0598 C   0  0  0  0  0  0  0  0  0  0  0  0
    1.1692   -2.4677   -1.7918 O   0  0  0  0  0  0  0  0  0  0  0  0
    2.5068   -0.8298   -0.8265 C   0  0  0  0  0  0  0  0  0  0  0  0
    3.4223   -1.6080   -0.0914 C   0  0  0  0  0  0  0  0  0  0  0  0
    4.6603   -1.0518    0.1212 C   0  0  0  0  0  0  0  0  0  0  0  0
    5.0351    0.1740   -0.3286 C   0  0  0  0  0  0  0  0  0  0  0  0
    6.3642    0.6629   -0.0463 C   0  0  0  0  0  0  0  0  0  0  0  0
    7.3922    0.0899    0.6223 C   0  0  0  0  0  0  0  0  0  0  0  0
    8.5496    0.7471    0.7567 C   0  0  0  0  0  0  0  0  0  0  0  0
    8.6604    1.9988    0.2058 C   0  0  0  0  0  0  0  0  0  0  0  0
    7.0091    2.2094   -0.5315 S   0  0  0  0  0  0  0  0  0  0  0  0
    4.1516    0.9356   -1.0444 C   0  0  0  0  0  0  0  0  0  0  0  0
    2.8792    0.4048   -1.2826 C   0  0  0  0  0  0  0  0  0  0  0  0
   -0.0202    0.3244    0.2642 C   0  0  2  0  0  0  0  0  0  0  0  0
    0.6550    0.0672    1.5943 C   0  0  0  0  0  0  0  0  0  0  0  0
   -5.9731    0.1268    0.4227 N   0  0  0  0  0  0  0  0  0  0  0  0
   -8.2041   -1.6310    0.9897 H   0  0  0  0  0  0  0  0  0  0  0  0
   -8.4936    0.0317    1.5715 H   0  0  0  0  0  0  0  0  0  0  0  0
   -9.2939   -0.4891    0.0893 H   0  0  0  0  0  0  0  0  0  0  0  0
   -8.3701    0.0442   -1.9012 H   0  0  0  0  0  0  0  0  0  0  0  0
   -4.3346    1.2588   -2.2826 H   0  0  0  0  0  0  0  0  0  0  0  0
   -1.5992    0.0959   -2.1541 H   0  0  0  0  0  0  0  0  0  0  0  0
   -3.0423   -0.9683   -1.8326 H   0  0  0  0  0  0  0  0  0  0  0  0
   -1.0539   -2.3159   -1.6199 H   0  0  0  0  0  0  0  0  0  0  0  0
   -1.7252   -1.9538    0.0667 H   0  0  0  0  0  0  0  0  0  0  0  0
    3.1319   -2.5710    0.2619 H   0  0  0  0  0  0  0  0  0  0  0  0
    5.3751   -1.6412    0.6846 H   0  0  0  0  0  0  0  0  0  0  0  0
    7.2280   -0.9441    1.0489 H   0  0  0  0  0  0  0  0  0  0  0  0
    9.4255    0.2824    1.3097 H   0  0  0  0  0  0  0  0  0  0  0  0
    9.4719    2.7418    0.1634 H   0  0  0  0  0  0  0  0  0  0  0  0
    4.3756    1.9306   -1.4440 H   0  0  0  0  0  0  0  0  0  0  0  0
    2.1644    0.9769   -1.8528 H   0  0  0  0  0  0  0  0  0  0  0  0
    0.5167    1.1811   -0.1966 H   0  0  0  0  0  0  0  0  0  0  0  0
    0.3549    0.8656    2.3243 H   0  0  0  0  0  0  0  0  0  0  0  0
    1.7555    0.0507    1.4558 H   0  0  0  0  0  0  0  0  0  0  0  0
    0.3666   -0.9406    1.9841 H   0  0  0  0  0  0  0  0  0  0  0  0
  1  2  1  0
  2  3  2  0
  3  4  1  0
  4  5  2  0
  5  6  1  0
  6  7  1  0
  7  8  2  0
  8  9  1  0
  9 10  2  0
 10 11  1  0
 11 12  1  0
 12 13  1  0
 13 14  1  0
 14 15  1  0
 15 16  2  0
 15 17  1  0
 17 18  2  0
 18 19  1  0
 19 20  2  0
 20 21  1  0
 21 22  2  0
 22 23  1  0
 23 24  2  0
 24 25  1  0
 20 26  1  0
 26 27  2  0
 14 28  1  0
 28 29  1  0
  6 30  2  0
 30  2  1  0
 11  7  1  0
 27 17  1  0
 28 10  1  0
 25 21  1  0
  1 31  1  0
  1 32  1  0
  1 33  1  0
  3 34  1  0
  5 35  1  0
 12 36  1  0
 12 37  1  0
 13 38  1  0
 13 39  1  0
 18 40  1  0
 19 41  1  0
 22 42  1  0
 23 43  1  0
 24 44  1  0
 26 45  1  0
 27 46  1  0
 28 47  1  6
 29 48  1  0
 29 49  1  0
 29 50  1  0
M  END
$$$$
