@<TRIPOS>MOLECULE
*****
 50 54 0 0 0
SMALL
GASTEIGER

@<TRIPOS>ATOM
      1 C          -8.3440   -0.5880    0.6473 C.3     1  UNL1       -0.0209
      2 C          -7.1889   -0.0733   -0.1271 C.ar    1  UNL1        0.0571
      3 C          -7.3925    0.2036   -1.4598 C.ar    1  UNL1        0.0486
      4 N          -6.3867    0.6777   -2.2393 N.ar    1  UNL1       -0.2593
      5 C          -5.1589    0.8841   -1.7018 C.ar    1  UNL1        0.0566
      6 C          -4.9653    0.6041   -0.3685 C.ar    1  UNL1        0.1263
      7 C          -3.6471    0.8144    0.2178 C.ar    1  UNL1        0.1842
      8 N          -3.3205    1.5123    1.3308 N.ar    1  UNL1       -0.1274
      9 N          -1.9929    1.4544    1.5294 N.ar    1  UNL1       -0.1320
     10 C          -1.4544    0.7127    0.5358 C.ar    1  UNL1        0.1542
     11 N          -2.4745    0.3412   -0.2381 N.ar    1  UNL1       -0.3066
     12 C          -2.1695   -0.4870   -1.4030 C.3     1  UNL1        0.0423
     13 C          -1.2394   -1.5756   -0.8459 C.3     1  UNL1        0.0338
     14 N           0.0184   -0.8653   -0.5330 N.am    1  UNL1       -0.2860
     15 C           1.2054   -1.4035   -1.0598 C.2     1  UNL1        0.2472
     16 O           1.1692   -2.4677   -1.7918 O.2     1  UNL1       -0.2700
     17 C           2.5068   -0.8298   -0.8265 C.ar    1  UNL1        0.0370
     18 C           3.4223   -1.6080   -0.0914 C.ar    1  UNL1       -0.0490
     19 C           4.6603   -1.0518    0.1212 C.ar    1  UNL1       -0.0528
     20 C           5.0351    0.1740   -0.3286 C.ar    1  UNL1       -0.0113
     21 C           6.3642    0.6629   -0.0463 C.ar    1  UNL1        0.0193
     22 C           7.3922    0.0899    0.6223 C.ar    1  UNL1       -0.0469
     23 C           8.5496    0.7471    0.7567 C.ar    1  UNL1       -0.0541
     24 C           8.6604    1.9988    0.2058 C.ar    1  UNL1       -0.0237
     25 S           7.0091    2.2094   -0.5315 S.2     1  UNL1       -0.0967
     26 C           4.1516    0.9356   -1.0444 C.ar    1  UNL1       -0.0528
     27 C           2.8792    0.4048   -1.2826 C.ar    1  UNL1       -0.0490
     28 C          -0.0202    0.3244    0.2642 C.3     1  UNL1        0.0834
     29 C           0.6550    0.0672    1.5943 C.3     1  UNL1       -0.0393
     30 N          -5.9731    0.1268    0.4227 N.ar    1  UNL1       -0.2457
     31 H          -8.2041   -1.6310    0.9897 H       1  UNL1        0.0293
     32 H          -8.4936    0.0317    1.5715 H       1  UNL1        0.0293
     33 H          -9.2939   -0.4891    0.0893 H       1  UNL1        0.0293
     34 H          -8.3701    0.0442   -1.9012 H       1  UNL1        0.0848
     35 H          -4.3346    1.2588   -2.2826 H       1  UNL1        0.0852
     36 H          -1.5992    0.0959   -2.1541 H       1  UNL1        0.0508
     37 H          -3.0423   -0.9683   -1.8326 H       1  UNL1        0.0508
     38 H          -1.0539   -2.3159   -1.6199 H       1  UNL1        0.0482
     39 H          -1.7252   -1.9538    0.0667 H       1  UNL1        0.0482
     40 H           3.1319   -2.5710    0.2619 H       1  UNL1        0.0625
     41 H           5.3751   -1.6412    0.6846 H       1  UNL1        0.0624
     42 H           7.2280   -0.9441    1.0489 H       1  UNL1        0.0629
     43 H           9.4255    0.2824    1.3097 H       1  UNL1        0.0623
     44 H           9.4719    2.7418    0.1634 H       1  UNL1        0.0693
     45 H           4.3756    1.9306   -1.4440 H       1  UNL1        0.0624
     46 H           2.1644    0.9769   -1.8528 H       1  UNL1        0.0625
     47 H           0.5167    1.1811   -0.1966 H       1  UNL1        0.0579
     48 H           0.3549    0.8656    2.3243 H       1  UNL1        0.0252
     49 H           1.7555    0.0507    1.4558 H       1  UNL1        0.0252
     50 H           0.3666   -0.9406    1.9841 H       1  UNL1        0.0252
@<TRIPOS>BOND
     1     1     2    1
     2     2     3   ar
     3     3     4   ar
     4     4     5   ar
     5     5     6   ar
     6     6     7    1
     7     7     8   ar
     8     8     9   ar
     9     9    10   ar
    10    10    11   ar
    11    11    12    1
    12    12    13    1
    13    13    14    1
    14    14    15   am
    15    15    16    2
    16    15    17    1
    17    17    18   ar
    18    18    19   ar
    19    19    20   ar
    20    20    21    1
    21    21    22   ar
    22    22    23   ar
    23    23    24   ar
    24    24    25   ar
    25    20    26   ar
    26    26    27   ar
    27    14    28    1
    28    28    29    1
    29     6    30   ar
    30    30     2   ar
    31    11     7   ar
    32    27    17   ar
    33    28    10    1
    34    25    21   ar
    35     1    31    1
    36     1    32    1
    37     1    33    1
    38     3    34    1
    39     5    35    1
    40    12    36    1
    41    12    37    1
    42    13    38    1
    43    13    39    1
    44    18    40    1
    45    19    41    1
    46    22    42    1
    47    23    43    1
    48    24    44    1
    49    26    45    1
    50    27    46    1
    51    28    47    1
    52    29    48    1
    53    29    49    1
    54    29    50    1
