@<TRIPOS>MOLECULE
*****
 56 58 0 0 0
SMALL
GASTEIGER

@<TRIPOS>ATOM
      1 C          -1.4013   -0.2952    3.3313 C.3     1  UNL1       -0.0466
      2 C          -1.7057   -0.2239    1.8707 C.3     1  UNL1        0.0418
      3 C          -2.7880   -1.2120    1.5031 C.3     1  UNL1        0.0160
      4 N          -3.0585   -1.3238    0.1501 N.3     1  UNL1       -0.2986
      5 C          -4.1977   -0.9206   -0.5060 C.3     1  UNL1        0.0129
      6 C          -4.5599    0.4873   -0.7631 C.3     1  UNL1        0.0594
      7 C          -4.8019    1.4276    0.3242 C.2     1  UNL1        0.2179
      8 N          -4.8484    1.1812    1.7021 N.am    1  UNL1       -0.3288
      9 O          -5.0153    2.6815    0.0297 O.2     1  UNL1       -0.2754
     10 C          -4.2585    1.0987   -2.0987 C.3     1  UNL1       -0.0369
     11 C          -5.6653    0.6079   -1.8493 C.3     1  UNL1       -0.0369
     12 C          -1.8551   -1.3579   -0.6790 C.3     1  UNL1        0.0134
     13 C          -0.8657   -0.2985   -0.3217 C.3     1  UNL1        0.0336
     14 N          -0.5605   -0.3028    1.0581 N.3     1  UNL1       -0.1714
     15 S           0.7335   -1.2639    1.5327 S.O2    1  UNL1        0.0612
     16 O           0.9620   -1.4046    2.9846 O.2     1  UNL1       -0.1528
     17 O           0.4841   -2.6747    1.0042 O.2     1  UNL1       -0.1528
     18 C           2.2075   -0.7069    0.7659 C.ar    1  UNL1        0.1055
     19 C           2.6065   -1.2412   -0.4261 C.ar    1  UNL1       -0.0350
     20 C           3.7615   -0.7738   -1.0109 C.ar    1  UNL1       -0.0537
     21 C           4.5443    0.2231   -0.4389 C.ar    1  UNL1       -0.0077
     22 C           5.7931    0.7161   -1.0825 C.3     1  UNL1        0.1828
     23 C           6.0337   -0.1159   -2.3249 C.3     1  UNL1       -0.0233
     24 O           6.8259    0.6403   -0.1710 O.3     1  UNL1       -0.3758
     25 C           5.5413    2.1710   -1.5077 C.3     1  UNL1        0.4221
     26 F           4.4823    2.1351   -2.3895 F       1  UNL1       -0.1673
     27 F           6.7017    2.6254   -2.1008 F       1  UNL1       -0.1673
     28 F           5.2124    2.9580   -0.4466 F       1  UNL1       -0.1673
     29 C           4.1183    0.7463    0.7681 C.ar    1  UNL1       -0.0537
     30 C           2.9628    0.2779    1.3516 C.ar    1  UNL1       -0.0350
     31 H          -1.2412   -1.3359    3.6828 H       1  UNL1        0.0246
     32 H          -0.4951    0.2816    3.5986 H       1  UNL1        0.0246
     33 H          -2.2742    0.0882    3.9474 H       1  UNL1        0.0246
     34 H          -2.1462    0.8050    1.7034 H       1  UNL1        0.0490
     35 H          -2.3497   -2.2213    1.8409 H       1  UNL1        0.0442
     36 H          -3.6510   -1.0978    2.1500 H       1  UNL1        0.0442
     37 H          -5.0907   -1.3965    0.0245 H       1  UNL1        0.0437
     38 H          -4.2206   -1.4532   -1.5212 H       1  UNL1        0.0437
     39 H          -4.2531    1.7388    2.3444 H       1  UNL1        0.1449
     40 H          -5.4628    0.4555    2.1202 H       1  UNL1        0.1449
     41 H          -3.7476    0.5336   -2.9011 H       1  UNL1        0.0276
     42 H          -4.0327    2.1734   -2.1102 H       1  UNL1        0.0276
     43 H          -6.0373   -0.3076   -2.3197 H       1  UNL1        0.0276
     44 H          -6.3929    1.4246   -1.7699 H       1  UNL1        0.0276
     45 H          -2.1355   -1.2648   -1.7266 H       1  UNL1        0.0440
     46 H          -1.3930   -2.3520   -0.5240 H       1  UNL1        0.0440
     47 H           0.0751   -0.5032   -0.8785 H       1  UNL1        0.0457
     48 H          -1.2896    0.7159   -0.5653 H       1  UNL1        0.0457
     49 H           2.0611   -2.0183   -0.9390 H       1  UNL1        0.0637
     50 H           4.0894   -1.1873   -1.9588 H       1  UNL1        0.0622
     51 H           6.9679    0.1939   -2.8466 H       1  UNL1        0.0263
     52 H           6.0968   -1.1825   -2.1232 H       1  UNL1        0.0263
     53 H           5.2158    0.0919   -3.0366 H       1  UNL1        0.0263
     54 H           6.9306   -0.2888    0.0895 H       1  UNL1        0.2110
     55 H           4.7198    1.5176    1.2258 H       1  UNL1        0.0622
     56 H           2.6681    0.7276    2.3090 H       1  UNL1        0.0637
@<TRIPOS>BOND
     1     1     2    1
     2     2     3    1
     3     3     4    1
     4     4     5    1
     5     5     6    1
     6     6     7    1
     7     7     8   am
     8     7     9    2
     9     6    10    1
    10    10    11    1
    11     4    12    1
    12    12    13    1
    13    13    14    1
    14    14    15    1
    15    15    16    2
    16    15    17    2
    17    15    18    1
    18    18    19   ar
    19    19    20   ar
    20    20    21   ar
    21    21    22    1
    22    22    23    1
    23    22    24    1
    24    22    25    1
    25    25    26    1
    26    25    27    1
    27    25    28    1
    28    21    29   ar
    29    29    30   ar
    30    14     2    1
    31    30    18   ar
    32    11     6    1
    33     1    31    1
    34     1    32    1
    35     1    33    1
    36     2    34    1
    37     3    35    1
    38     3    36    1
    39     5    37    1
    40     5    38    1
    41     8    39    1
    42     8    40    1
    43    10    41    1
    44    10    42    1
    45    11    43    1
    46    11    44    1
    47    12    45    1
    48    12    46    1
    49    13    47    1
    50    13    48    1
    51    19    49    1
    52    20    50    1
    53    23    51    1
    54    23    52    1
    55    23    53    1
    56    24    54    1
    57    29    55    1
    58    30    56    1
