
     RDKit          3D

 45 48  0  0  0  0  0  0  0  0999 V2000
   -1.2354   -0.7128   -0.9152 O   0  0  0  0  0  0  0  0  0  0  0  0
   -1.6806   -0.5072    0.2419 C   0  0  0  0  0  0  0  0  0  0  0  0
   -0.7872   -0.8469    1.3797 C   0  0  0  0  0  0  0  0  0  0  0  0
    0.5148   -1.3871    0.9121 C   0  0  0  0  0  0  0  0  0  0  0  0
    1.5620   -0.5571    0.6689 N   0  0  0  0  0  0  0  0  0  0  0  0
    2.7404   -1.0171    0.2491 C   0  0  0  0  0  0  0  0  0  0  0  0
    3.8583   -0.1794   -0.0160 N   0  0  0  0  0  0  0  0  0  0  0  0
    5.1132   -0.7452   -0.4687 C   0  0  0  0  0  0  0  0  0  0  0  0
    6.1794    0.3157   -0.1798 C   0  0  0  0  0  0  0  0  0  0  0  0
    5.9732    1.4691   -0.9121 O   0  0  0  0  0  0  0  0  0  0  0  0
    4.6665    1.8883   -0.9324 C   0  0  0  0  0  0  0  0  0  0  0  0
    3.8100    1.2603    0.1474 C   0  0  0  0  0  0  0  0  0  0  0  0
    2.8631   -2.3795    0.0675 C   0  0  0  0  0  0  0  0  0  0  0  0
    1.8214   -3.2605    0.3036 C   0  0  0  0  0  0  0  0  0  0  0  0
    1.9169   -4.4912    0.1444 O   0  0  0  0  0  0  0  0  0  0  0  0
    0.6609   -2.7251    0.7257 N   0  0  0  0  0  0  0  0  0  0  0  0
   -2.9756    0.0251    0.4826 N   0  0  0  0  0  0  0  0  0  0  0  0
   -3.6226    0.3139    1.7450 C   0  0  0  0  0  0  0  0  0  0  0  0
   -4.3793    1.5801    1.4140 C   0  0  0  0  0  0  0  0  0  0  0  0
   -4.8083    1.3303    0.0153 C   0  0  0  0  0  0  0  0  0  0  0  0
   -5.8194    1.8158   -0.7882 C   0  0  0  0  0  0  0  0  0  0  0  0
   -7.0079    3.1013   -0.0534 Br  0  0  0  0  0  0  0  0  0  0  0  0
   -5.9638    1.3847   -2.0785 C   0  0  0  0  0  0  0  0  0  0  0  0
   -5.1163    0.4557   -2.6313 C   0  0  0  0  0  0  0  0  0  0  0  0
   -4.1055   -0.0269   -1.8215 C   0  0  0  0  0  0  0  0  0  0  0  0
   -3.9388    0.3974   -0.5038 C   0  0  0  0  0  0  0  0  0  0  0  0
   -1.2775   -1.5026    2.1279 H   0  0  0  0  0  0  0  0  0  0  0  0
   -0.5493    0.1356    1.8821 H   0  0  0  0  0  0  0  0  0  0  0  0
    5.1011   -1.0095   -1.5379 H   0  0  0  0  0  0  0  0  0  0  0  0
    5.3895   -1.6147    0.1776 H   0  0  0  0  0  0  0  0  0  0  0  0
    6.0769    0.5603    0.8887 H   0  0  0  0  0  0  0  0  0  0  0  0
    7.1724   -0.0984   -0.3510 H   0  0  0  0  0  0  0  0  0  0  0  0
    4.6408    2.9803   -0.8012 H   0  0  0  0  0  0  0  0  0  0  0  0
    4.2648    1.6820   -1.9533 H   0  0  0  0  0  0  0  0  0  0  0  0
    4.1843    1.6019    1.1122 H   0  0  0  0  0  0  0  0  0  0  0  0
    2.7675    1.6028   -0.0359 H   0  0  0  0  0  0  0  0  0  0  0  0
    3.7998   -2.8125   -0.2732 H   0  0  0  0  0  0  0  0  0  0  0  0
   -0.1648   -3.3274    0.9229 H   0  0  0  0  0  0  0  0  0  0  0  0
   -2.9170    0.4380    2.5777 H   0  0  0  0  0  0  0  0  0  0  0  0
   -4.3849   -0.4859    1.9787 H   0  0  0  0  0  0  0  0  0  0  0  0
   -5.2346    1.7493    2.0970 H   0  0  0  0  0  0  0  0  0  0  0  0
   -3.6506    2.4320    1.4805 H   0  0  0  0  0  0  0  0  0  0  0  0
   -6.7789    1.7939   -2.6845 H   0  0  0  0  0  0  0  0  0  0  0  0
   -5.2411    0.1235   -3.6519 H   0  0  0  0  0  0  0  0  0  0  0  0
   -3.4378   -0.7504   -2.2385 H   0  0  0  0  0  0  0  0  0  0  0  0
  1  2  2  0
  2  3  1  0
  3  4  1  0
  4  5  2  0
  5  6  1  0
  6  7  1  0
  7  8  1  0
  8  9  1  0
  9 10  1  0
 10 11  1  0
 11 12  1  0
  6 13  2  0
 13 14  1  0
 14 15  2  0
 14 16  1  0
  2 17  1  0
 17 18  1  0
 18 19  1  0
 19 20  1  0
 20 21  2  0
 21 22  1  0
 21 23  1  0
 23 24  2  0
 24 25  1  0
 25 26  2  0
 16  4  1  0
 26 17  1  0
 12  7  1  0
 26 20  1  0
  3 27  1  0
  3 28  1  0
  8 29  1  0
  8 30  1  0
  9 31  1  0
  9 32  1  0
 11 33  1  0
 11 34  1  0
 12 35  1  0
 12 36  1  0
 13 37  1  0
 16 38  1  0
 18 39  1  0
 18 40  1  0
 19 41  1  0
 19 42  1  0
 23 43  1  0
 24 44  1  0
 25 45  1  0
M  END
$$$$
