@<TRIPOS>MOLECULE
*****
 45 48 0 0 0
SMALL
GASTEIGER

@<TRIPOS>ATOM
      1 O          -1.2354   -0.7128   -0.9152 O.2     1  UNL1       -0.2748
      2 C          -1.6806   -0.5072    0.2419 C.2     1  UNL1        0.2271
      3 C          -0.7872   -0.8469    1.3797 C.3     1  UNL1        0.0826
      4 C           0.5148   -1.3871    0.9121 C.ar    1  UNL1        0.1206
      5 N           1.5620   -0.5571    0.6689 N.ar    1  UNL1       -0.2186
      6 C           2.7404   -1.0171    0.2491 C.ar    1  UNL1        0.1285
      7 N           3.8583   -0.1794   -0.0160 N.pl3   1  UNL1       -0.3106
      8 C           5.1132   -0.7452   -0.4687 C.3     1  UNL1        0.0370
      9 C           6.1794    0.3157   -0.1798 C.3     1  UNL1        0.0634
     10 O           5.9732    1.4691   -0.9121 O.3     1  UNL1       -0.3767
     11 C           4.6665    1.8883   -0.9324 C.3     1  UNL1        0.0634
     12 C           3.8100    1.2603    0.1474 C.3     1  UNL1        0.0370
     13 C           2.8631   -2.3795    0.0675 C.ar    1  UNL1        0.0427
     14 C           1.8214   -3.2605    0.3036 C.ar    1  UNL1        0.2533
     15 O           1.9169   -4.4912    0.1444 O.2     1  UNL1       -0.2677
     16 N           0.6609   -2.7251    0.7257 N.ar    1  UNL1       -0.3104
     17 N          -2.9756    0.0251    0.4826 N.am    1  UNL1       -0.2705
     18 C          -3.6226    0.3139    1.7450 C.3     1  UNL1        0.0239
     19 C          -4.3793    1.5801    1.4140 C.3     1  UNL1       -0.0086
     20 C          -4.8083    1.3303    0.0153 C.ar    1  UNL1       -0.0105
     21 C          -5.8194    1.8158   -0.7882 C.ar    1  UNL1        0.0229
     22 BR         -7.0079    3.1013   -0.0534 Br      1  UNL1       -0.0500
     23 C          -5.9638    1.3847   -2.0785 C.ar    1  UNL1       -0.0474
     24 C          -5.1163    0.4557   -2.6313 C.ar    1  UNL1       -0.0589
     25 C          -4.1055   -0.0269   -1.8215 C.ar    1  UNL1       -0.0399
     26 C          -3.9388    0.3974   -0.5038 C.ar    1  UNL1        0.0405
     27 H          -1.2775   -1.5026    2.1279 H       1  UNL1        0.0438
     28 H          -0.5493    0.1356    1.8821 H       1  UNL1        0.0438
     29 H           5.1011   -1.0095   -1.5379 H       1  UNL1        0.0487
     30 H           5.3895   -1.6147    0.1776 H       1  UNL1        0.0487
     31 H           6.0769    0.5603    0.8887 H       1  UNL1        0.0575
     32 H           7.1724   -0.0984   -0.3510 H       1  UNL1        0.0575
     33 H           4.6408    2.9803   -0.8012 H       1  UNL1        0.0575
     34 H           4.2648    1.6820   -1.9533 H       1  UNL1        0.0575
     35 H           4.1843    1.6019    1.1122 H       1  UNL1        0.0487
     36 H           2.7675    1.6028   -0.0359 H       1  UNL1        0.0487
     37 H           3.7998   -2.8125   -0.2732 H       1  UNL1        0.0706
     38 H          -0.1648   -3.3274    0.9229 H       1  UNL1        0.1700
     39 H          -2.9170    0.4380    2.5777 H       1  UNL1        0.0472
     40 H          -4.3849   -0.4859    1.9787 H       1  UNL1        0.0472
     41 H          -5.2346    1.7493    2.0970 H       1  UNL1        0.0329
     42 H          -3.6506    2.4320    1.4805 H       1  UNL1        0.0329
     43 H          -6.7789    1.7939   -2.6845 H       1  UNL1        0.0629
     44 H          -5.2411    0.1235   -3.6519 H       1  UNL1        0.0618
     45 H          -3.4378   -0.7504   -2.2385 H       1  UNL1        0.0636
@<TRIPOS>BOND
     1     1     2    2
     2     2     3    1
     3     3     4    1
     4     4     5   ar
     5     5     6   ar
     6     6     7    1
     7     7     8    1
     8     8     9    1
     9     9    10    1
    10    10    11    1
    11    11    12    1
    12     6    13   ar
    13    13    14   ar
    14    14    15    2
    15    14    16   ar
    16     2    17   am
    17    17    18    1
    18    18    19    1
    19    19    20    1
    20    20    21   ar
    21    21    22    1
    22    21    23   ar
    23    23    24   ar
    24    24    25   ar
    25    25    26   ar
    26    16     4   ar
    27    26    17    1
    28    12     7    1
    29    26    20   ar
    30     3    27    1
    31     3    28    1
    32     8    29    1
    33     8    30    1
    34     9    31    1
    35     9    32    1
    36    11    33    1
    37    11    34    1
    38    12    35    1
    39    12    36    1
    40    13    37    1
    41    16    38    1
    42    18    39    1
    43    18    40    1
    44    19    41    1
    45    19    42    1
    46    23    43    1
    47    24    44    1
    48    25    45    1
