@<TRIPOS>MOLECULE
*****
 41 42 0 0 0
SMALL
GASTEIGER

@<TRIPOS>ATOM
      1 C           0.3686   -6.8248   -1.3355 C.3     1  UNL1        0.0790
      2 O          -0.3815   -5.9785   -0.5150 O.3     1  UNL1       -0.4915
      3 C          -0.2642   -4.5954   -0.4986 C.ar    1  UNL1        0.1615
      4 C           0.6085   -3.8863   -1.2918 C.ar    1  UNL1       -0.0157
      5 C           0.6825   -2.5068   -1.2331 C.ar    1  UNL1       -0.0509
      6 C          -0.1141   -1.7731   -0.3773 C.ar    1  UNL1       -0.0212
      7 C          -0.0192   -0.3187   -0.3316 C.2     1  UNL1       -0.0496
      8 C          -0.7187    0.4773    0.4348 C.2     1  UNL1        0.0010
      9 C          -0.6231    1.9319    0.4799 C.2     1  UNL1        0.2411
     10 O          -1.3350    2.6276    1.2490 O.2     1  UNL1       -0.2705
     11 N           0.2635    2.6802   -0.3231 N.am    1  UNL1       -0.2812
     12 C           0.3865    4.0976   -0.3084 C.ar    1  UNL1        0.0477
     13 C          -0.3530    4.9252   -1.1167 C.ar    1  UNL1       -0.0397
     14 C          -0.2012    6.3050   -1.0701 C.ar    1  UNL1       -0.0600
     15 C           0.7246    6.8604   -0.1809 C.ar    1  UNL1       -0.0609
     16 C           1.4733    6.0126    0.6383 C.ar    1  UNL1       -0.0460
     17 C           1.3195    4.6256    0.5902 C.ar    1  UNL1        0.0800
     18 C           2.1506    3.8181    1.4892 C.2     1  UNL1        0.3386
     19 O           1.9957    2.4204    1.4407 O.3     1  UNL1       -0.4771
     20 O           2.9801    4.3551    2.2830 O.2     1  UNL1       -0.2451
     21 C          -0.9712   -2.5020    0.3986 C.ar    1  UNL1       -0.0092
     22 C          -1.0686   -3.8797    0.3631 C.ar    1  UNL1        0.1620
     23 O          -1.9632   -4.5765    1.1790 O.3     1  UNL1       -0.4914
     24 C          -2.7954   -3.8282    2.0711 C.3     1  UNL1        0.0790
     25 H           0.3938   -6.4848   -2.3949 H       1  UNL1        0.0660
     26 H          -0.0757   -7.8442   -1.2383 H       1  UNL1        0.0660
     27 H           1.4423   -6.8335   -0.9971 H       1  UNL1        0.0660
     28 H           1.2426   -4.4413   -1.9703 H       1  UNL1        0.0655
     29 H           1.3857   -1.9671   -1.8753 H       1  UNL1        0.0625
     30 H           0.6856    0.1738   -0.9799 H       1  UNL1        0.0625
     31 H          -1.4435    0.0100    1.1051 H       1  UNL1        0.0670
     32 H           0.8988    2.1978   -0.9961 H       1  UNL1        0.1551
     33 H          -1.0668    4.4536   -1.7991 H       1  UNL1        0.0636
     34 H          -0.7984    6.9529   -1.7212 H       1  UNL1        0.0618
     35 H           0.8591    7.9459   -0.1290 H       1  UNL1        0.0618
     36 H           2.1714    6.5315    1.3011 H       1  UNL1        0.0626
     37 H           2.7379    1.8539    1.8469 H       1  UNL1        0.2954
     38 H          -1.6228   -2.0175    1.0878 H       1  UNL1        0.0661
     39 H          -3.3762   -4.5405    2.6959 H       1  UNL1        0.0660
     40 H          -2.0985   -3.2129    2.7016 H       1  UNL1        0.0660
     41 H          -3.4801   -3.2444    1.4587 H       1  UNL1        0.0660
@<TRIPOS>BOND
     1     1     2    1
     2     2     3    1
     3     3     4   ar
     4     4     5   ar
     5     5     6   ar
     6     6     7    1
     7     7     8    2
     8     8     9    1
     9     9    10    2
    10     9    11   am
    11    11    12    1
    12    12    13   ar
    13    13    14   ar
    14    14    15   ar
    15    15    16   ar
    16    16    17   ar
    17    17    18    1
    18    18    19    1
    19    18    20    2
    20     6    21   ar
    21    21    22   ar
    22    22    23    1
    23    23    24    1
    24    22     3   ar
    25    17    12   ar
    26     1    25    1
    27     1    26    1
    28     1    27    1
    29     4    28    1
    30     5    29    1
    31     7    30    1
    32     8    31    1
    33    11    32    1
    34    13    33    1
    35    14    34    1
    36    15    35    1
    37    16    36    1
    38    19    37    1
    39    21    38    1
    40    24    39    1
    41    24    40    1
    42    24    41    1
