
     RDKit          3D

 41 42  0  0  0  0  0  0  0  0999 V2000
    0.3686   -6.8248   -1.3355 C   0  0  0  0  0  0  0  0  0  0  0  0
   -0.3815   -5.9785   -0.5150 O   0  0  0  0  0  0  0  0  0  0  0  0
   -0.2642   -4.5954   -0.4986 C   0  0  0  0  0  0  0  0  0  0  0  0
    0.6085   -3.8863   -1.2918 C   0  0  0  0  0  0  0  0  0  0  0  0
    0.6825   -2.5068   -1.2331 C   0  0  0  0  0  0  0  0  0  0  0  0
   -0.1141   -1.7731   -0.3773 C   0  0  0  0  0  0  0  0  0  0  0  0
   -0.0192   -0.3187   -0.3316 C   0  0  0  0  0  0  0  0  0  0  0  0
   -0.7187    0.4773    0.4348 C   0  0  0  0  0  0  0  0  0  0  0  0
   -0.6231    1.9319    0.4799 C   0  0  0  0  0  0  0  0  0  0  0  0
   -1.3350    2.6276    1.2490 O   0  0  0  0  0  0  0  0  0  0  0  0
    0.2635    2.6802   -0.3231 N   0  0  0  0  0  0  0  0  0  0  0  0
    0.3865    4.0976   -0.3084 C   0  0  0  0  0  0  0  0  0  0  0  0
   -0.3530    4.9252   -1.1167 C   0  0  0  0  0  0  0  0  0  0  0  0
   -0.2012    6.3050   -1.0701 C   0  0  0  0  0  0  0  0  0  0  0  0
    0.7246    6.8604   -0.1809 C   0  0  0  0  0  0  0  0  0  0  0  0
    1.4733    6.0126    0.6383 C   0  0  0  0  0  0  0  0  0  0  0  0
    1.3195    4.6256    0.5902 C   0  0  0  0  0  0  0  0  0  0  0  0
    2.1506    3.8181    1.4892 C   0  0  0  0  0  0  0  0  0  0  0  0
    1.9957    2.4204    1.4407 O   0  0  0  0  0  0  0  0  0  0  0  0
    2.9801    4.3551    2.2830 O   0  0  0  0  0  0  0  0  0  0  0  0
   -0.9712   -2.5020    0.3986 C   0  0  0  0  0  0  0  0  0  0  0  0
   -1.0686   -3.8797    0.3631 C   0  0  0  0  0  0  0  0  0  0  0  0
   -1.9632   -4.5765    1.1790 O   0  0  0  0  0  0  0  0  0  0  0  0
   -2.7954   -3.8282    2.0711 C   0  0  0  0  0  0  0  0  0  0  0  0
    0.3938   -6.4848   -2.3949 H   0  0  0  0  0  0  0  0  0  0  0  0
   -0.0757   -7.8442   -1.2383 H   0  0  0  0  0  0  0  0  0  0  0  0
    1.4423   -6.8335   -0.9971 H   0  0  0  0  0  0  0  0  0  0  0  0
    1.2426   -4.4413   -1.9703 H   0  0  0  0  0  0  0  0  0  0  0  0
    1.3857   -1.9671   -1.8753 H   0  0  0  0  0  0  0  0  0  0  0  0
    0.6856    0.1738   -0.9799 H   0  0  0  0  0  0  0  0  0  0  0  0
   -1.4435    0.0100    1.1051 H   0  0  0  0  0  0  0  0  0  0  0  0
    0.8988    2.1978   -0.9961 H   0  0  0  0  0  0  0  0  0  0  0  0
   -1.0668    4.4536   -1.7991 H   0  0  0  0  0  0  0  0  0  0  0  0
   -0.7984    6.9529   -1.7212 H   0  0  0  0  0  0  0  0  0  0  0  0
    0.8591    7.9459   -0.1290 H   0  0  0  0  0  0  0  0  0  0  0  0
    2.1714    6.5315    1.3011 H   0  0  0  0  0  0  0  0  0  0  0  0
    2.7379    1.8539    1.8469 H   0  0  0  0  0  0  0  0  0  0  0  0
   -1.6228   -2.0175    1.0878 H   0  0  0  0  0  0  0  0  0  0  0  0
   -3.3762   -4.5405    2.6959 H   0  0  0  0  0  0  0  0  0  0  0  0
   -2.0985   -3.2129    2.7016 H   0  0  0  0  0  0  0  0  0  0  0  0
   -3.4801   -3.2444    1.4587 H   0  0  0  0  0  0  0  0  0  0  0  0
  1  2  1  0
  2  3  1  0
  3  4  2  0
  4  5  1  0
  5  6  2  0
  6  7  1  0
  7  8  2  0
  8  9  1  0
  9 10  2  0
  9 11  1  0
 11 12  1  0
 12 13  2  0
 13 14  1  0
 14 15  2  0
 15 16  1  0
 16 17  2  0
 17 18  1  0
 18 19  1  0
 18 20  2  0
  6 21  1  0
 21 22  2  0
 22 23  1  0
 23 24  1  0
 22  3  1  0
 17 12  1  0
  1 25  1  0
  1 26  1  0
  1 27  1  0
  4 28  1  0
  5 29  1  0
  7 30  1  0
  8 31  1  0
 11 32  1  0
 13 33  1  0
 14 34  1  0
 15 35  1  0
 16 36  1  0
 19 37  1  0
 21 38  1  0
 24 39  1  0
 24 40  1  0
 24 41  1  0
M  END
$$$$
