@<TRIPOS>MOLECULE
*****
 37 39 0 0 0
SMALL
GASTEIGER

@<TRIPOS>ATOM
      1 O           3.8017    2.0773   -2.0868 O.2     1  UNL1       -0.2451
      2 C           4.5169    1.3231   -1.3906 C.2     1  UNL1        0.3369
      3 O           5.8702    1.5765   -1.3088 O.3     1  UNL1       -0.4771
      4 C           3.9250    0.1926   -0.6765 C.ar    1  UNL1        0.0607
      5 C           4.6906   -0.6535    0.0971 C.ar    1  UNL1       -0.0477
      6 C           4.0711   -1.6918    0.7379 C.ar    1  UNL1       -0.0591
      7 C           2.7073   -1.9034    0.6236 C.ar    1  UNL1       -0.0353
      8 C           1.9094   -1.0669   -0.1494 C.ar    1  UNL1        0.1063
      9 S           0.1861   -1.3417   -0.2884 S.O2    1  UNL1        0.0612
     10 O          -0.1305   -2.8035   -0.2399 O.2     1  UNL1       -0.1528
     11 O          -0.2427   -0.8280   -1.6553 O.2     1  UNL1       -0.1528
     12 N          -0.7014   -0.5251    0.9113 N.3     1  UNL1       -0.1720
     13 C          -0.5937    0.8844    0.9013 C.3     1  UNL1        0.0249
     14 C          -1.8847    1.6349    0.8671 C.3     1  UNL1       -0.0119
     15 C          -2.9057    0.9124    0.0749 C.ar    1  UNL1       -0.0277
     16 C          -3.7597    1.5812   -0.7727 C.ar    1  UNL1        0.0214
     17 BR         -3.6567    3.4995   -0.9607 Br      1  UNL1       -0.0500
     18 C          -4.6934    0.8590   -1.4884 C.ar    1  UNL1       -0.0475
     19 C          -4.7542   -0.5283   -1.3404 C.ar    1  UNL1       -0.0604
     20 C          -3.8919   -1.1794   -0.4880 C.ar    1  UNL1       -0.0570
     21 C          -2.9671   -0.4534    0.2193 C.ar    1  UNL1       -0.0274
     22 C          -1.9903   -1.0674    1.1668 C.3     1  UNL1        0.0458
     23 C           2.5579   -0.0293   -0.7839 C.ar    1  UNL1       -0.0214
     24 H           6.2972    2.4623   -1.5904 H       1  UNL1        0.2954
     25 H           5.7611   -0.4629    0.1689 H       1  UNL1        0.0626
     26 H           4.6999   -2.3511    1.3471 H       1  UNL1        0.0618
     27 H           2.2642   -2.7231    1.1386 H       1  UNL1        0.0637
     28 H           0.0174    1.2440    0.0237 H       1  UNL1        0.0447
     29 H          -0.0238    1.2115    1.8203 H       1  UNL1        0.0447
     30 H          -2.3334    1.7751    1.8907 H       1  UNL1        0.0327
     31 H          -1.7203    2.6712    0.4894 H       1  UNL1        0.0327
     32 H          -5.3755    1.3533   -2.1596 H       1  UNL1        0.0629
     33 H          -5.4852   -1.0567   -1.9061 H       1  UNL1        0.0618
     34 H          -3.9162   -2.2479   -0.3542 H       1  UNL1        0.0621
     35 H          -2.2805   -0.8428    2.2290 H       1  UNL1        0.0493
     36 H          -1.9464   -2.1640    1.0339 H       1  UNL1        0.0493
     37 H           1.9772    0.6620   -1.4070 H       1  UNL1        0.0645
@<TRIPOS>BOND
     1     1     2    2
     2     2     3    1
     3     2     4    1
     4     4     5   ar
     5     5     6   ar
     6     6     7   ar
     7     7     8   ar
     8     8     9    1
     9     9    10    2
    10     9    11    2
    11     9    12    1
    12    12    13    1
    13    13    14    1
    14    14    15    1
    15    15    16   ar
    16    16    17    1
    17    16    18   ar
    18    18    19   ar
    19    19    20   ar
    20    20    21   ar
    21    21    22    1
    22     8    23   ar
    23    23     4   ar
    24    22    12    1
    25    21    15   ar
    26     3    24    1
    27     5    25    1
    28     6    26    1
    29     7    27    1
    30    13    28    1
    31    13    29    1
    32    14    30    1
    33    14    31    1
    34    18    32    1
    35    19    33    1
    36    20    34    1
    37    22    35    1
    38    22    36    1
    39    23    37    1
