
     RDKit          3D

 52 56  0  0  0  0  0  0  0  0999 V2000
    4.7861   -2.2600   -3.2207 S   0  0  0  0  0  0  0  0  0  0  0  0
    3.2034   -2.4957   -2.9017 C   0  0  0  0  0  0  0  0  0  0  0  0
    2.3481   -3.3742   -3.4590 N   0  0  0  0  0  0  0  0  0  0  0  0
    1.1481   -3.2260   -2.8997 N   0  0  0  0  0  0  0  0  0  0  0  0
    1.2625   -2.2386   -1.9801 C   0  0  0  0  0  0  0  0  0  0  0  0
    0.1632   -1.7715   -1.1458 C   0  0  0  0  0  0  0  0  0  0  0  0
    0.0981   -2.1864    0.1669 C   0  0  0  0  0  0  0  0  0  0  0  0
   -0.9568   -1.7312    0.9472 C   0  0  0  0  0  0  0  0  0  0  0  0
   -1.9135   -0.9123    0.4960 N   0  0  0  0  0  0  0  0  0  0  0  0
   -1.8625   -0.4998   -0.7818 C   0  0  0  0  0  0  0  0  0  0  0  0
   -2.8695    0.3742   -1.2915 N   0  0  0  0  0  0  0  0  0  0  0  0
   -3.9630    0.8538   -0.5041 C   0  0  0  0  0  0  0  0  0  0  0  0
   -4.8433   -0.2524    0.0421 C   0  0  0  0  0  0  0  0  0  0  0  0
   -5.3184    0.0717    1.4338 C   0  0  0  0  0  0  0  0  0  0  0  0
   -5.6462    1.5364    1.5965 C   0  0  0  0  0  0  0  0  0  0  0  0
   -4.5221    2.4531    1.2384 C   0  0  0  0  0  0  0  0  0  0  0  0
   -3.3850    1.6652    0.6560 C   0  0  0  0  0  0  0  0  0  0  0  0
   -0.8337   -0.9281   -1.5879 C   0  0  0  0  0  0  0  0  0  0  0  0
    2.5106   -1.7937   -1.9800 N   0  0  0  0  0  0  0  0  0  0  0  0
    2.9907   -0.7515   -1.1337 C   0  0  0  0  0  0  0  0  0  0  0  0
    2.4349    0.5097   -1.1370 C   0  0  0  0  0  0  0  0  0  0  0  0
    2.9043    1.5126   -0.3158 C   0  0  0  0  0  0  0  0  0  0  0  0
    3.9719    1.2859    0.5594 C   0  0  0  0  0  0  0  0  0  0  0  0
    4.4509    2.2810    1.3861 C   0  0  0  0  0  0  0  0  0  0  0  0
    5.5114    2.0564    2.2557 C   0  0  0  0  0  0  0  0  0  0  0  0
    6.0817    0.8003    2.2741 C   0  0  0  0  0  0  0  0  0  0  0  0
    5.5927   -0.1850    1.4423 C   0  0  0  0  0  0  0  0  0  0  0  0
    4.5373    0.0215    0.5702 C   0  0  0  0  0  0  0  0  0  0  0  0
    4.0488   -0.9540   -0.2574 C   0  0  0  0  0  0  0  0  0  0  0  0
    2.6133   -4.0467   -4.2042 H   0  0  0  0  0  0  0  0  0  0  0  0
    0.8594   -2.8479    0.5540 H   0  0  0  0  0  0  0  0  0  0  0  0
   -0.9815   -2.0765    1.9817 H   0  0  0  0  0  0  0  0  0  0  0  0
   -2.7965    0.6782   -2.3035 H   0  0  0  0  0  0  0  0  0  0  0  0
   -4.5844    1.5549   -1.0974 H   0  0  0  0  0  0  0  0  0  0  0  0
   -4.2406   -1.1737    0.0911 H   0  0  0  0  0  0  0  0  0  0  0  0
   -5.6925   -0.4648   -0.6558 H   0  0  0  0  0  0  0  0  0  0  0  0
   -4.5167   -0.2052    2.1475 H   0  0  0  0  0  0  0  0  0  0  0  0
   -6.2151   -0.5190    1.6284 H   0  0  0  0  0  0  0  0  0  0  0  0
   -5.9069    1.6729    2.6835 H   0  0  0  0  0  0  0  0  0  0  0  0
   -6.5586    1.8088    1.0262 H   0  0  0  0  0  0  0  0  0  0  0  0
   -4.8109    3.2682    0.5361 H   0  0  0  0  0  0  0  0  0  0  0  0
   -4.1255    2.9500    2.1635 H   0  0  0  0  0  0  0  0  0  0  0  0
   -3.0233    0.9745    1.4163 H   0  0  0  0  0  0  0  0  0  0  0  0
   -2.5807    2.2966    0.2473 H   0  0  0  0  0  0  0  0  0  0  0  0
   -0.7948   -0.5934   -2.6198 H   0  0  0  0  0  0  0  0  0  0  0  0
    1.6097    0.7334   -1.7944 H   0  0  0  0  0  0  0  0  0  0  0  0
    2.4543    2.5024   -0.3309 H   0  0  0  0  0  0  0  0  0  0  0  0
    4.0004    3.2714    1.3708 H   0  0  0  0  0  0  0  0  0  0  0  0
    5.8987    2.8253    2.9099 H   0  0  0  0  0  0  0  0  0  0  0  0
    6.9193    0.6169    2.9585 H   0  0  0  0  0  0  0  0  0  0  0  0
    6.0442   -1.1672    1.4618 H   0  0  0  0  0  0  0  0  0  0  0  0
    4.4985   -1.9206   -0.2334 H   0  0  0  0  0  0  0  0  0  0  0  0
  1  2  2  0
  2  3  1  0
  3  4  1  0
  4  5  2  0
  5  6  1  0
  6  7  2  0
  7  8  1  0
  8  9  2  0
  9 10  1  0
 10 11  1  0
 11 12  1  0
 12 13  1  0
 13 14  1  0
 14 15  1  0
 15 16  1  0
 16 17  1  0
 10 18  2  0
  5 19  1  0
 19 20  1  0
 20 21  2  0
 21 22  1  0
 22 23  2  0
 23 24  1  0
 24 25  2  0
 25 26  1  0
 26 27  2  0
 27 28  1  0
 28 29  2  0
 19  2  1  0
 29 20  1  0
 18  6  1  0
 28 23  1  0
 17 12  1  0
  3 30  1  0
  7 31  1  0
  8 32  1  0
 11 33  1  0
 12 34  1  0
 13 35  1  0
 13 36  1  0
 14 37  1  0
 14 38  1  0
 15 39  1  0
 15 40  1  0
 16 41  1  0
 16 42  1  0
 17 43  1  0
 17 44  1  0
 18 45  1  0
 21 46  1  0
 22 47  1  0
 24 48  1  0
 25 49  1  0
 26 50  1  0
 27 51  1  0
 29 52  1  0
M  END
$$$$
