@<TRIPOS>MOLECULE
*****
 52 56 0 0 0
SMALL
GASTEIGER

@<TRIPOS>ATOM
      1 S           4.7861   -2.2600   -3.2207 S.2     1  UNL1       -0.0111
      2 C           3.2034   -2.4957   -2.9017 C.ar    1  UNL1        0.1804
      3 N           2.3481   -3.3742   -3.4590 N.ar    1  UNL1       -0.2537
      4 N           1.1481   -3.2260   -2.8997 N.ar    1  UNL1       -0.1530
      5 C           1.2625   -2.2386   -1.9801 C.ar    1  UNL1        0.1673
      6 C           0.1632   -1.7715   -1.1458 C.ar    1  UNL1        0.0242
      7 C           0.0981   -2.1864    0.1669 C.ar    1  UNL1       -0.0328
      8 C          -0.9568   -1.7312    0.9472 C.ar    1  UNL1        0.0304
      9 N          -1.9135   -0.9123    0.4960 N.ar    1  UNL1       -0.2405
     10 C          -1.8625   -0.4998   -0.7818 C.ar    1  UNL1        0.1195
     11 N          -2.8695    0.3742   -1.2915 N.pl3   1  UNL1       -0.3262
     12 C          -3.9630    0.8538   -0.5041 C.3     1  UNL1        0.0220
     13 C          -4.8433   -0.2524    0.0421 C.3     1  UNL1       -0.0345
     14 C          -5.3184    0.0717    1.4338 C.3     1  UNL1       -0.0514
     15 C          -5.6462    1.5364    1.5965 C.3     1  UNL1       -0.0529
     16 C          -4.5221    2.4531    1.2384 C.3     1  UNL1       -0.0514
     17 C          -3.3850    1.6652    0.6560 C.3     1  UNL1       -0.0345
     18 C          -0.8337   -0.9281   -1.5879 C.ar    1  UNL1       -0.0112
     19 N           2.5106   -1.7937   -1.9800 N.ar    1  UNL1       -0.2714
     20 C           2.9907   -0.7515   -1.1337 C.ar    1  UNL1        0.0511
     21 C           2.4349    0.5097   -1.1370 C.ar    1  UNL1       -0.0371
     22 C           2.9043    1.5126   -0.3158 C.ar    1  UNL1       -0.0521
     23 C           3.9719    1.2859    0.5594 C.ar    1  UNL1       -0.0178
     24 C           4.4509    2.2810    1.3861 C.ar    1  UNL1       -0.0540
     25 C           5.5114    2.0564    2.2557 C.ar    1  UNL1       -0.0612
     26 C           6.0817    0.8003    2.2741 C.ar    1  UNL1       -0.0612
     27 C           5.5927   -0.1850    1.4423 C.ar    1  UNL1       -0.0540
     28 C           4.5373    0.0215    0.5702 C.ar    1  UNL1       -0.0159
     29 C           4.0488   -0.9540   -0.2574 C.ar    1  UNL1       -0.0300
     30 H           2.6133   -4.0467   -4.2042 H       1  UNL1        0.1911
     31 H           0.8594   -2.8479    0.5540 H       1  UNL1        0.0640
     32 H          -0.9815   -2.0765    1.9817 H       1  UNL1        0.0830
     33 H          -2.7965    0.6782   -2.3035 H       1  UNL1        0.1477
     34 H          -4.5844    1.5549   -1.0974 H       1  UNL1        0.0498
     35 H          -4.2406   -1.1737    0.0911 H       1  UNL1        0.0283
     36 H          -5.6925   -0.4648   -0.6558 H       1  UNL1        0.0283
     37 H          -4.5167   -0.2052    2.1475 H       1  UNL1        0.0266
     38 H          -6.2151   -0.5190    1.6284 H       1  UNL1        0.0266
     39 H          -5.9069    1.6729    2.6835 H       1  UNL1        0.0265
     40 H          -6.5586    1.8088    1.0262 H       1  UNL1        0.0265
     41 H          -4.8109    3.2682    0.5361 H       1  UNL1        0.0266
     42 H          -4.1255    2.9500    2.1635 H       1  UNL1        0.0266
     43 H          -3.0233    0.9745    1.4163 H       1  UNL1        0.0283
     44 H          -2.5807    2.2966    0.2473 H       1  UNL1        0.0283
     45 H          -0.7948   -0.5934   -2.6198 H       1  UNL1        0.0659
     46 H           1.6097    0.7334   -1.7944 H       1  UNL1        0.0638
     47 H           2.4543    2.5024   -0.3309 H       1  UNL1        0.0624
     48 H           4.0004    3.2714    1.3708 H       1  UNL1        0.0624
     49 H           5.8987    2.8253    2.9099 H       1  UNL1        0.0618
     50 H           6.9193    0.6169    2.9585 H       1  UNL1        0.0618
     51 H           6.0442   -1.1672    1.4618 H       1  UNL1        0.0624
     52 H           4.4985   -1.9206   -0.2334 H       1  UNL1        0.0644
@<TRIPOS>BOND
     1     1     2    2
     2     2     3   ar
     3     3     4   ar
     4     4     5   ar
     5     5     6    1
     6     6     7   ar
     7     7     8   ar
     8     8     9   ar
     9     9    10   ar
    10    10    11    1
    11    11    12    1
    12    12    13    1
    13    13    14    1
    14    14    15    1
    15    15    16    1
    16    16    17    1
    17    10    18   ar
    18     5    19   ar
    19    19    20    1
    20    20    21   ar
    21    21    22   ar
    22    22    23   ar
    23    23    24   ar
    24    24    25   ar
    25    25    26   ar
    26    26    27   ar
    27    27    28   ar
    28    28    29   ar
    29    19     2   ar
    30    29    20   ar
    31    18     6   ar
    32    28    23   ar
    33    17    12    1
    34     3    30    1
    35     7    31    1
    36     8    32    1
    37    11    33    1
    38    12    34    1
    39    13    35    1
    40    13    36    1
    41    14    37    1
    42    14    38    1
    43    15    39    1
    44    15    40    1
    45    16    41    1
    46    16    42    1
    47    17    43    1
    48    17    44    1
    49    18    45    1
    50    21    46    1
    51    22    47    1
    52    24    48    1
    53    25    49    1
    54    26    50    1
    55    27    51    1
    56    29    52    1
