@<TRIPOS>MOLECULE
*****
 63 69 0 0 0
SMALL
GASTEIGER

@<TRIPOS>ATOM
      1 C           0.1478   -4.0782   -2.9923 C.3     1  UNL1       -0.0455
      2 C           1.0800   -3.1796   -2.2068 C.3     1  UNL1        0.0387
      3 N           0.5022   -1.8603   -1.9843 N.ar    1  UNL1       -0.2714
      4 C          -0.2562   -1.5069   -0.9285 C.ar    1  UNL1        0.0313
      5 C          -0.6226   -0.1832   -1.0563 C.ar    1  UNL1        0.0249
      6 C          -1.4604    0.5388   -0.0754 C.3     1  UNL1        0.1671
      7 C          -2.8416   -0.0508   -0.1092 C.ar    1  UNL1        0.2492
      8 N          -3.6854   -0.0296   -1.1553 N.ar    1  UNL1       -0.1295
      9 N          -4.8158   -0.6382   -0.8440 N.ar    1  UNL1       -0.1979
     10 C          -5.9968   -0.8388   -1.6906 C.3     1  UNL1        0.0370
     11 C          -4.6701   -1.0486    0.4301 C.ar    1  UNL1        0.4379
     12 O          -5.5582   -1.6712    1.0631 O.2     1  UNL1       -0.2211
     13 O          -3.4714   -0.6807    0.8463 O.2     1  UNL1       -0.3896
     14 N          -0.9370    0.3460    1.2373 N.3     1  UNL1       -0.2847
     15 C           0.1559    1.1716    1.6199 C.3     1  UNL1        0.0714
     16 C           1.2908    0.3774    2.1772 C.ar    1  UNL1        0.1253
     17 N           1.8115   -0.7665    1.7057 N.ar    1  UNL1       -0.2294
     18 C           2.8219   -1.1129    2.5370 C.ar    1  UNL1        0.1070
     19 C           3.6799   -2.3064    2.4064 C.ar    1  UNL1        0.0908
     20 C           4.6568   -2.5069    3.3356 C.ar    1  UNL1       -0.0314
     21 C           5.4676   -3.6133    3.2340 C.ar    1  UNL1       -0.0229
     22 C           5.2358   -4.4643    2.1791 C.ar    1  UNL1        0.1414
     23 F           6.0162   -5.5838    2.0308 F       1  UNL1       -0.2039
     24 C           4.2369   -4.2239    1.2619 C.ar    1  UNL1        0.0635
     25 N           3.4618   -3.1427    1.3810 N.ar    1  UNL1       -0.2505
     26 C           2.9247   -0.1725    3.5311 C.ar    1  UNL1        0.0308
     27 N           1.9687    0.7299    3.2801 N.ar    1  UNL1       -0.3464
     28 C           0.7070    2.0631    0.5451 C.3     1  UNL1       -0.0028
     29 C          -0.4047    2.7350   -0.1720 C.ar    1  UNL1       -0.0146
     30 C          -1.5034    1.9651   -0.4870 C.ar    1  UNL1        0.0546
     31 N          -2.3917    2.7585   -1.1299 N.ar    1  UNL1       -0.3556
     32 C          -1.9017    4.0056   -1.2372 C.ar    1  UNL1        0.0470
     33 C          -2.3648    5.1837   -1.7819 C.ar    1  UNL1       -0.0378
     34 C          -1.6054    6.3315   -1.7328 C.ar    1  UNL1       -0.0598
     35 C          -0.3545    6.3657   -1.1432 C.ar    1  UNL1       -0.0611
     36 C           0.1037    5.1731   -0.5969 C.ar    1  UNL1       -0.0523
     37 C          -0.6374    4.0116   -0.6335 C.ar    1  UNL1        0.0032
     38 C          -0.0510    0.2483   -2.2384 C.ar    1  UNL1        0.0552
     39 N           0.6191   -0.7980   -2.7652 N.ar    1  UNL1       -0.1793
     40 H          -0.1612   -4.9755   -2.3991 H       1  UNL1        0.0247
     41 H           0.6371   -4.4377   -3.9425 H       1  UNL1        0.0247
     42 H          -0.7677   -3.5219   -3.2780 H       1  UNL1        0.0247
     43 H           2.0557   -3.0837   -2.7286 H       1  UNL1        0.0506
     44 H           1.2979   -3.6989   -1.2474 H       1  UNL1        0.0506
     45 H          -0.5072   -2.2006   -0.1302 H       1  UNL1        0.0830
     46 H          -6.5975   -1.6863   -1.3514 H       1  UNL1        0.0475
     47 H          -6.5553    0.0950   -1.8521 H       1  UNL1        0.0475
     48 H          -5.5874   -1.1363   -2.7001 H       1  UNL1        0.0475
     49 H          -0.8063   -0.6553    1.4049 H       1  UNL1        0.1242
     50 H          -0.2033    1.8561    2.4310 H       1  UNL1        0.0544
     51 H           4.8045   -1.8109    4.1508 H       1  UNL1        0.0640
     52 H           6.2596   -3.7978    3.9673 H       1  UNL1        0.0647
     53 H           4.0723   -4.9136    0.4334 H       1  UNL1        0.0859
     54 H           3.6202   -0.1517    4.3448 H       1  UNL1        0.0829
     55 H           1.7911    1.5738    3.8637 H       1  UNL1        0.1666
     56 H           1.4188    1.5730   -0.1261 H       1  UNL1        0.0333
     57 H           1.3070    2.8567    1.0819 H       1  UNL1        0.0333
     58 H          -3.3232    2.4624   -1.4947 H       1  UNL1        0.1657
     59 H          -3.3278    5.2407   -2.2586 H       1  UNL1        0.0638
     60 H          -1.9899    7.2392   -2.1658 H       1  UNL1        0.0618
     61 H           0.2592    7.2537   -1.0923 H       1  UNL1        0.0618
     62 H           1.0875    5.1271   -0.1132 H       1  UNL1        0.0624
     63 H          -0.1424    1.2450   -2.6393 H       1  UNL1        0.0851
@<TRIPOS>BOND
     1     1     2    1
     2     2     3    1
     3     3     4   ar
     4     4     5   ar
     5     6     5    1
     6     6     7    1
     7     7     8   ar
     8     8     9   ar
     9     9    10    1
    10     9    11   ar
    11    11    12    2
    12    11    13   ar
    13     6    14    1
    14    14    15    1
    15    15    16    1
    16    16    17   ar
    17    17    18   ar
    18    18    19    1
    19    19    20   ar
    20    20    21   ar
    21    21    22   ar
    22    22    23    1
    23    22    24   ar
    24    24    25   ar
    25    18    26   ar
    26    26    27   ar
    27    15    28    1
    28    28    29    1
    29    29    30   ar
    30    30    31   ar
    31    31    32   ar
    32    32    33   ar
    33    33    34   ar
    34    34    35   ar
    35    35    36   ar
    36    36    37   ar
    37     5    38   ar
    38    38    39   ar
    39    39     3   ar
    40    30     6    1
    41    37    32   ar
    42    13     7   ar
    43    27    16   ar
    44    37    29   ar
    45    25    19   ar
    46     1    40    1
    47     1    41    1
    48     1    42    1
    49     2    43    1
    50     2    44    1
    51     4    45    1
    52    10    46    1
    53    10    47    1
    54    10    48    1
    55    14    49    1
    56    15    50    1
    57    20    51    1
    58    21    52    1
    59    24    53    1
    60    26    54    1
    61    27    55    1
    62    28    56    1
    63    28    57    1
    64    31    58    1
    65    33    59    1
    66    34    60    1
    67    35    61    1
    68    36    62    1
    69    38    63    1
