@<TRIPOS>MOLECULE
*****
 78 82 0 0 0
SMALL
GASTEIGER

@<TRIPOS>ATOM
      1 C          -1.2553   -0.5684    1.7615 C.3     1  UNL1        0.1680
      2 O          -0.0414   -0.5213    1.0178 O.3     1  UNL1       -0.4508
      3 C           1.0987    0.0647    1.5468 C.2     1  UNL1        0.3404
      4 O           1.0734    0.5655    2.6995 O.2     1  UNL1       -0.2476
      5 C           2.5195    0.3793    1.2670 C.3     1  UNL1        0.1721
      6 O           2.9633    0.9538    2.5232 O.3     1  UNL1       -0.3769
      7 C           3.3642   -0.8256    1.0999 C.3     1  UNL1       -0.0129
      8 C           3.0321   -1.7895    0.0450 C.3     1  UNL1       -0.0473
      9 C           3.0760   -1.4107   -1.3756 C.3     1  UNL1       -0.0244
     10 C           4.3806   -0.9937   -1.9513 C.3     1  UNL1        0.0605
     11 C           4.0802   -0.6606   -3.4252 C.3     1  UNL1       -0.0363
     12 C           5.3836   -2.1323   -2.0233 C.3     1  UNL1       -0.0363
     13 O           4.9788    0.1131   -1.4151 O.3     1  UNL1       -0.3891
     14 C           2.6661    1.5013    0.3119 C.3     1  UNL1        0.0841
     15 C           1.9849    2.6895    0.9659 C.2     1  UNL1        0.3101
     16 O           0.8529    2.9455    1.4641 O.2     1  UNL1       -0.2507
     17 O           2.5420    3.9464    1.1988 O.3     1  UNL1       -0.4678
     18 C           1.8775    5.0105    1.8070 C.3     1  UNL1        0.0817
     19 C          -1.5925   -1.9644    2.1690 C.2     1  UNL1        0.1362
     20 O          -0.9625   -2.7987    3.0705 O.2     1  UNL1       -0.4959
     21 C          -1.3367   -4.1210    3.3251 C.3     1  UNL1        0.0785
     22 C          -2.6666   -2.3250    1.4933 C.2     1  UNL1       -0.0219
     23 C          -3.1906   -1.2556    0.5633 C.3     1  UNL1        0.0542
     24 C          -4.6814   -1.1900    0.8059 C.3     1  UNL1       -0.0289
     25 C          -5.1579   -2.4183    0.0512 C.3     1  UNL1       -0.0382
     26 C          -3.9580   -2.8871   -0.7642 C.3     1  UNL1       -0.0002
     27 N          -2.9911   -1.7820   -0.7264 N.3     1  UNL1       -0.2921
     28 C          -3.2781   -0.9616   -1.8528 C.3     1  UNL1        0.0037
     29 C          -1.9604   -0.2397   -2.1726 C.3     1  UNL1       -0.0144
     30 C          -1.9956    0.9957   -1.3349 C.ar    1  UNL1       -0.0388
     31 C          -1.7858    2.0865   -2.1505 C.ar    1  UNL1       -0.0127
     32 C          -1.7963    3.3020   -1.4959 C.ar    1  UNL1        0.1665
     33 C          -1.9994    3.4102   -0.1403 C.ar    1  UNL1        0.1665
     34 O          -1.9360    4.7708    0.1150 O.3     1  UNL1       -0.4526
     35 C          -2.1142    5.5200   -1.0975 C.3     1  UNL1        0.2332
     36 O          -1.6137    4.5794   -2.0483 O.3     1  UNL1       -0.4526
     37 C          -2.2054    2.2542    0.6232 C.ar    1  UNL1       -0.0122
     38 C          -2.2094    0.9808    0.0296 C.ar    1  UNL1       -0.0314
     39 C          -2.4512   -0.0712    1.0139 C.3     1  UNL1        0.0508
     40 H          -1.1035   -0.0509    2.7637 H       1  UNL1        0.0823
     41 H           3.3950    0.2949    3.0804 H       1  UNL1        0.2109
     42 H           3.2931   -1.3898    2.0822 H       1  UNL1        0.0298
     43 H           4.4264   -0.4811    1.0981 H       1  UNL1        0.0298
     44 H           3.5843   -2.7691    0.1442 H       1  UNL1        0.0267
     45 H           1.9537   -2.1095    0.2397 H       1  UNL1        0.0267
     46 H           2.8096   -2.3690   -1.9450 H       1  UNL1        0.0293
     47 H           2.2925   -0.7132   -1.7358 H       1  UNL1        0.0293
     48 H           3.5148   -1.4573   -3.9264 H       1  UNL1        0.0257
     49 H           3.5315    0.3158   -3.4034 H       1  UNL1        0.0257
     50 H           5.0478   -0.4451   -3.8992 H       1  UNL1        0.0257
     51 H           5.3980   -2.6815   -1.0623 H       1  UNL1        0.0257
     52 H           5.0596   -2.7919   -2.8618 H       1  UNL1        0.0257
     53 H           6.3724   -1.6680   -2.2356 H       1  UNL1        0.0257
     54 H           5.9488    0.1336   -1.5753 H       1  UNL1        0.2101
     55 H           3.7388    1.8327    0.2810 H       1  UNL1        0.0412
     56 H           2.1999    1.3539   -0.6549 H       1  UNL1        0.0412
     57 H           1.0103    5.3483    1.1948 H       1  UNL1        0.0661
     58 H           1.5792    4.7190    2.8361 H       1  UNL1        0.0661
     59 H           2.6186    5.8518    1.9278 H       1  UNL1        0.0661
     60 H          -0.6616   -4.5365    4.1023 H       1  UNL1        0.0660
     61 H          -1.2481   -4.7549    2.3951 H       1  UNL1        0.0660
     62 H          -2.3996   -4.1202    3.6803 H       1  UNL1        0.0660
     63 H          -3.1663   -3.2653    1.5505 H       1  UNL1        0.0625
     64 H          -4.8574   -1.2600    1.8967 H       1  UNL1        0.0287
     65 H          -5.1306   -0.2509    0.4509 H       1  UNL1        0.0287
     66 H          -5.4596   -3.1643    0.8234 H       1  UNL1        0.0278
     67 H          -6.0333   -2.2001   -0.5775 H       1  UNL1        0.0278
     68 H          -4.3390   -3.0280   -1.8125 H       1  UNL1        0.0427
     69 H          -3.5281   -3.8267   -0.3699 H       1  UNL1        0.0427
     70 H          -4.0510   -0.2027   -1.5905 H       1  UNL1        0.0430
     71 H          -3.6749   -1.4945   -2.7266 H       1  UNL1        0.0430
     72 H          -1.0912   -0.8411   -1.8391 H       1  UNL1        0.0326
     73 H          -1.8691   -0.0189   -3.2571 H       1  UNL1        0.0326
     74 H          -1.6334    1.9453   -3.2111 H       1  UNL1        0.0658
     75 H          -1.5429    6.4613   -1.0964 H       1  UNL1        0.1166
     76 H          -3.2012    5.6695   -1.2552 H       1  UNL1        0.1166
     77 H          -2.3630    2.4027    1.6884 H       1  UNL1        0.0658
     78 H          -3.1144    0.4092    1.8056 H       1  UNL1        0.0411
@<TRIPOS>BOND
     1     1     2    1
     2     2     3    1
     3     3     4    2
     4     3     5    1
     5     5     6    1
     6     5     7    1
     7     7     8    1
     8     8     9    1
     9     9    10    1
    10    10    11    1
    11    10    12    1
    12    10    13    1
    13     5    14    1
    14    14    15    1
    15    15    16    2
    16    15    17    1
    17    17    18    1
    18     1    19    1
    19    19    20    1
    20    20    21    1
    21    19    22    2
    22    22    23    1
    23    23    24    1
    24    24    25    1
    25    25    26    1
    26    26    27    1
    27    27    28    1
    28    28    29    1
    29    29    30    1
    30    30    31   ar
    31    31    32   ar
    32    32    33   ar
    33    33    34    1
    34    34    35    1
    35    35    36    1
    36    33    37   ar
    37    37    38   ar
    38    38    39    1
    39    39     1    1
    40    27    23    1
    41    38    30   ar
    42    39    23    1
    43    36    32    1
    44     1    40    1
    45     6    41    1
    46     7    42    1
    47     7    43    1
    48     8    44    1
    49     8    45    1
    50     9    46    1
    51     9    47    1
    52    11    48    1
    53    11    49    1
    54    11    50    1
    55    12    51    1
    56    12    52    1
    57    12    53    1
    58    13    54    1
    59    14    55    1
    60    14    56    1
    61    18    57    1
    62    18    58    1
    63    18    59    1
    64    21    60    1
    65    21    61    1
    66    21    62    1
    67    22    63    1
    68    24    64    1
    69    24    65    1
    70    25    66    1
    71    25    67    1
    72    26    68    1
    73    26    69    1
    74    28    70    1
    75    28    71    1
    76    29    72    1
    77    29    73    1
    78    31    74    1
    79    35    75    1
    80    35    76    1
    81    37    77    1
    82    39    78    1
