@<TRIPOS>MOLECULE
*****
 42 45 0 0 0
SMALL
GASTEIGER

@<TRIPOS>ATOM
      1 C           1.4940   -1.0004    0.7893 C.3     1  UNL1        0.0865
      2 C           2.7756   -1.2086    1.5914 C.3     1  UNL1        0.0210
      3 N           3.0525   -2.5904    1.8400 N.3     1  UNL1       -0.3276
      4 C           1.3765    0.5140    0.5670 C.3     1  UNL1        0.0398
      5 N           0.6513    0.7341   -0.6691 N.pl3   1  UNL1       -0.3241
      6 C           1.4019    0.2468   -1.8383 C.3     1  UNL1        0.0358
      7 C           2.2549   -0.8909   -1.3859 C.3     1  UNL1        0.0638
      8 O           1.6499   -1.6506   -0.4207 O.3     1  UNL1       -0.3722
      9 C          -0.5881    1.3703   -0.5170 C.ar    1  UNL1        0.0514
     10 C          -1.8414    0.8496   -0.2922 C.ar    1  UNL1        0.0220
     11 C          -2.9386    1.7017   -0.1796 C.ar    1  UNL1        0.0394
     12 N          -2.7832    3.0334   -0.2889 N.ar    1  UNL1       -0.2354
     13 C          -1.5798    3.5897   -0.5083 C.ar    1  UNL1        0.1574
     14 C          -0.4605    2.7571   -0.6256 C.ar    1  UNL1        0.0599
     15 C           0.5654    3.6857   -0.8418 C.ar    1  UNL1        0.0603
     16 N           0.0581    4.9216   -0.8438 N.ar    1  UNL1       -0.1798
     17 N          -1.2434    4.8797   -0.6425 N.ar    1  UNL1       -0.2602
     18 C          -1.9790   -0.5927   -0.1767 C.ar    1  UNL1       -0.0146
     19 C          -1.5502   -1.6649   -0.9160 C.ar    1  UNL1       -0.0539
     20 C          -1.8476   -2.9481   -0.5226 C.ar    1  UNL1       -0.0612
     21 C          -2.5793   -3.2380    0.6137 C.ar    1  UNL1       -0.0617
     22 C          -3.0216   -2.1752    1.3731 C.ar    1  UNL1       -0.0612
     23 C          -2.7245   -0.8662    0.9820 C.ar    1  UNL1       -0.0539
     24 H           0.6207   -1.4144    1.3065 H       1  UNL1        0.0624
     25 H           2.7075   -0.6955    2.5842 H       1  UNL1        0.0448
     26 H           3.6366   -0.7359    1.0829 H       1  UNL1        0.0448
     27 H           3.8888   -2.9469    1.3212 H       1  UNL1        0.1183
     28 H           3.2307   -2.8242    2.8420 H       1  UNL1        0.1183
     29 H           2.4192    0.8615    0.4014 H       1  UNL1        0.0490
     30 H           0.9110    0.9521    1.4487 H       1  UNL1        0.0490
     31 H           2.0254    1.0909   -2.2138 H       1  UNL1        0.0486
     32 H           0.7710   -0.0537   -2.6696 H       1  UNL1        0.0486
     33 H           2.3946   -1.5692   -2.2740 H       1  UNL1        0.0575
     34 H           3.2887   -0.5774   -1.1248 H       1  UNL1        0.0575
     35 H          -3.9105    1.2578   -0.0028 H       1  UNL1        0.0837
     36 H           1.5953    3.3852   -0.9796 H       1  UNL1        0.0855
     37 H          -1.7780    5.7512   -0.6169 H       1  UNL1        0.1905
     38 H          -1.0055   -1.3347   -1.7639 H       1  UNL1        0.0624
     39 H          -1.4452   -3.6993   -1.2009 H       1  UNL1        0.0618
     40 H          -2.7531   -4.2846    0.8262 H       1  UNL1        0.0618
     41 H          -3.5829   -2.4550    2.2412 H       1  UNL1        0.0618
     42 H          -3.1570   -0.1654    1.7047 H       1  UNL1        0.0624
@<TRIPOS>BOND
     1     1     2    1
     2     2     3    1
     3     1     4    1
     4     4     5    1
     5     5     6    1
     6     6     7    1
     7     7     8    1
     8     5     9    1
     9     9    10   ar
    10    10    11   ar
    11    11    12   ar
    12    12    13   ar
    13    13    14   ar
    14    14    15   ar
    15    15    16   ar
    16    16    17   ar
    17    10    18    1
    18    18    19   ar
    19    19    20   ar
    20    20    21   ar
    21    21    22   ar
    22    22    23   ar
    23     8     1    1
    24    14     9   ar
    25    23    18   ar
    26    17    13   ar
    27     1    24    1
    28     2    25    1
    29     2    26    1
    30     3    27    1
    31     3    28    1
    32     4    29    1
    33     4    30    1
    34     6    31    1
    35     6    32    1
    36     7    33    1
    37     7    34    1
    38    11    35    1
    39    15    36    1
    40    17    37    1
    41    19    38    1
    42    20    39    1
    43    21    40    1
    44    22    41    1
    45    23    42    1
