
     RDKit          3D

 42 45  0  0  0  0  0  0  0  0999 V2000
    1.4940   -1.0004    0.7893 C   0  0  1  0  0  0  0  0  0  0  0  0
    2.7756   -1.2086    1.5914 C   0  0  0  0  0  0  0  0  0  0  0  0
    3.0525   -2.5904    1.8400 N   0  0  0  0  0  0  0  0  0  0  0  0
    1.3765    0.5140    0.5670 C   0  0  0  0  0  0  0  0  0  0  0  0
    0.6513    0.7341   -0.6691 N   0  0  0  0  0  0  0  0  0  0  0  0
    1.4019    0.2468   -1.8383 C   0  0  0  0  0  0  0  0  0  0  0  0
    2.2549   -0.8909   -1.3859 C   0  0  0  0  0  0  0  0  0  0  0  0
    1.6499   -1.6506   -0.4207 O   0  0  0  0  0  0  0  0  0  0  0  0
   -0.5881    1.3703   -0.5170 C   0  0  0  0  0  0  0  0  0  0  0  0
   -1.8414    0.8496   -0.2922 C   0  0  0  0  0  0  0  0  0  0  0  0
   -2.9386    1.7017   -0.1796 C   0  0  0  0  0  0  0  0  0  0  0  0
   -2.7832    3.0334   -0.2889 N   0  0  0  0  0  0  0  0  0  0  0  0
   -1.5798    3.5897   -0.5083 C   0  0  0  0  0  0  0  0  0  0  0  0
   -0.4605    2.7571   -0.6256 C   0  0  0  0  0  0  0  0  0  0  0  0
    0.5654    3.6857   -0.8418 C   0  0  0  0  0  0  0  0  0  0  0  0
    0.0581    4.9216   -0.8438 N   0  0  0  0  0  0  0  0  0  0  0  0
   -1.2434    4.8797   -0.6425 N   0  0  0  0  0  0  0  0  0  0  0  0
   -1.9790   -0.5927   -0.1767 C   0  0  0  0  0  0  0  0  0  0  0  0
   -1.5502   -1.6649   -0.9160 C   0  0  0  0  0  0  0  0  0  0  0  0
   -1.8476   -2.9481   -0.5226 C   0  0  0  0  0  0  0  0  0  0  0  0
   -2.5793   -3.2380    0.6137 C   0  0  0  0  0  0  0  0  0  0  0  0
   -3.0216   -2.1752    1.3731 C   0  0  0  0  0  0  0  0  0  0  0  0
   -2.7245   -0.8662    0.9820 C   0  0  0  0  0  0  0  0  0  0  0  0
    0.6207   -1.4144    1.3065 H   0  0  0  0  0  0  0  0  0  0  0  0
    2.7075   -0.6955    2.5842 H   0  0  0  0  0  0  0  0  0  0  0  0
    3.6366   -0.7359    1.0829 H   0  0  0  0  0  0  0  0  0  0  0  0
    3.8888   -2.9469    1.3212 H   0  0  0  0  0  0  0  0  0  0  0  0
    3.2307   -2.8242    2.8420 H   0  0  0  0  0  0  0  0  0  0  0  0
    2.4192    0.8615    0.4014 H   0  0  0  0  0  0  0  0  0  0  0  0
    0.9110    0.9521    1.4487 H   0  0  0  0  0  0  0  0  0  0  0  0
    2.0254    1.0909   -2.2138 H   0  0  0  0  0  0  0  0  0  0  0  0
    0.7710   -0.0537   -2.6696 H   0  0  0  0  0  0  0  0  0  0  0  0
    2.3946   -1.5692   -2.2740 H   0  0  0  0  0  0  0  0  0  0  0  0
    3.2887   -0.5774   -1.1248 H   0  0  0  0  0  0  0  0  0  0  0  0
   -3.9105    1.2578   -0.0028 H   0  0  0  0  0  0  0  0  0  0  0  0
    1.5953    3.3852   -0.9796 H   0  0  0  0  0  0  0  0  0  0  0  0
   -1.7780    5.7512   -0.6169 H   0  0  0  0  0  0  0  0  0  0  0  0
   -1.0055   -1.3347   -1.7639 H   0  0  0  0  0  0  0  0  0  0  0  0
   -1.4452   -3.6993   -1.2009 H   0  0  0  0  0  0  0  0  0  0  0  0
   -2.7531   -4.2846    0.8262 H   0  0  0  0  0  0  0  0  0  0  0  0
   -3.5829   -2.4550    2.2412 H   0  0  0  0  0  0  0  0  0  0  0  0
   -3.1570   -0.1654    1.7047 H   0  0  0  0  0  0  0  0  0  0  0  0
  1  2  1  0
  2  3  1  0
  1  4  1  0
  4  5  1  0
  5  6  1  0
  6  7  1  0
  7  8  1  0
  5  9  1  0
  9 10  1  0
 10 11  2  0
 11 12  1  0
 12 13  2  0
 13 14  1  0
 14 15  1  0
 15 16  2  0
 16 17  1  0
 10 18  1  0
 18 19  2  0
 19 20  1  0
 20 21  2  0
 21 22  1  0
 22 23  2  0
  8  1  1  0
 14  9  2  0
 23 18  1  0
 17 13  1  0
  1 24  1  1
  2 25  1  0
  2 26  1  0
  3 27  1  0
  3 28  1  0
  4 29  1  0
  4 30  1  0
  6 31  1  0
  6 32  1  0
  7 33  1  0
  7 34  1  0
 11 35  1  0
 15 36  1  0
 17 37  1  0
 19 38  1  0
 20 39  1  0
 21 40  1  0
 22 41  1  0
 23 42  1  0
M  END
$$$$
