@<TRIPOS>MOLECULE
*****
 76 80 0 0 0
SMALL
GASTEIGER

@<TRIPOS>ATOM
      1 C           4.9966   -2.3723    1.1096 C.3     1  UNL1        0.1133
      2 C           3.6285   -2.7119    0.5100 C.3     1  UNL1        0.0836
      3 O           2.9375   -1.5271    0.3259 O.3     1  UNL1       -0.3245
      4 P           1.4164   -1.8996   -0.3403 P.3     1  UNL1        0.2222
      5 O           1.5353   -1.6040   -1.9914 O.co2   1  UNL1       -0.4370
      6 O           1.1048   -3.3807   -0.1320 O.2     1  UNL1       -0.5170
      7 O           0.2102   -0.9897    0.4068 O.3     1  UNL1       -0.2292
      8 P          -0.5994    0.0365   -0.6338 P.3     1  UNL1        0.4804
      9 O          -0.4918    1.6610   -0.1770 O.3     1  UNL1       -0.3023
     10 O          -0.0040   -0.0745   -2.0080 O.2     1  UNL1       -0.2270
     11 O          -2.2503   -0.3554   -0.7503 O.3     1  UNL1       -0.2838
     12 C          -2.5185   -1.4755   -0.0023 C.3     1  UNL1        0.0880
     13 C          -3.9653   -1.9160   -0.0339 C.3     1  UNL1        0.1177
     14 O          -4.8349   -0.9412    0.4473 O.3     1  UNL1       -0.3094
     15 C          -6.0451   -1.3117   -0.1158 C.3     1  UNL1        0.2949
     16 N          -7.1202   -0.4065    0.0957 N.ar    1  UNL1       -0.1731
     17 C          -8.3429   -0.9395    0.3652 C.ar    1  UNL1        0.1738
     18 C          -9.4135   -0.1018    0.5770 C.ar    1  UNL1        0.0029
     19 C          -9.2522    1.2740    0.5173 C.ar    1  UNL1       -0.0382
     20 C          -7.9882    1.7979    0.2392 C.ar    1  UNL1        0.0993
     21 C          -6.9439    0.9186    0.0337 C.ar    1  UNL1        0.1860
     22 C          -7.7157    3.2415    0.1545 C.2     1  UNL1        0.2181
     23 O          -8.7670    4.1269    0.3613 O.2     1  UNL1       -0.4922
     24 N          -6.5140    3.6810   -0.1088 N.2     1  UNL1       -0.2666
     25 C          -5.6431   -1.4365   -1.5887 C.3     1  UNL1        0.1727
     26 O          -6.6120   -2.0197   -2.3653 O.3     1  UNL1       -0.3803
     27 C          -4.4120   -2.3326   -1.3949 C.3     1  UNL1        0.1184
     28 O          -4.8904   -3.6446   -1.3373 O.3     1  UNL1       -0.3862
     29 O           5.6716   -1.5531    0.2421 O.3     1  UNL1       -0.3456
     30 C           5.8355   -0.3020    0.8113 C.3     1  UNL1        0.1675
     31 N           5.6957    0.7551   -0.1681 N.ar    1  UNL1       -0.2855
     32 C           4.7798    1.7160   -0.3721 C.ar    1  UNL1        0.1004
     33 N           5.1486    2.4488   -1.4564 N.ar    1  UNL1       -0.2306
     34 C           6.2983    1.9297   -1.9161 C.ar    1  UNL1        0.1473
     35 C           7.0483    2.3318   -2.9876 C.ar    1  UNL1        0.1472
     36 N           6.7137    3.4268   -3.8371 N.pl3   1  UNL1       -0.3413
     37 N           8.1719    1.6820   -3.2884 N.ar    1  UNL1       -0.2188
     38 C           8.5241    0.6450   -2.5147 C.ar    1  UNL1        0.1205
     39 N           7.7970    0.2330   -1.4529 N.ar    1  UNL1       -0.2159
     40 C           6.6539    0.8603   -1.1115 C.ar    1  UNL1        0.1674
     41 C           4.8472   -0.1849    1.9536 C.3     1  UNL1        0.1433
     42 O           5.4341    0.6123    2.9306 O.3     1  UNL1       -0.2762
     43 P           4.4990    1.9413    3.3683 P.3     1  UNL1        0.4728
     44 O           4.7475    2.3025    5.0023 O.3     1  UNL1       -0.3026
     45 O           2.8663    1.7093    3.0156 O.3     1  UNL1       -0.3026
     46 O           4.9573    3.1380    2.5656 O.2     1  UNL1       -0.2275
     47 C           4.7948   -1.6492    2.3998 C.3     1  UNL1        0.1144
     48 O           5.8820   -1.8995    3.2319 O.3     1  UNL1       -0.3864
     49 H           5.5425   -3.3151    1.2586 H       1  UNL1        0.0647
     50 H           3.0685   -3.4130    1.1591 H       1  UNL1        0.0591
     51 H           3.8299   -3.1517   -0.4897 H       1  UNL1        0.0591
     52 H          -0.8567    2.1855   -0.9230 H       1  UNL1        0.2220
     53 H          -1.9423   -2.3276   -0.4532 H       1  UNL1        0.0592
     54 H          -2.1460   -1.4136    1.0401 H       1  UNL1        0.0592
     55 H          -4.0344   -2.7593    0.7070 H       1  UNL1        0.0648
     56 H          -6.2709   -2.3270    0.2480 H       1  UNL1        0.1444
     57 H          -8.5387   -2.0200    0.4268 H       1  UNL1        0.1377
     58 H         -10.4094   -0.4396    0.7948 H       1  UNL1        0.0677
     59 H         -10.0505    1.9705    0.6739 H       1  UNL1        0.0629
     60 H          -5.9457    1.2678   -0.1847 H       1  UNL1        0.1385
     61 H          -8.6492    5.1400    0.2211 H       1  UNL1        0.2937
     62 H          -6.3665    4.7126   -0.1593 H       1  UNL1        0.1899
     63 H          -5.2348   -0.4824   -1.9721 H       1  UNL1        0.0716
     64 H          -6.5523   -1.5834   -3.2702 H       1  UNL1        0.2103
     65 H          -3.6580   -2.1750   -2.1885 H       1  UNL1        0.0649
     66 H          -5.0763   -3.9131   -2.2763 H       1  UNL1        0.2100
     67 H           6.8547   -0.2481    1.2469 H       1  UNL1        0.0867
     68 H           3.9180    1.8170    0.2726 H       1  UNL1        0.1030
     69 H           7.4728    4.0656   -4.1510 H       1  UNL1        0.1438
     70 H           5.8477    3.7996   -4.2694 H       1  UNL1        0.1438
     71 H           9.4204    0.0249   -2.6488 H       1  UNL1        0.1048
     72 H           3.8724    0.1770    1.6246 H       1  UNL1        0.0674
     73 H           5.1171    1.4893    5.4611 H       1  UNL1        0.2220
     74 H           2.3607    1.2578    3.7352 H       1  UNL1        0.2220
     75 H           3.8395   -1.9365    2.8350 H       1  UNL1        0.0648
     76 H           6.7163   -1.8420    2.7013 H       1  UNL1        0.2100
@<TRIPOS>UNITY_ATOM_ATTR
5 1
charge -1
16 1
charge 1
@<TRIPOS>BOND
     1     1     2    1
     2     2     3    1
     3     3     4    1
     4     4     5    1
     5     4     6    2
     6     4     7    1
     7     7     8    1
     8     8     9    1
     9     8    10    2
    10     8    11    1
    11    11    12    1
    12    12    13    1
    13    13    14    1
    14    14    15    1
    15    15    16    1
    16    16    17   ar
    17    17    18   ar
    18    18    19   ar
    19    19    20   ar
    20    20    21   ar
    21    20    22    1
    22    22    23    1
    23    22    24    2
    24    15    25    1
    25    25    26    1
    26    25    27    1
    27    27    28    1
    28     1    29    1
    29    29    30    1
    30    30    31    1
    31    31    32   ar
    32    32    33   ar
    33    33    34   ar
    34    34    35   ar
    35    35    36    1
    36    35    37   ar
    37    37    38   ar
    38    38    39   ar
    39    39    40   ar
    40    30    41    1
    41    41    42    1
    42    42    43    1
    43    43    44    1
    44    43    45    1
    45    43    46    2
    46    41    47    1
    47    47    48    1
    48    47     1    1
    49    27    13    1
    50    40    31   ar
    51    21    16   ar
    52    40    34   ar
    53     1    49    1
    54     2    50    1
    55     2    51    1
    56     9    52    1
    57    12    53    1
    58    12    54    1
    59    13    55    1
    60    15    56    1
    61    17    57    1
    62    18    58    1
    63    19    59    1
    64    21    60    1
    65    23    61    1
    66    24    62    1
    67    25    63    1
    68    26    64    1
    69    27    65    1
    70    28    66    1
    71    30    67    1
    72    32    68    1
    73    36    69    1
    74    36    70    1
    75    38    71    1
    76    41    72    1
    77    44    73    1
    78    45    74    1
    79    47    75    1
    80    48    76    1
