
     RDKit          3D

 75 80  0  0  0  0  0  0  0  0999 V2000
    2.1038    7.0312   -1.8965 C   0  0  0  0  0  0  0  0  0  0  0  0
    2.7075    5.8782   -1.6778 C   0  0  0  0  0  0  0  0  0  0  0  0
    2.6502    4.8405   -2.7499 C   0  0  0  0  0  0  0  0  0  0  0  0
    1.9847    3.5844   -2.2207 C   0  0  0  0  0  0  0  0  0  0  0  0
    2.6918    3.0150   -1.1161 N   0  0  0  0  0  0  0  0  0  0  0  0
    2.2189    1.8396   -0.4835 C   0  0  0  0  0  0  0  0  0  0  0  0
    2.9072    1.2768    0.5555 N   0  0  0  0  0  0  0  0  0  0  0  0
    2.4718    0.1694    1.1621 C   0  0  0  0  0  0  0  0  0  0  0  0
    3.1944   -0.4008    2.2252 N   0  0  0  0  0  0  0  0  0  0  0  0
    4.4323    0.0439    2.7698 C   0  0  0  0  0  0  0  0  0  0  0  0
    5.5331   -0.0080    1.7288 C   0  0  0  0  0  0  0  0  0  0  0  0
    5.9188    1.0647    0.9350 C   0  0  0  0  0  0  0  0  0  0  0  0
    7.2110    0.4215   -0.0895 S   0  0  0  0  0  0  0  0  0  0  0  0
    7.0700   -1.2962    0.7127 C   0  0  0  0  0  0  0  0  0  0  0  0
    8.0263   -2.2991    0.1585 C   0  0  0  0  0  0  0  0  0  0  0  0
    8.1019   -3.6341    0.5898 C   0  0  0  0  0  0  0  0  0  0  0  0
    9.0134   -4.3991   -0.0120 C   0  0  0  0  0  0  0  0  0  0  0  0
    9.8138   -3.8857   -0.9886 C   0  0  0  0  0  0  0  0  0  0  0  0
    9.1970   -2.1711   -1.0343 S   0  0  0  0  0  0  0  0  0  0  0  0
    6.2321   -1.0893    1.4581 N   0  0  0  0  0  0  0  0  0  0  0  0
    1.3369   -0.3779    0.7229 N   0  0  0  0  0  0  0  0  0  0  0  0
    0.6169    0.1473   -0.3094 C   0  0  0  0  0  0  0  0  0  0  0  0
   -0.5564   -0.5168   -0.6851 N   0  0  0  0  0  0  0  0  0  0  0  0
   -1.4625   -0.1210   -1.7279 C   0  0  0  0  0  0  0  0  0  0  0  0
   -1.6245   -1.4364   -2.4808 C   0  0  0  0  0  0  0  0  0  0  0  0
   -1.7242   -2.4354   -1.3483 C   0  0  0  0  0  0  0  0  0  0  0  0
   -1.1053   -1.7264   -0.1273 C   0  0  2  0  0  0  0  0  0  0  0  0
   -2.2053   -1.3884    0.8651 C   0  0  0  0  0  0  0  0  0  0  0  0
   -2.7960   -2.5538    1.4681 N   0  0  0  0  0  0  0  0  0  0  0  0
   -4.0330   -1.9911    2.5696 S   0  0  0  0  0  6  0  0  0  0  0  0
   -4.6839   -3.1643    3.2510 O   0  0  0  0  0  0  0  0  0  0  0  0
   -3.4139   -1.0351    3.5590 O   0  0  0  0  0  0  0  0  0  0  0  0
   -5.2678   -1.1166    1.6910 C   0  0  0  0  0  0  0  0  0  0  0  0
   -5.2371    0.2369    1.4582 C   0  0  0  0  0  0  0  0  0  0  0  0
   -6.2354    0.8688    0.7598 C   0  0  0  0  0  0  0  0  0  0  0  0
   -7.3293    0.1628    0.2536 C   0  0  0  0  0  0  0  0  0  0  0  0
   -8.3238    0.8091   -0.4465 C   0  0  0  0  0  0  0  0  0  0  0  0
   -9.3909    0.1072   -0.9394 C   0  0  0  0  0  0  0  0  0  0  0  0
   -9.4391   -1.2546   -0.7150 C   0  0  0  0  0  0  0  0  0  0  0  0
   -8.4521   -1.8955   -0.0199 C   0  0  0  0  0  0  0  0  0  0  0  0
   -7.3611   -1.1960    0.4870 C   0  0  0  0  0  0  0  0  0  0  0  0
   -6.3573   -1.8356    1.1898 C   0  0  0  0  0  0  0  0  0  0  0  0
    1.0791    1.2554   -0.8947 N   0  0  0  0  0  0  0  0  0  0  0  0
    2.1174    7.8161   -1.1478 H   0  0  0  0  0  0  0  0  0  0  0  0
    1.5817    7.2410   -2.8058 H   0  0  0  0  0  0  0  0  0  0  0  0
    3.2337    5.6617   -0.7625 H   0  0  0  0  0  0  0  0  0  0  0  0
    2.0829    5.1891   -3.6261 H   0  0  0  0  0  0  0  0  0  0  0  0
    3.6873    4.6109   -3.0768 H   0  0  0  0  0  0  0  0  0  0  0  0
    2.0205    2.8361   -3.0645 H   0  0  0  0  0  0  0  0  0  0  0  0
    0.9289    3.8014   -1.9845 H   0  0  0  0  0  0  0  0  0  0  0  0
    3.5599    3.4538   -0.7642 H   0  0  0  0  0  0  0  0  0  0  0  0
    2.7492   -1.2706    2.6661 H   0  0  0  0  0  0  0  0  0  0  0  0
    4.3608    1.0849    3.1751 H   0  0  0  0  0  0  0  0  0  0  0  0
    4.7452   -0.6130    3.5937 H   0  0  0  0  0  0  0  0  0  0  0  0
    5.5018    2.1458    0.9375 H   0  0  0  0  0  0  0  0  0  0  0  0
    7.4129   -4.0088    1.4047 H   0  0  0  0  0  0  0  0  0  0  0  0
    9.1479   -5.4810    0.2645 H   0  0  0  0  0  0  0  0  0  0  0  0
   10.6088   -4.2842   -1.6160 H   0  0  0  0  0  0  0  0  0  0  0  0
   -1.0374    0.5907   -2.4468 H   0  0  0  0  0  0  0  0  0  0  0  0
   -2.4361    0.2472   -1.3455 H   0  0  0  0  0  0  0  0  0  0  0  0
   -2.5075   -1.4378   -3.1285 H   0  0  0  0  0  0  0  0  0  0  0  0
   -0.7201   -1.6085   -3.0916 H   0  0  0  0  0  0  0  0  0  0  0  0
   -2.7588   -2.7405   -1.1649 H   0  0  0  0  0  0  0  0  0  0  0  0
   -1.1054   -3.3304   -1.6180 H   0  0  0  0  0  0  0  0  0  0  0  0
   -0.3851   -2.4133    0.3100 H   0  0  0  0  0  0  0  0  0  0  0  0
   -2.9587   -0.7554    0.3614 H   0  0  0  0  0  0  0  0  0  0  0  0
   -1.7510   -0.7632    1.6665 H   0  0  0  0  0  0  0  0  0  0  0  0
   -3.3150   -3.0984    0.7476 H   0  0  0  0  0  0  0  0  0  0  0  0
   -4.3982    0.7966    1.8414 H   0  0  0  0  0  0  0  0  0  0  0  0
   -6.2380    1.9384    0.5612 H   0  0  0  0  0  0  0  0  0  0  0  0
   -8.2679    1.8888   -0.6131 H   0  0  0  0  0  0  0  0  0  0  0  0
  -10.1801    0.6244   -1.4955 H   0  0  0  0  0  0  0  0  0  0  0  0
  -10.3023   -1.7865   -1.1207 H   0  0  0  0  0  0  0  0  0  0  0  0
   -8.4782   -2.9588    0.1619 H   0  0  0  0  0  0  0  0  0  0  0  0
   -6.4131   -2.9006    1.3549 H   0  0  0  0  0  0  0  0  0  0  0  0
  1  2  2  3
  2  3  1  0
  3  4  1  0
  4  5  1  0
  5  6  1  0
  6  7  2  0
  7  8  1  0
  8  9  1  0
  9 10  1  0
 10 11  1  0
 11 12  2  0
 12 13  1  0
 13 14  1  0
 14 15  1  0
 15 16  2  0
 16 17  1  0
 17 18  2  0
 18 19  1  0
 14 20  2  0
  8 21  2  0
 21 22  1  0
 22 23  1  0
 23 24  1  0
 24 25  1  0
 25 26  1  0
 26 27  1  0
 27 28  1  0
 28 29  1  0
 29 30  1  0
 30 31  2  0
 30 32  2  0
 30 33  1  0
 33 34  2  0
 34 35  1  0
 35 36  2  0
 36 37  1  0
 37 38  2  0
 38 39  1  0
 39 40  2  0
 40 41  1  0
 41 42  2  0
 22 43  2  0
 43  6  1  0
 20 11  1  0
 27 23  1  0
 42 33  1  0
 19 15  1  0
 41 36  1  0
  1 44  1  0
  1 45  1  0
  2 46  1  0
  3 47  1  0
  3 48  1  0
  4 49  1  0
  4 50  1  0
  5 51  1  0
  9 52  1  0
 10 53  1  0
 10 54  1  0
 12 55  1  0
 16 56  1  0
 17 57  1  0
 18 58  1  0
 24 59  1  0
 24 60  1  0
 25 61  1  0
 25 62  1  0
 26 63  1  0
 26 64  1  0
 27 65  1  1
 28 66  1  0
 28 67  1  0
 29 68  1  0
 34 69  1  0
 35 70  1  0
 37 71  1  0
 38 72  1  0
 39 73  1  0
 40 74  1  0
 42 75  1  0
M  END
$$$$
