@<TRIPOS>MOLECULE
*****
 75 80 0 0 0
SMALL
GASTEIGER

@<TRIPOS>ATOM
      1 C           2.1038    7.0312   -1.8965 C.2     1  UNL1       -0.1026
      2 C           2.7075    5.8782   -1.6778 C.2     1  UNL1       -0.0896
      3 C           2.6502    4.8405   -2.7499 C.3     1  UNL1       -0.0194
      4 C           1.9847    3.5844   -2.2207 C.3     1  UNL1        0.0152
      5 N           2.6918    3.0150   -1.1161 N.pl3   1  UNL1       -0.3130
      6 C           2.2189    1.8396   -0.4835 C.ar    1  UNL1        0.2211
      7 N           2.9072    1.2768    0.5555 N.ar    1  UNL1       -0.1810
      8 C           2.4718    0.1694    1.1621 C.ar    1  UNL1        0.2214
      9 N           3.1944   -0.4008    2.2252 N.pl3   1  UNL1       -0.3077
     10 C           4.4323    0.0439    2.7698 C.3     1  UNL1        0.0547
     11 C           5.5331   -0.0080    1.7288 C.ar    1  UNL1        0.0662
     12 C           5.9188    1.0647    0.9350 C.ar    1  UNL1        0.0005
     13 S           7.2110    0.4215   -0.0895 S.2     1  UNL1       -0.0748
     14 C           7.0700   -1.2962    0.7127 C.ar    1  UNL1        0.1151
     15 C           8.0263   -2.2991    0.1585 C.ar    1  UNL1        0.0443
     16 C           8.1019   -3.6341    0.5898 C.ar    1  UNL1       -0.0449
     17 C           9.0134   -4.3991   -0.0120 C.ar    1  UNL1       -0.0541
     18 C           9.8138   -3.8857   -0.9886 C.ar    1  UNL1       -0.0237
     19 S           9.1970   -2.1711   -1.0343 S.2     1  UNL1       -0.0946
     20 N           6.2321   -1.0893    1.4581 N.ar    1  UNL1       -0.2419
     21 N           1.3369   -0.3779    0.7229 N.ar    1  UNL1       -0.1809
     22 C           0.6169    0.1473   -0.3094 C.ar    1  UNL1        0.2239
     23 N          -0.5564   -0.5168   -0.6851 N.pl3   1  UNL1       -0.2952
     24 C          -1.4625   -0.1210   -1.7279 C.3     1  UNL1        0.0153
     25 C          -1.6245   -1.4364   -2.4808 C.3     1  UNL1       -0.0354
     26 C          -1.7242   -2.4354   -1.3483 C.3     1  UNL1       -0.0316
     27 C          -1.1053   -1.7264   -0.1273 C.3     1  UNL1        0.0403
     28 C          -2.2053   -1.3884    0.8651 C.3     1  UNL1        0.0361
     29 N          -2.7960   -2.5538    1.4681 N.3     1  UNL1       -0.1882
     30 S          -4.0330   -1.9911    2.5696 S.O2    1  UNL1        0.0585
     31 O          -4.6839   -3.1643    3.2510 O.2     1  UNL1       -0.1530
     32 O          -3.4139   -1.0351    3.5590 O.2     1  UNL1       -0.1530
     33 C          -5.2678   -1.1166    1.6910 C.ar    1  UNL1        0.1058
     34 C          -5.2371    0.2369    1.4582 C.ar    1  UNL1       -0.0348
     35 C          -6.2354    0.8688    0.7598 C.ar    1  UNL1       -0.0522
     36 C          -7.3293    0.1628    0.2536 C.ar    1  UNL1       -0.0178
     37 C          -8.3238    0.8091   -0.4465 C.ar    1  UNL1       -0.0540
     38 C          -9.3909    0.1072   -0.9394 C.ar    1  UNL1       -0.0612
     39 C          -9.4391   -1.2546   -0.7150 C.ar    1  UNL1       -0.0612
     40 C          -8.4521   -1.8955   -0.0199 C.ar    1  UNL1       -0.0540
     41 C          -7.3611   -1.1960    0.4870 C.ar    1  UNL1       -0.0160
     42 C          -6.3573   -1.8356    1.1898 C.ar    1  UNL1       -0.0276
     43 N           1.0791    1.2554   -0.8947 N.ar    1  UNL1       -0.1809
     44 H           2.1174    7.8161   -1.1478 H       1  UNL1        0.0532
     45 H           1.5817    7.2410   -2.8058 H       1  UNL1        0.0532
     46 H           3.2337    5.6617   -0.7625 H       1  UNL1        0.0567
     47 H           2.0829    5.1891   -3.6261 H       1  UNL1        0.0322
     48 H           3.6873    4.6109   -3.0768 H       1  UNL1        0.0322
     49 H           2.0205    2.8361   -3.0645 H       1  UNL1        0.0465
     50 H           0.9289    3.8014   -1.9845 H       1  UNL1        0.0465
     51 H           3.5599    3.4538   -0.7642 H       1  UNL1        0.1489
     52 H           2.7492   -1.2706    2.6661 H       1  UNL1        0.1493
     53 H           4.3608    1.0849    3.1751 H       1  UNL1        0.0527
     54 H           4.7452   -0.6130    3.5937 H       1  UNL1        0.0527
     55 H           5.5018    2.1458    0.9375 H       1  UNL1        0.0712
     56 H           7.4129   -4.0088    1.4047 H       1  UNL1        0.0630
     57 H           9.1479   -5.4810    0.2645 H       1  UNL1        0.0623
     58 H          10.6088   -4.2842   -1.6160 H       1  UNL1        0.0693
     59 H          -1.0374    0.5907   -2.4468 H       1  UNL1        0.0465
     60 H          -2.4361    0.2472   -1.3455 H       1  UNL1        0.0465
     61 H          -2.5075   -1.4378   -3.1285 H       1  UNL1        0.0281
     62 H          -0.7201   -1.6085   -3.0916 H       1  UNL1        0.0281
     63 H          -2.7588   -2.7405   -1.1649 H       1  UNL1        0.0284
     64 H          -1.1054   -3.3304   -1.6180 H       1  UNL1        0.0284
     65 H          -0.3851   -2.4133    0.3100 H       1  UNL1        0.0514
     66 H          -2.9587   -0.7554    0.3614 H       1  UNL1        0.0460
     67 H          -1.7510   -0.7632    1.6665 H       1  UNL1        0.0460
     68 H          -3.3150   -3.0984    0.7476 H       1  UNL1        0.1481
     69 H          -4.3982    0.7966    1.8414 H       1  UNL1        0.0637
     70 H          -6.2380    1.9384    0.5612 H       1  UNL1        0.0624
     71 H          -8.2679    1.8888   -0.6131 H       1  UNL1        0.0624
     72 H         -10.1801    0.6244   -1.4955 H       1  UNL1        0.0618
     73 H         -10.3023   -1.7865   -1.1207 H       1  UNL1        0.0618
     74 H          -8.4782   -2.9588    0.1619 H       1  UNL1        0.0624
     75 H          -6.4131   -2.9006    1.3549 H       1  UNL1        0.0643
@<TRIPOS>BOND
     1     1     2    2
     2     2     3    1
     3     3     4    1
     4     4     5    1
     5     5     6    1
     6     6     7   ar
     7     7     8   ar
     8     8     9    1
     9     9    10    1
    10    10    11    1
    11    11    12   ar
    12    12    13   ar
    13    13    14   ar
    14    14    15    1
    15    15    16   ar
    16    16    17   ar
    17    17    18   ar
    18    18    19   ar
    19    14    20   ar
    20     8    21   ar
    21    21    22   ar
    22    22    23    1
    23    23    24    1
    24    24    25    1
    25    25    26    1
    26    26    27    1
    27    27    28    1
    28    28    29    1
    29    29    30    1
    30    30    31    2
    31    30    32    2
    32    30    33    1
    33    33    34   ar
    34    34    35   ar
    35    35    36   ar
    36    36    37   ar
    37    37    38   ar
    38    38    39   ar
    39    39    40   ar
    40    40    41   ar
    41    41    42   ar
    42    22    43   ar
    43    43     6   ar
    44    20    11   ar
    45    27    23    1
    46    42    33   ar
    47    19    15   ar
    48    41    36   ar
    49     1    44    1
    50     1    45    1
    51     2    46    1
    52     3    47    1
    53     3    48    1
    54     4    49    1
    55     4    50    1
    56     5    51    1
    57     9    52    1
    58    10    53    1
    59    10    54    1
    60    12    55    1
    61    16    56    1
    62    17    57    1
    63    18    58    1
    64    24    59    1
    65    24    60    1
    66    25    61    1
    67    25    62    1
    68    26    63    1
    69    26    64    1
    70    27    65    1
    71    28    66    1
    72    28    67    1
    73    29    68    1
    74    34    69    1
    75    35    70    1
    76    37    71    1
    77    38    72    1
    78    39    73    1
    79    40    74    1
    80    42    75    1
