@<TRIPOS>MOLECULE
*****
 64 69 0 0 0
SMALL
GASTEIGER

@<TRIPOS>ATOM
      1 O          -2.8865   -1.9747   -0.5529 O.2     1  UNL1       -0.2702
      2 C          -3.0587   -1.2294    0.4736 C.2     1  UNL1        0.2449
      3 N          -1.9955   -0.3114    0.6947 N.am    1  UNL1       -0.3084
      4 C          -0.8200   -0.2126   -0.1339 C.3     1  UNL1        0.0263
      5 C          -0.5662    1.0993   -0.7774 C.3     1  UNL1       -0.0187
      6 C           0.7960    0.9904   -1.4865 C.3     1  UNL1        0.0127
      7 C           0.8757   -0.2999   -2.2841 C.3     1  UNL1       -0.0358
      8 C           1.4528   -1.3350   -1.3426 C.3     1  UNL1       -0.0358
      9 C           1.6722   -0.5329   -0.0752 C.3     1  UNL1        0.0127
     10 C           0.3810   -0.5520    0.7366 C.3     1  UNL1       -0.0187
     11 N           1.8593    0.8148   -0.5247 N.3     1  UNL1       -0.2922
     12 C           3.1052    1.0600   -1.1974 C.3     1  UNL1        0.0246
     13 C           4.2845    0.8540   -0.3529 C.ar    1  UNL1       -0.0328
     14 C           4.8881   -0.3710   -0.2561 C.ar    1  UNL1       -0.0568
     15 C           5.9968   -0.5740    0.5425 C.ar    1  UNL1       -0.0536
     16 C           6.5289    0.4762    1.2758 C.ar    1  UNL1       -0.0152
     17 C           7.6516    0.2813    2.0898 C.ar    1  UNL1       -0.0187
     18 C           8.1909    1.2948    2.8189 C.ar    1  UNL1        0.1240
     19 F           9.2714    1.1390    3.6125 F       1  UNL1       -0.2055
     20 C           7.5969    2.5467    2.7385 C.ar    1  UNL1       -0.0259
     21 C           6.4942    2.7222    1.9328 C.ar    1  UNL1       -0.0513
     22 C           5.9420    1.7005    1.1917 C.ar    1  UNL1       -0.0174
     23 C           4.8199    1.8914    0.3770 C.ar    1  UNL1       -0.0496
     24 C          -4.2330   -1.3379    1.3084 C.ar    1  UNL1        0.0444
     25 C          -4.1694   -1.7809    2.6299 C.ar    1  UNL1       -0.0490
     26 C          -5.2878   -1.8997    3.4196 C.ar    1  UNL1       -0.0610
     27 C          -6.5379   -1.5809    2.9332 C.ar    1  UNL1       -0.0611
     28 C          -6.6138   -1.1431    1.6315 C.ar    1  UNL1       -0.0533
     29 C          -5.4749   -1.0194    0.8196 C.ar    1  UNL1       -0.0058
     30 C          -5.6426   -0.5276   -0.5397 C.ar    1  UNL1       -0.0172
     31 C          -4.8855    0.5033   -1.0117 C.ar    1  UNL1       -0.0540
     32 C          -5.0831    0.9350   -2.3145 C.ar    1  UNL1       -0.0612
     33 C          -6.0147    0.3637   -3.1552 C.ar    1  UNL1       -0.0617
     34 C          -6.7843   -0.6875   -2.6697 C.ar    1  UNL1       -0.0612
     35 C          -6.5733   -1.1108   -1.3540 C.ar    1  UNL1       -0.0540
     36 H          -2.0592    0.3390    1.5073 H       1  UNL1        0.1493
     37 H          -0.8868   -1.0211   -0.8982 H       1  UNL1        0.0499
     38 H          -0.4897    1.9097   -0.0548 H       1  UNL1        0.0298
     39 H          -1.2805    1.3275   -1.6245 H       1  UNL1        0.0298
     40 H           0.9766    1.8481   -2.1342 H       1  UNL1        0.0463
     41 H           1.5454   -0.1113   -3.1534 H       1  UNL1        0.0281
     42 H          -0.0996   -0.5887   -2.7134 H       1  UNL1        0.0281
     43 H           2.3767   -1.8115   -1.7275 H       1  UNL1        0.0281
     44 H           0.7377   -2.1864   -1.1858 H       1  UNL1        0.0281
     45 H           2.4601   -0.9338    0.5591 H       1  UNL1        0.0463
     46 H           0.4621    0.1195    1.6112 H       1  UNL1        0.0298
     47 H           0.2132   -1.6068    1.0959 H       1  UNL1        0.0298
     48 H           3.2193    0.4501   -2.1408 H       1  UNL1        0.0476
     49 H           3.0335    2.1220   -1.5812 H       1  UNL1        0.0476
     50 H           4.5123   -1.2474   -0.8147 H       1  UNL1        0.0621
     51 H           6.4799   -1.5303    0.6263 H       1  UNL1        0.0624
     52 H           8.0798   -0.7156    2.1184 H       1  UNL1        0.0652
     53 H           8.0143    3.3517    3.3109 H       1  UNL1        0.0646
     54 H           6.0470    3.7047    1.8844 H       1  UNL1        0.0624
     55 H           4.4019    2.8772    0.3483 H       1  UNL1        0.0627
     56 H          -3.1979   -2.0326    3.0137 H       1  UNL1        0.0625
     57 H          -5.2353   -2.2458    4.4550 H       1  UNL1        0.0618
     58 H          -7.4087   -1.6816    3.5697 H       1  UNL1        0.0618
     59 H          -7.5651   -0.8922    1.2259 H       1  UNL1        0.0624
     60 H          -4.1371    1.0221   -0.4488 H       1  UNL1        0.0624
     61 H          -4.4891    1.7626   -2.7225 H       1  UNL1        0.0618
     62 H          -6.1820    0.6889   -4.1691 H       1  UNL1        0.0618
     63 H          -7.5310   -1.1871   -3.2608 H       1  UNL1        0.0618
     64 H          -7.1781   -1.9224   -0.9978 H       1  UNL1        0.0624
@<TRIPOS>BOND
     1     1     2    2
     2     2     3   am
     3     3     4    1
     4     4     5    1
     5     5     6    1
     6     6     7    1
     7     7     8    1
     8     8     9    1
     9     9    10    1
    10     9    11    1
    11    11    12    1
    12    12    13    1
    13    13    14   ar
    14    14    15   ar
    15    15    16   ar
    16    16    17   ar
    17    17    18   ar
    18    18    19    1
    19    18    20   ar
    20    20    21   ar
    21    21    22   ar
    22    22    23   ar
    23     2    24    1
    24    24    25   ar
    25    25    26   ar
    26    26    27   ar
    27    27    28   ar
    28    28    29   ar
    29    29    30    1
    30    30    31   ar
    31    31    32   ar
    32    32    33   ar
    33    33    34   ar
    34    34    35   ar
    35    10     4    1
    36    23    13   ar
    37    29    24   ar
    38    35    30   ar
    39    11     6    1
    40    22    16   ar
    41     3    36    1
    42     4    37    1
    43     5    38    1
    44     5    39    1
    45     6    40    1
    46     7    41    1
    47     7    42    1
    48     8    43    1
    49     8    44    1
    50     9    45    1
    51    10    46    1
    52    10    47    1
    53    12    48    1
    54    12    49    1
    55    14    50    1
    56    15    51    1
    57    17    52    1
    58    20    53    1
    59    21    54    1
    60    23    55    1
    61    25    56    1
    62    26    57    1
    63    27    58    1
    64    28    59    1
    65    31    60    1
    66    32    61    1
    67    33    62    1
    68    34    63    1
    69    35    64    1
