
     RDKit          3D

 69 71  0  0  0  0  0  0  0  0999 V2000
    6.8542    2.8541   -0.9022 C   0  0  0  0  0  0  0  0  0  0  0  0
    5.5660    2.3602   -0.3416 N   0  0  0  0  0  0  0  0  0  0  0  0
    4.9237    1.7468   -1.5160 C   0  0  0  0  0  0  0  0  0  0  0  0
    5.8287    1.3808    0.6652 C   0  0  0  0  0  0  0  0  0  0  0  0
    4.7019    0.8706    1.4594 C   0  0  0  0  0  0  0  0  0  0  0  0
    3.6224    0.2225    0.8005 N   0  0  0  0  0  0  0  0  0  0  0  0
    2.4926    1.0555    0.4449 C   0  0  0  0  0  0  0  0  0  0  0  0
    1.8281    0.4731   -0.7724 C   0  0  0  0  0  0  0  0  0  0  0  0
    1.0127   -0.6857   -0.3386 N   0  0  0  0  0  0  0  0  0  0  0  0
   -0.2727   -0.3949    0.0734 C   0  0  0  0  0  0  0  0  0  0  0  0
   -0.5556    0.8838    0.0591 O   0  0  0  0  0  0  0  0  0  0  0  0
   -1.3685   -1.3000    0.5272 C   0  0  0  0  0  0  0  0  0  0  0  0
   -1.4608   -2.6312    0.3585 C   0  0  0  0  0  0  0  0  0  0  0  0
   -2.5231   -3.3222    0.7771 C   0  0  0  0  0  0  0  0  0  0  0  0
   -2.8785   -4.7494    0.7252 C   0  0  0  0  0  0  0  0  0  0  0  0
   -4.2094   -4.9957    1.3549 C   0  0  0  0  0  0  0  0  0  0  0  0
   -2.9473   -5.1343   -0.7543 C   0  0  0  0  0  0  0  0  0  0  0  0
   -1.8295   -5.5787    1.4103 C   0  0  0  0  0  0  0  0  0  0  0  0
   -3.5441   -2.1112    1.4798 S   0  0  0  0  0  0  0  0  0  0  0  0
   -2.4661   -0.7011    1.1697 C   0  0  0  0  0  0  0  0  0  0  0  0
   -2.7372    0.6328    1.5242 N   0  0  0  0  0  0  0  0  0  0  0  0
   -3.4039    1.5691    0.6812 C   0  0  0  0  0  0  0  0  0  0  0  0
   -3.7851    1.1927   -0.4756 O   0  0  0  0  0  0  0  0  0  0  0  0
   -3.6691    2.8970    1.0521 N   0  0  0  0  0  0  0  0  0  0  0  0
   -4.3244    3.8635    0.2473 C   0  0  0  0  0  0  0  0  0  0  0  0
   -5.6855    4.0250    0.2624 C   0  0  0  0  0  0  0  0  0  0  0  0
   -6.2381    4.9973   -0.5560 C   0  0  0  0  0  0  0  0  0  0  0  0
   -5.4785    5.7985   -1.3747 C   0  0  0  0  0  0  0  0  0  0  0  0
   -4.1079    5.6328   -1.3868 C   0  0  0  0  0  0  0  0  0  0  0  0
   -3.1183    6.6383   -2.4166 Cl  0  0  0  0  0  0  0  0  0  0  0  0
   -3.5287    4.6585   -0.5699 C   0  0  0  0  0  0  0  0  0  0  0  0
   -1.7990    4.4511   -0.5864 Cl  0  0  0  0  0  0  0  0  0  0  0  0
    1.5225   -2.0172   -0.2944 C   0  0  0  0  0  0  0  0  0  0  0  0
    3.0674   -2.0091   -0.4381 C   0  0  0  0  0  0  0  0  0  0  0  0
    3.7124   -1.1850    0.5753 C   0  0  0  0  0  0  0  0  0  0  0  0
    4.4790   -1.7972    1.3971 O   0  0  0  0  0  0  0  0  0  0  0  0
    7.6194    2.0537   -0.8324 H   0  0  0  0  0  0  0  0  0  0  0  0
    7.2141    3.6964   -0.2698 H   0  0  0  0  0  0  0  0  0  0  0  0
    6.7100    3.2254   -1.9222 H   0  0  0  0  0  0  0  0  0  0  0  0
    4.8343    0.6629   -1.3108 H   0  0  0  0  0  0  0  0  0  0  0  0
    5.5496    1.8211   -2.4294 H   0  0  0  0  0  0  0  0  0  0  0  0
    3.9515    2.1827   -1.7493 H   0  0  0  0  0  0  0  0  0  0  0  0
    6.5442    1.8776    1.3936 H   0  0  0  0  0  0  0  0  0  0  0  0
    6.4757    0.5566    0.2325 H   0  0  0  0  0  0  0  0  0  0  0  0
    5.1341    0.2525    2.2914 H   0  0  0  0  0  0  0  0  0  0  0  0
    4.2491    1.7612    2.0001 H   0  0  0  0  0  0  0  0  0  0  0  0
    1.7264    1.0631    1.2740 H   0  0  0  0  0  0  0  0  0  0  0  0
    2.7581    2.1315    0.3299 H   0  0  0  0  0  0  0  0  0  0  0  0
    2.5308    0.1179   -1.5354 H   0  0  0  0  0  0  0  0  0  0  0  0
    1.1679    1.2317   -1.2520 H   0  0  0  0  0  0  0  0  0  0  0  0
   -0.6545   -3.2065   -0.1667 H   0  0  0  0  0  0  0  0  0  0  0  0
   -4.1243   -5.3858    2.3870 H   0  0  0  0  0  0  0  0  0  0  0  0
   -4.7372   -5.7691    0.7580 H   0  0  0  0  0  0  0  0  0  0  0  0
   -4.8143   -4.0548    1.4313 H   0  0  0  0  0  0  0  0  0  0  0  0
   -2.0295   -4.7549   -1.2167 H   0  0  0  0  0  0  0  0  0  0  0  0
   -3.8009   -4.6173   -1.1961 H   0  0  0  0  0  0  0  0  0  0  0  0
   -3.0002   -6.2344   -0.7892 H   0  0  0  0  0  0  0  0  0  0  0  0
   -0.8022   -5.2144    1.2618 H   0  0  0  0  0  0  0  0  0  0  0  0
   -1.9180   -6.6126    0.9854 H   0  0  0  0  0  0  0  0  0  0  0  0
   -2.0323   -5.6600    2.4918 H   0  0  0  0  0  0  0  0  0  0  0  0
   -2.4347    0.9620    2.4578 H   0  0  0  0  0  0  0  0  0  0  0  0
   -3.3542    3.1985    2.0086 H   0  0  0  0  0  0  0  0  0  0  0  0
   -6.2527    3.3866    0.9102 H   0  0  0  0  0  0  0  0  0  0  0  0
   -7.3027    5.1083   -0.5313 H   0  0  0  0  0  0  0  0  0  0  0  0
   -5.9876    6.5356   -1.9836 H   0  0  0  0  0  0  0  0  0  0  0  0
    1.2629   -2.5037    0.6445 H   0  0  0  0  0  0  0  0  0  0  0  0
    1.1993   -2.5555   -1.2002 H   0  0  0  0  0  0  0  0  0  0  0  0
    3.3450   -3.0823   -0.2874 H   0  0  0  0  0  0  0  0  0  0  0  0
    3.2924   -1.7649   -1.4797 H   0  0  0  0  0  0  0  0  0  0  0  0
  1  2  1  0
  2  3  1  0
  2  4  1  0
  4  5  1  0
  5  6  1  0
  6  7  1  0
  7  8  1  0
  8  9  1  0
  9 10  1  0
 10 11  2  0
 10 12  1  0
 12 13  1  0
 13 14  2  0
 14 15  1  0
 15 16  1  0
 15 17  1  0
 15 18  1  0
 14 19  1  0
 19 20  1  0
 20 21  1  0
 21 22  1  0
 22 23  2  0
 22 24  1  0
 24 25  1  0
 25 26  2  0
 26 27  1  0
 27 28  2  0
 28 29  1  0
 29 30  1  0
 29 31  2  0
 31 32  1  0
  9 33  1  0
 33 34  1  0
 34 35  1  0
 35 36  2  0
 35  6  1  0
 20 12  2  0
 31 25  1  0
  1 37  1  0
  1 38  1  0
  1 39  1  0
  3 40  1  0
  3 41  1  0
  3 42  1  0
  4 43  1  0
  4 44  1  0
  5 45  1  0
  5 46  1  0
  7 47  1  0
  7 48  1  0
  8 49  1  0
  8 50  1  0
 13 51  1  0
 16 52  1  0
 16 53  1  0
 16 54  1  0
 17 55  1  0
 17 56  1  0
 17 57  1  0
 18 58  1  0
 18 59  1  0
 18 60  1  0
 21 61  1  0
 24 62  1  0
 26 63  1  0
 27 64  1  0
 28 65  1  0
 33 66  1  0
 33 67  1  0
 34 68  1  0
 34 69  1  0
M  END
$$$$
