@<TRIPOS>MOLECULE
*****
 69 71 0 0 0
SMALL
GASTEIGER

@<TRIPOS>ATOM
      1 C           6.8542    2.8541   -0.9022 C.3     1  UNL1       -0.0130
      2 N           5.5660    2.3602   -0.3416 N.3     1  UNL1       -0.3069
      3 C           4.9237    1.7468   -1.5160 C.3     1  UNL1       -0.0130
      4 C           5.8287    1.3808    0.6652 C.3     1  UNL1        0.0141
      5 C           4.7019    0.8706    1.4594 C.3     1  UNL1        0.0275
      6 N           3.6224    0.2225    0.8005 N.am    1  UNL1       -0.2987
      7 C           2.4926    1.0555    0.4449 C.3     1  UNL1        0.0305
      8 C           1.8281    0.4731   -0.7724 C.3     1  UNL1        0.0308
      9 N           1.0127   -0.6857   -0.3386 N.am    1  UNL1       -0.2955
     10 C          -0.2727   -0.3949    0.0734 C.2     1  UNL1        0.2490
     11 O          -0.5556    0.8838    0.0591 O.2     1  UNL1       -0.2699
     12 C          -1.3685   -1.3000    0.5272 C.ar    1  UNL1        0.0657
     13 C          -1.4608   -2.6312    0.3585 C.ar    1  UNL1       -0.0370
     14 C          -2.5231   -3.3222    0.7771 C.ar    1  UNL1       -0.0023
     15 C          -2.8785   -4.7494    0.7252 C.3     1  UNL1       -0.0064
     16 C          -4.2094   -4.9957    1.3549 C.3     1  UNL1       -0.0556
     17 C          -2.9473   -5.1343   -0.7543 C.3     1  UNL1       -0.0556
     18 C          -1.8295   -5.5787    1.4103 C.3     1  UNL1       -0.0556
     19 S          -3.5441   -2.1112    1.4798 S.2     1  UNL1       -0.0771
     20 C          -2.4661   -0.7011    1.1697 C.ar    1  UNL1        0.0853
     21 N          -2.7372    0.6328    1.5242 N.am    1  UNL1       -0.2629
     22 C          -3.4039    1.5691    0.6812 C.2     1  UNL1        0.3085
     23 O          -3.7851    1.1927   -0.4756 O.2     1  UNL1       -0.2521
     24 N          -3.6691    2.8970    1.0521 N.am    1  UNL1       -0.2678
     25 C          -4.3244    3.8635    0.2473 C.ar    1  UNL1        0.0546
     26 C          -5.6855    4.0250    0.2624 C.ar    1  UNL1       -0.0389
     27 C          -6.2381    4.9973   -0.5560 C.ar    1  UNL1       -0.0585
     28 C          -5.4785    5.7985   -1.3747 C.ar    1  UNL1       -0.0419
     29 C          -4.1079    5.6328   -1.3868 C.ar    1  UNL1        0.0610
     30 CL         -3.1183    6.6383   -2.4166 Cl      1  UNL1       -0.0820
     31 C          -3.5287    4.6585   -0.5699 C.ar    1  UNL1        0.0804
     32 CL         -1.7990    4.4511   -0.5864 Cl      1  UNL1       -0.0801
     33 C           1.5225   -2.0172   -0.2944 C.3     1  UNL1        0.0233
     34 C           3.0674   -2.0091   -0.4381 C.3     1  UNL1        0.0399
     35 C           3.7124   -1.1850    0.5753 C.2     1  UNL1        0.2171
     36 O           4.4790   -1.7972    1.3971 O.2     1  UNL1       -0.2755
     37 H           7.6194    2.0537   -0.8324 H       1  UNL1        0.0391
     38 H           7.2141    3.6964   -0.2698 H       1  UNL1        0.0391
     39 H           6.7100    3.2254   -1.9222 H       1  UNL1        0.0391
     40 H           4.8343    0.6629   -1.3108 H       1  UNL1        0.0391
     41 H           5.5496    1.8211   -2.4294 H       1  UNL1        0.0391
     42 H           3.9515    2.1827   -1.7493 H       1  UNL1        0.0391
     43 H           6.5442    1.8776    1.3936 H       1  UNL1        0.0442
     44 H           6.4757    0.5566    0.2325 H       1  UNL1        0.0442
     45 H           5.1341    0.2525    2.2914 H       1  UNL1        0.0477
     46 H           4.2491    1.7612    2.0001 H       1  UNL1        0.0477
     47 H           1.7264    1.0631    1.2740 H       1  UNL1        0.0480
     48 H           2.7581    2.1315    0.3299 H       1  UNL1        0.0480
     49 H           2.5308    0.1179   -1.5354 H       1  UNL1        0.0480
     50 H           1.1679    1.2317   -1.2520 H       1  UNL1        0.0480
     51 H          -0.6545   -3.2065   -0.1667 H       1  UNL1        0.0634
     52 H          -4.1243   -5.3858    2.3870 H       1  UNL1        0.0238
     53 H          -4.7372   -5.7691    0.7580 H       1  UNL1        0.0238
     54 H          -4.8143   -4.0548    1.4313 H       1  UNL1        0.0238
     55 H          -2.0295   -4.7549   -1.2167 H       1  UNL1        0.0238
     56 H          -3.8009   -4.6173   -1.1961 H       1  UNL1        0.0238
     57 H          -3.0002   -6.2344   -0.7892 H       1  UNL1        0.0238
     58 H          -0.8022   -5.2144    1.2618 H       1  UNL1        0.0238
     59 H          -1.9180   -6.6126    0.9854 H       1  UNL1        0.0238
     60 H          -2.0323   -5.6600    2.4918 H       1  UNL1        0.0238
     61 H          -2.4347    0.9620    2.4578 H       1  UNL1        0.1569
     62 H          -3.3542    3.1985    2.0086 H       1  UNL1        0.1564
     63 H          -6.2527    3.3866    0.9102 H       1  UNL1        0.0637
     64 H          -7.3027    5.1083   -0.5313 H       1  UNL1        0.0619
     65 H          -5.9876    6.5356   -1.9836 H       1  UNL1        0.0633
     66 H           1.2629   -2.5037    0.6445 H       1  UNL1        0.0469
     67 H           1.1993   -2.5555   -1.2002 H       1  UNL1        0.0469
     68 H           3.3450   -3.0823   -0.2874 H       1  UNL1        0.0374
     69 H           3.2924   -1.7649   -1.4797 H       1  UNL1        0.0374
@<TRIPOS>BOND
     1     1     2    1
     2     2     3    1
     3     2     4    1
     4     4     5    1
     5     5     6    1
     6     6     7    1
     7     7     8    1
     8     8     9    1
     9     9    10   am
    10    10    11    2
    11    10    12    1
    12    12    13   ar
    13    13    14   ar
    14    14    15    1
    15    15    16    1
    16    15    17    1
    17    15    18    1
    18    14    19   ar
    19    19    20   ar
    20    20    21    1
    21    21    22   am
    22    22    23    2
    23    22    24   am
    24    24    25    1
    25    25    26   ar
    26    26    27   ar
    27    27    28   ar
    28    28    29   ar
    29    29    30    1
    30    29    31   ar
    31    31    32    1
    32     9    33    1
    33    33    34    1
    34    34    35    1
    35    35    36    2
    36    35     6   am
    37    20    12   ar
    38    31    25   ar
    39     1    37    1
    40     1    38    1
    41     1    39    1
    42     3    40    1
    43     3    41    1
    44     3    42    1
    45     4    43    1
    46     4    44    1
    47     5    45    1
    48     5    46    1
    49     7    47    1
    50     7    48    1
    51     8    49    1
    52     8    50    1
    53    13    51    1
    54    16    52    1
    55    16    53    1
    56    16    54    1
    57    17    55    1
    58    17    56    1
    59    17    57    1
    60    18    58    1
    61    18    59    1
    62    18    60    1
    63    21    61    1
    64    24    62    1
    65    26    63    1
    66    27    64    1
    67    28    65    1
    68    33    66    1
    69    33    67    1
    70    34    68    1
    71    34    69    1
