
     RDKit          3D

 70 74  0  0  0  0  0  0  0  0999 V2000
    8.6357   -4.0934   -2.2914 C   0  0  0  0  0  0  0  0  0  0  0  0
    7.9149   -3.0877   -1.6471 O   0  0  0  0  0  0  0  0  0  0  0  0
    8.4499   -1.9637   -1.0830 C   0  0  0  0  0  0  0  0  0  0  0  0
    9.7303   -1.5896   -1.0252 N   0  0  0  0  0  0  0  0  0  0  0  0
    9.8553   -0.4411   -0.3998 N   0  0  0  0  0  0  0  0  0  0  0  0
   11.0554    0.3255   -0.1152 C   0  0  0  0  0  0  0  0  0  0  0  0
    8.6181   -0.0088   -0.0133 C   0  0  0  0  0  0  0  0  0  0  0  0
    7.7242   -0.9568   -0.4366 C   0  0  0  0  0  0  0  0  0  0  0  0
    6.3217   -0.9860   -0.2918 N   0  0  0  0  0  0  0  0  0  0  0  0
    5.6178    0.0387    0.3837 C   0  0  0  0  0  0  0  0  0  0  0  0
    6.2145    1.0921    0.9406 N   0  0  0  0  0  0  0  0  0  0  0  0
    5.4903    2.0286    1.5694 C   0  0  0  0  0  0  0  0  0  0  0  0
    4.1134    1.8951    1.6373 C   0  0  0  0  0  0  0  0  0  0  0  0
    3.3617    2.8217    2.2632 F   0  0  0  0  0  0  0  0  0  0  0  0
    3.4725    0.8040    1.0625 C   0  0  0  0  0  0  0  0  0  0  0  0
    2.0264    0.6726    1.1355 C   0  0  0  0  0  0  0  0  0  0  0  0
    1.2263    0.6873    2.2554 C   0  0  0  0  0  0  0  0  0  0  0  0
   -0.0582    0.5324    1.8946 N   0  0  0  0  0  0  0  0  0  0  0  0
   -0.1468    0.4123    0.5485 C   0  0  0  0  0  0  0  0  0  0  0  0
   -1.2345    0.2387   -0.2815 C   0  0  0  0  0  0  0  0  0  0  0  0
   -2.5501    0.1523    0.2521 N   0  0  0  0  0  0  0  0  0  0  0  0
   -3.4006    1.2628    0.4675 C   0  0  0  0  0  0  0  0  0  0  0  0
   -2.8778    2.3886    0.1446 O   0  0  0  0  0  0  0  0  0  0  0  0
   -4.7538    1.2475    1.0018 C   0  0  1  0  0  0  0  0  0  0  0  0
   -5.1818    2.6981    1.2602 C   0  0  0  0  0  0  0  0  0  0  0  0
   -5.7696    0.6558    0.1746 N   0  0  0  0  0  0  0  0  0  0  0  0
   -5.5108   -0.6653   -0.2894 C   0  0  0  0  0  0  0  0  0  0  0  0
   -6.6971   -1.1210   -1.1446 C   0  0  0  0  0  0  0  0  0  0  0  0
   -7.9261   -1.1386   -0.4156 N   0  0  0  0  0  0  0  0  0  0  0  0
   -7.9488   -2.2974    0.4453 C   0  0  0  0  0  0  0  0  0  0  0  0
   -8.1827    0.0950    0.2852 C   0  0  2  0  0  0  0  0  0  0  0  0
   -8.8024    1.1688   -0.5592 C   0  0  0  0  0  0  0  0  0  0  0  0
   -6.9904    0.6375    0.9865 C   0  0  0  0  0  0  0  0  0  0  0  0
   -1.0041    0.1501   -1.6381 C   0  0  0  0  0  0  0  0  0  0  0  0
    0.2855    0.2331   -2.1552 C   0  0  0  0  0  0  0  0  0  0  0  0
    1.3604    0.4086   -1.2832 C   0  0  0  0  0  0  0  0  0  0  0  0
    1.1466    0.4989    0.0737 C   0  0  0  0  0  0  0  0  0  0  0  0
    4.2487   -0.0996    0.4477 N   0  0  0  0  0  0  0  0  0  0  0  0
    8.0803   -5.0156   -2.4583 H   0  0  0  0  0  0  0  0  0  0  0  0
    9.5768   -4.3662   -1.7415 H   0  0  0  0  0  0  0  0  0  0  0  0
    9.0097   -3.6589   -3.2635 H   0  0  0  0  0  0  0  0  0  0  0  0
   11.1697    1.0338   -0.9741 H   0  0  0  0  0  0  0  0  0  0  0  0
   10.9094    0.9617    0.7805 H   0  0  0  0  0  0  0  0  0  0  0  0
   11.9442   -0.3294   -0.0130 H   0  0  0  0  0  0  0  0  0  0  0  0
    8.4182    0.9178    0.5257 H   0  0  0  0  0  0  0  0  0  0  0  0
    5.7815   -1.8050   -0.7050 H   0  0  0  0  0  0  0  0  0  0  0  0
    6.0111    2.8646    2.0077 H   0  0  0  0  0  0  0  0  0  0  0  0
    1.5439    0.8027    3.2803 H   0  0  0  0  0  0  0  0  0  0  0  0
   -0.8952    0.5040    2.5311 H   0  0  0  0  0  0  0  0  0  0  0  0
   -2.9006   -0.7918    0.5141 H   0  0  0  0  0  0  0  0  0  0  0  0
   -4.8030    0.7773    2.0321 H   0  0  0  0  0  0  0  0  0  0  0  0
   -4.2503    3.3356    1.3184 H   0  0  0  0  0  0  0  0  0  0  0  0
   -5.6932    3.0352    0.3434 H   0  0  0  0  0  0  0  0  0  0  0  0
   -5.7816    2.7894    2.1763 H   0  0  0  0  0  0  0  0  0  0  0  0
   -5.2958   -1.3777    0.5164 H   0  0  0  0  0  0  0  0  0  0  0  0
   -4.6352   -0.6934   -0.9967 H   0  0  0  0  0  0  0  0  0  0  0  0
   -6.5256   -2.1472   -1.5427 H   0  0  0  0  0  0  0  0  0  0  0  0
   -6.7441   -0.4502   -2.0340 H   0  0  0  0  0  0  0  0  0  0  0  0
   -8.9437   -2.7772    0.4868 H   0  0  0  0  0  0  0  0  0  0  0  0
   -7.6464   -2.0705    1.4792 H   0  0  0  0  0  0  0  0  0  0  0  0
   -7.2559   -3.1049    0.0816 H   0  0  0  0  0  0  0  0  0  0  0  0
   -8.9296   -0.1697    1.0924 H   0  0  0  0  0  0  0  0  0  0  0  0
   -9.9226    1.1866   -0.4071 H   0  0  0  0  0  0  0  0  0  0  0  0
   -8.5516    1.1233   -1.6242 H   0  0  0  0  0  0  0  0  0  0  0  0
   -8.4825    2.1847   -0.1803 H   0  0  0  0  0  0  0  0  0  0  0  0
   -6.8017    0.1668    1.9843 H   0  0  0  0  0  0  0  0  0  0  0  0
   -7.2109    1.7188    1.2140 H   0  0  0  0  0  0  0  0  0  0  0  0
   -1.8636    0.0141   -2.2789 H   0  0  0  0  0  0  0  0  0  0  0  0
    0.4711    0.1649   -3.2190 H   0  0  0  0  0  0  0  0  0  0  0  0
    2.3831    0.4790   -1.6205 H   0  0  0  0  0  0  0  0  0  0  0  0
  1  2  1  0
  2  3  1  0
  3  4  2  0
  4  5  1  0
  5  6  1  0
  5  7  1  0
  7  8  2  0
  8  9  1  0
  9 10  1  0
 10 11  2  0
 11 12  1  0
 12 13  2  0
 13 14  1  0
 13 15  1  0
 15 16  1  0
 16 17  2  0
 17 18  1  0
 18 19  1  0
 19 20  2  0
 20 21  1  0
 21 22  1  0
 22 23  2  0
 22 24  1  0
 24 25  1  0
 24 26  1  0
 26 27  1  0
 27 28  1  0
 28 29  1  0
 29 30  1  0
 29 31  1  0
 31 32  1  0
 31 33  1  0
 20 34  1  0
 34 35  2  0
 35 36  1  0
 36 37  2  0
 15 38  2  0
  8  3  1  0
 38 10  1  0
 37 16  1  0
 37 19  1  0
 33 26  1  0
  1 39  1  0
  1 40  1  0
  1 41  1  0
  6 42  1  0
  6 43  1  0
  6 44  1  0
  7 45  1  0
  9 46  1  0
 12 47  1  0
 17 48  1  0
 18 49  1  0
 21 50  1  0
 24 51  1  1
 25 52  1  0
 25 53  1  0
 25 54  1  0
 27 55  1  0
 27 56  1  0
 28 57  1  0
 28 58  1  0
 30 59  1  0
 30 60  1  0
 30 61  1  0
 31 62  1  1
 32 63  1  0
 32 64  1  0
 32 65  1  0
 33 66  1  0
 33 67  1  0
 34 68  1  0
 35 69  1  0
 36 70  1  0
M  END
$$$$
