@<TRIPOS>MOLECULE
*****
 70 74 0 0 0
SMALL
GASTEIGER

@<TRIPOS>ATOM
      1 C           8.6357   -4.0934   -2.2914 C.3     1  UNL1        0.0805
      2 O           7.9149   -3.0877   -1.6471 O.3     1  UNL1       -0.4774
      3 C           8.4499   -1.9637   -1.0830 C.ar    1  UNL1        0.2552
      4 N           9.7303   -1.5896   -1.0252 N.ar    1  UNL1       -0.1317
      5 N           9.8553   -0.4411   -0.3998 N.ar    1  UNL1       -0.2692
      6 C          11.0554    0.3255   -0.1152 C.3     1  UNL1        0.0304
      7 C           8.6181   -0.0088   -0.0133 C.ar    1  UNL1        0.0503
      8 C           7.7242   -0.9568   -0.4366 C.ar    1  UNL1        0.1152
      9 N           6.3217   -0.9860   -0.2918 N.pl3   1  UNL1       -0.2782
     10 C           5.6178    0.0387    0.3837 C.ar    1  UNL1        0.2203
     11 N           6.2145    1.0921    0.9406 N.ar    1  UNL1       -0.2198
     12 C           5.4903    2.0286    1.5694 C.ar    1  UNL1        0.0685
     13 C           4.1134    1.8951    1.6373 C.ar    1  UNL1        0.1674
     14 F           3.3617    2.8217    2.2632 F       1  UNL1       -0.2016
     15 C           3.4725    0.8040    1.0625 C.ar    1  UNL1        0.1132
     16 C           2.0264    0.6726    1.1355 C.ar    1  UNL1        0.0284
     17 C           1.2263    0.6873    2.2554 C.ar    1  UNL1        0.0121
     18 N          -0.0582    0.5324    1.8946 N.ar    1  UNL1       -0.3586
     19 C          -0.1468    0.4123    0.5485 C.ar    1  UNL1        0.0686
     20 C          -1.2345    0.2387   -0.2815 C.ar    1  UNL1        0.0576
     21 N          -2.5501    0.1523    0.2521 N.am    1  UNL1       -0.2825
     22 C          -3.4006    1.2628    0.4675 C.2     1  UNL1        0.2342
     23 O          -2.8778    2.3886    0.1446 O.2     1  UNL1       -0.2738
     24 C          -4.7538    1.2475    1.0018 C.3     1  UNL1        0.0848
     25 C          -5.1818    2.6981    1.2602 C.3     1  UNL1       -0.0409
     26 N          -5.7696    0.6558    0.1746 N.3     1  UNL1       -0.2890
     27 C          -5.5108   -0.6653   -0.2894 C.3     1  UNL1        0.0124
     28 C          -6.6971   -1.1210   -1.1446 C.3     1  UNL1        0.0117
     29 N          -7.9261   -1.1386   -0.4156 N.3     1  UNL1       -0.3002
     30 C          -7.9488   -2.2974    0.4453 C.3     1  UNL1       -0.0124
     31 C          -8.1827    0.0950    0.2852 C.3     1  UNL1        0.0201
     32 C          -8.8024    1.1688   -0.5592 C.3     1  UNL1       -0.0483
     33 C          -6.9904    0.6375    0.9865 C.3     1  UNL1        0.0150
     34 C          -1.0041    0.1501   -1.6381 C.ar    1  UNL1       -0.0384
     35 C           0.2855    0.2331   -2.1552 C.ar    1  UNL1       -0.0593
     36 C           1.3604    0.4086   -1.2832 C.ar    1  UNL1       -0.0518
     37 C           1.1466    0.4989    0.0737 C.ar    1  UNL1        0.0107
     38 N           4.2487   -0.0996    0.4477 N.ar    1  UNL1       -0.2113
     39 H           8.0803   -5.0156   -2.4583 H       1  UNL1        0.0660
     40 H           9.5768   -4.3662   -1.7415 H       1  UNL1        0.0660
     41 H           9.0097   -3.6589   -3.2635 H       1  UNL1        0.0660
     42 H          11.1697    1.0338   -0.9741 H       1  UNL1        0.0473
     43 H          10.9094    0.9617    0.7805 H       1  UNL1        0.0473
     44 H          11.9442   -0.3294   -0.0130 H       1  UNL1        0.0473
     45 H           8.4182    0.9178    0.5257 H       1  UNL1        0.0846
     46 H           5.7815   -1.8050   -0.7050 H       1  UNL1        0.1552
     47 H           6.0111    2.8646    2.0077 H       1  UNL1        0.0861
     48 H           1.5439    0.8027    3.2803 H       1  UNL1        0.0814
     49 H          -0.8952    0.5040    2.5311 H       1  UNL1        0.1654
     50 H          -2.9006   -0.7918    0.5141 H       1  UNL1        0.1549
     51 H          -4.8030    0.7773    2.0321 H       1  UNL1        0.0556
     52 H          -4.2503    3.3356    1.3184 H       1  UNL1        0.0249
     53 H          -5.6932    3.0352    0.3434 H       1  UNL1        0.0249
     54 H          -5.7816    2.7894    2.1763 H       1  UNL1        0.0249
     55 H          -5.2958   -1.3777    0.5164 H       1  UNL1        0.0439
     56 H          -4.6352   -0.6934   -0.9967 H       1  UNL1        0.0439
     57 H          -6.5256   -2.1472   -1.5427 H       1  UNL1        0.0439
     58 H          -6.7441   -0.4502   -2.0340 H       1  UNL1        0.0439
     59 H          -8.9437   -2.7772    0.4868 H       1  UNL1        0.0391
     60 H          -7.6464   -2.0705    1.4792 H       1  UNL1        0.0391
     61 H          -7.2559   -3.1049    0.0816 H       1  UNL1        0.0391
     62 H          -8.9296   -0.1697    1.0924 H       1  UNL1        0.0472
     63 H          -9.9226    1.1866   -0.4071 H       1  UNL1        0.0245
     64 H          -8.5516    1.1233   -1.6242 H       1  UNL1        0.0245
     65 H          -8.4825    2.1847   -0.1803 H       1  UNL1        0.0245
     66 H          -6.8017    0.1668    1.9843 H       1  UNL1        0.0442
     67 H          -7.2109    1.7188    1.2140 H       1  UNL1        0.0442
     68 H          -1.8636    0.0141   -2.2789 H       1  UNL1        0.0637
     69 H           0.4711    0.1649   -3.2190 H       1  UNL1        0.0618
     70 H           2.3831    0.4790   -1.6205 H       1  UNL1        0.0624
@<TRIPOS>BOND
     1     1     2    1
     2     2     3    1
     3     3     4   ar
     4     4     5   ar
     5     5     6    1
     6     5     7   ar
     7     7     8   ar
     8     8     9    1
     9     9    10    1
    10    10    11   ar
    11    11    12   ar
    12    12    13   ar
    13    13    14    1
    14    13    15   ar
    15    15    16    1
    16    16    17   ar
    17    17    18   ar
    18    18    19   ar
    19    19    20   ar
    20    20    21    1
    21    21    22   am
    22    22    23    2
    23    22    24    1
    24    24    25    1
    25    24    26    1
    26    26    27    1
    27    27    28    1
    28    28    29    1
    29    29    30    1
    30    29    31    1
    31    31    32    1
    32    31    33    1
    33    20    34   ar
    34    34    35   ar
    35    35    36   ar
    36    36    37   ar
    37    15    38   ar
    38     8     3   ar
    39    38    10   ar
    40    37    16   ar
    41    37    19   ar
    42    33    26    1
    43     1    39    1
    44     1    40    1
    45     1    41    1
    46     6    42    1
    47     6    43    1
    48     6    44    1
    49     7    45    1
    50     9    46    1
    51    12    47    1
    52    17    48    1
    53    18    49    1
    54    21    50    1
    55    24    51    1
    56    25    52    1
    57    25    53    1
    58    25    54    1
    59    27    55    1
    60    27    56    1
    61    28    57    1
    62    28    58    1
    63    30    59    1
    64    30    60    1
    65    30    61    1
    66    31    62    1
    67    32    63    1
    68    32    64    1
    69    32    65    1
    70    33    66    1
    71    33    67    1
    72    34    68    1
    73    35    69    1
    74    36    70    1
