@<TRIPOS>MOLECULE
*****
 58 62 0 0 0
SMALL
GASTEIGER

@<TRIPOS>ATOM
      1 C           5.8580    3.4754   -3.7036 C.3     1  UNL1        0.0788
      2 O           5.8850    3.4777   -2.3036 O.3     1  UNL1       -0.4950
      3 C           5.0193    2.6383   -1.5789 C.ar    1  UNL1        0.1237
      4 C           4.1384    1.8069   -2.2280 C.ar    1  UNL1       -0.0190
      5 C           3.2695    0.9646   -1.5268 C.ar    1  UNL1       -0.0439
      6 C           3.3214    0.9915   -0.1499 C.ar    1  UNL1        0.0662
      7 C           2.6283    0.3124    0.8170 C.ar    1  UNL1        0.1922
      8 N           1.6198   -0.6498    0.6069 N.ar    1  UNL1       -0.2413
      9 C           0.5094   -0.4605   -0.1302 C.ar    1  UNL1        0.3362
     10 O           0.1824    0.5841   -0.7479 O.2     1  UNL1       -0.2459
     11 N          -0.2564   -1.5768   -0.1331 N.ar    1  UNL1       -0.2873
     12 C          -1.5071   -1.7507   -0.8080 C.3     1  UNL1        0.0533
     13 C          -2.6821   -1.3663    0.0152 C.ar    1  UNL1       -0.0241
     14 C          -3.2971   -2.3038    0.8081 C.ar    1  UNL1       -0.0553
     15 C          -4.3823   -1.9018    1.5550 C.ar    1  UNL1       -0.0395
     16 C          -4.8543   -0.6152    1.5270 C.ar    1  UNL1        0.0826
     17 CL         -6.2345   -0.1245    2.4832 Cl      1  UNL1       -0.0798
     18 C          -4.2453    0.3705    0.7235 C.ar    1  UNL1        0.1402
     19 O          -4.7531    1.6479    0.7272 O.3     1  UNL1       -0.4765
     20 C          -4.2314    2.6845   -0.0241 C.3     1  UNL1        0.1931
     21 C          -3.7857    3.8611    0.8397 C.3     1  UNL1       -0.0172
     22 C          -5.2540    3.2735   -0.9562 C.2     1  UNL1        0.3456
     23 O          -6.4001    2.7939   -0.9507 O.2     1  UNL1       -0.2468
     24 O          -4.8692    4.3093   -1.7643 O.3     1  UNL1       -0.4781
     25 C          -3.1688   -0.0602   -0.0072 C.ar    1  UNL1       -0.0136
     26 C           0.3706   -2.5057    0.6161 C.ar    1  UNL1        0.0712
     27 C           0.1045   -3.7972    0.9806 C.ar    1  UNL1       -0.0244
     28 C           0.9431   -4.5590    1.7875 C.ar    1  UNL1        0.0569
     29 C           0.5754   -5.9599    2.1355 C.3     1  UNL1        0.4175
     30 F           0.2869   -5.9543    3.5081 F       1  UNL1       -0.1659
     31 F          -0.5353   -6.3192    1.4262 F       1  UNL1       -0.1659
     32 F           1.6238   -6.8303    1.9071 F       1  UNL1       -0.1659
     33 C           2.1048   -3.9650    2.2376 C.ar    1  UNL1       -0.0480
     34 C           2.3934   -2.6485    1.8763 C.ar    1  UNL1       -0.0351
     35 C           1.5444   -1.9136    1.0741 C.ar    1  UNL1        0.0766
     36 N           3.0894    0.7335    2.0011 N.ar    1  UNL1       -0.0587
     37 O           4.0183    1.6249    1.8174 O.2     1  UNL1       -0.3525
     38 C           4.1940    1.8145    0.5282 C.ar    1  UNL1        0.1728
     39 C           5.0360    2.6316   -0.2058 C.ar    1  UNL1        0.0257
     40 H           6.7852    4.0239   -4.0424 H       1  UNL1        0.0660
     41 H           5.0168    4.0934   -4.1147 H       1  UNL1        0.0660
     42 H           5.7944    2.4806   -4.1637 H       1  UNL1        0.0660
     43 H           4.0873    1.7767   -3.3048 H       1  UNL1        0.0654
     44 H           2.5838    0.3176   -2.0598 H       1  UNL1        0.0627
     45 H          -1.5290   -1.2137   -1.7882 H       1  UNL1        0.0543
     46 H          -1.6481   -2.8369   -1.0735 H       1  UNL1        0.0543
     47 H          -2.9803   -3.3330    0.8780 H       1  UNL1        0.0621
     48 H          -4.8708   -2.6465    2.1855 H       1  UNL1        0.0633
     49 H          -3.3566    2.4522   -0.6587 H       1  UNL1        0.0849
     50 H          -4.5369    4.0969    1.6110 H       1  UNL1        0.0271
     51 H          -2.7791    3.6902    1.2653 H       1  UNL1        0.0271
     52 H          -3.7019    4.7402    0.1708 H       1  UNL1        0.0271
     53 H          -5.4928    4.6962   -2.4896 H       1  UNL1        0.2952
     54 H          -2.6493    0.6447   -0.6495 H       1  UNL1        0.0658
     55 H          -0.7997   -4.2868    0.6397 H       1  UNL1        0.0644
     56 H           2.7814   -4.5331    2.8690 H       1  UNL1        0.0624
     57 H           3.3062   -2.1831    2.2306 H       1  UNL1        0.0639
     58 H           5.7299    3.2866    0.3046 H       1  UNL1        0.0692
@<TRIPOS>BOND
     1     1     2    1
     2     2     3    1
     3     3     4   ar
     4     4     5   ar
     5     5     6   ar
     6     6     7   ar
     7     7     8    1
     8     8     9   ar
     9     9    10    2
    10     9    11   ar
    11    11    12    1
    12    12    13    1
    13    13    14   ar
    14    14    15   ar
    15    15    16   ar
    16    16    17    1
    17    16    18   ar
    18    18    19    1
    19    19    20    1
    20    20    21    1
    21    20    22    1
    22    22    23    2
    23    22    24    1
    24    18    25   ar
    25    11    26   ar
    26    26    27   ar
    27    27    28   ar
    28    28    29    1
    29    29    30    1
    30    29    31    1
    31    29    32    1
    32    28    33   ar
    33    33    34   ar
    34    34    35   ar
    35     7    36   ar
    36    36    37   ar
    37    37    38   ar
    38    38    39   ar
    39    39     3   ar
    40    38     6   ar
    41    35     8   ar
    42    25    13   ar
    43    35    26   ar
    44     1    40    1
    45     1    41    1
    46     1    42    1
    47     4    43    1
    48     5    44    1
    49    12    45    1
    50    12    46    1
    51    14    47    1
    52    15    48    1
    53    20    49    1
    54    21    50    1
    55    21    51    1
    56    21    52    1
    57    24    53    1
    58    25    54    1
    59    27    55    1
    60    33    56    1
    61    34    57    1
    62    39    58    1
