@<TRIPOS>MOLECULE
*****
 31 34 0 0 0
SMALL
GASTEIGER

@<TRIPOS>ATOM
      1 C           4.9158   -1.6963    0.2307 C.3     1  UNL1        0.0790
      2 O           3.7324   -1.8023    0.9939 O.2     1  UNL1       -0.4912
      3 C           2.5817   -1.0881    0.6973 C.2     1  UNL1        0.1677
      4 C           2.6422    0.1964    0.4347 C.2     1  UNL1       -0.0083
      5 C           1.4819    1.0217    0.1134 C.ar    1  UNL1       -0.0101
      6 C           1.5693    2.3699   -0.1591 C.ar    1  UNL1       -0.0357
      7 C           0.4610    3.1312   -0.4603 C.ar    1  UNL1        0.0289
      8 N          -0.7263    2.4962   -0.4777 N.ar    1  UNL1       -0.2543
      9 C          -0.8714    1.1854   -0.2204 C.ar    1  UNL1        0.0799
     10 C           0.2323    0.4002    0.0852 C.ar    1  UNL1        0.0192
     11 C           0.0693   -0.9436    0.3472 C.ar    1  UNL1        0.0357
     12 C          -1.1958   -1.4904    0.3014 C.ar    1  UNL1       -0.0424
     13 C          -2.3304   -0.7455    0.0003 C.ar    1  UNL1       -0.0151
     14 C          -3.5863   -1.3129   -0.0401 C.ar    1  UNL1       -0.0539
     15 C          -4.6865   -0.5469   -0.3412 C.ar    1  UNL1       -0.0612
     16 C          -4.5052    0.7919   -0.5998 C.ar    1  UNL1       -0.0611
     17 C          -3.2418    1.3408   -0.5546 C.ar    1  UNL1       -0.0520
     18 C          -2.1217    0.6015   -0.2566 C.ar    1  UNL1        0.0081
     19 C           1.2626   -1.7179    0.6620 C.2     1  UNL1        0.2280
     20 O           1.1639   -2.9341    0.9053 O.2     1  UNL1       -0.2834
     21 H           5.7213   -2.3377    0.6180 H       1  UNL1        0.0660
     22 H           4.6583   -1.9989   -0.8063 H       1  UNL1        0.0660
     23 H           5.2433   -0.6354    0.1964 H       1  UNL1        0.0660
     24 H           3.6339    0.6660    0.4620 H       1  UNL1        0.0661
     25 H           2.5433    2.8350   -0.1331 H       1  UNL1        0.0639
     26 H           0.5550    4.2039   -0.6740 H       1  UNL1        0.0830
     27 H          -1.3188   -2.5327    0.5050 H       1  UNL1        0.0631
     28 H          -3.7254   -2.3580    0.1621 H       1  UNL1        0.0624
     29 H          -5.6915   -0.9419   -0.3859 H       1  UNL1        0.0618
     30 H          -5.3631    1.4393   -0.8452 H       1  UNL1        0.0618
     31 H          -3.1035    2.4032   -0.7606 H       1  UNL1        0.0624
@<TRIPOS>BOND
     1     1     2    1
     2     2     3    1
     3     3     4    2
     4     4     5    1
     5     5     6   ar
     6     6     7   ar
     7     7     8   ar
     8     8     9   ar
     9     9    10   ar
    10    10    11   ar
    11    11    12   ar
    12    12    13   ar
    13    13    14   ar
    14    14    15   ar
    15    15    16   ar
    16    16    17   ar
    17    17    18   ar
    18    11    19    1
    19    19    20    2
    20    19     3    1
    21    10     5   ar
    22    18    13   ar
    23    18     9   ar
    24     1    21    1
    25     1    22    1
    26     1    23    1
    27     4    24    1
    28     6    25    1
    29     7    26    1
    30    12    27    1
    31    14    28    1
    32    15    29    1
    33    16    30    1
    34    17    31    1
