
     RDKit          3D

 31 34  0  0  0  0  0  0  0  0999 V2000
    4.9158   -1.6963    0.2307 C   0  0  0  0  0  0  0  0  0  0  0  0
    3.7324   -1.8023    0.9939 O   0  0  0  0  0  0  0  0  0  0  0  0
    2.5817   -1.0881    0.6973 C   0  0  0  0  0  0  0  0  0  0  0  0
    2.6422    0.1964    0.4347 C   0  0  0  0  0  0  0  0  0  0  0  0
    1.4819    1.0217    0.1134 C   0  0  0  0  0  0  0  0  0  0  0  0
    1.5693    2.3699   -0.1591 C   0  0  0  0  0  0  0  0  0  0  0  0
    0.4610    3.1312   -0.4603 C   0  0  0  0  0  0  0  0  0  0  0  0
   -0.7263    2.4962   -0.4777 N   0  0  0  0  0  0  0  0  0  0  0  0
   -0.8714    1.1854   -0.2204 C   0  0  0  0  0  0  0  0  0  0  0  0
    0.2323    0.4002    0.0852 C   0  0  0  0  0  0  0  0  0  0  0  0
    0.0693   -0.9436    0.3472 C   0  0  0  0  0  0  0  0  0  0  0  0
   -1.1958   -1.4904    0.3014 C   0  0  0  0  0  0  0  0  0  0  0  0
   -2.3304   -0.7455    0.0003 C   0  0  0  0  0  0  0  0  0  0  0  0
   -3.5863   -1.3129   -0.0401 C   0  0  0  0  0  0  0  0  0  0  0  0
   -4.6865   -0.5469   -0.3412 C   0  0  0  0  0  0  0  0  0  0  0  0
   -4.5052    0.7919   -0.5998 C   0  0  0  0  0  0  0  0  0  0  0  0
   -3.2418    1.3408   -0.5546 C   0  0  0  0  0  0  0  0  0  0  0  0
   -2.1217    0.6015   -0.2566 C   0  0  0  0  0  0  0  0  0  0  0  0
    1.2626   -1.7179    0.6620 C   0  0  0  0  0  0  0  0  0  0  0  0
    1.1639   -2.9341    0.9053 O   0  0  0  0  0  0  0  0  0  0  0  0
    5.7213   -2.3377    0.6180 H   0  0  0  0  0  0  0  0  0  0  0  0
    4.6583   -1.9989   -0.8063 H   0  0  0  0  0  0  0  0  0  0  0  0
    5.2433   -0.6354    0.1964 H   0  0  0  0  0  0  0  0  0  0  0  0
    3.6339    0.6660    0.4620 H   0  0  0  0  0  0  0  0  0  0  0  0
    2.5433    2.8350   -0.1331 H   0  0  0  0  0  0  0  0  0  0  0  0
    0.5550    4.2039   -0.6740 H   0  0  0  0  0  0  0  0  0  0  0  0
   -1.3188   -2.5327    0.5050 H   0  0  0  0  0  0  0  0  0  0  0  0
   -3.7254   -2.3580    0.1621 H   0  0  0  0  0  0  0  0  0  0  0  0
   -5.6915   -0.9419   -0.3859 H   0  0  0  0  0  0  0  0  0  0  0  0
   -5.3631    1.4393   -0.8452 H   0  0  0  0  0  0  0  0  0  0  0  0
   -3.1035    2.4032   -0.7606 H   0  0  0  0  0  0  0  0  0  0  0  0
  1  2  1  0
  2  3  1  0
  3  4  2  0
  4  5  1  0
  5  6  2  0
  6  7  1  0
  7  8  2  0
  8  9  1  0
  9 10  1  0
 10 11  2  0
 11 12  1  0
 12 13  2  0
 13 14  1  0
 14 15  2  0
 15 16  1  0
 16 17  2  0
 17 18  1  0
 11 19  1  0
 19 20  2  0
 19  3  1  0
 10  5  1  0
 18 13  1  0
 18  9  2  0
  1 21  1  0
  1 22  1  0
  1 23  1  0
  4 24  1  0
  6 25  1  0
  7 26  1  0
 12 27  1  0
 14 28  1  0
 15 29  1  0
 16 30  1  0
 17 31  1  0
M  END
$$$$
