@<TRIPOS>MOLECULE
*****
 67 70 0 0 0
SMALL
GASTEIGER

@<TRIPOS>ATOM
      1 C          -5.6582    2.5065   -2.0935 C.3     1  UNL1       -0.0652
      2 C          -4.9232    1.1978   -2.4171 C.3     1  UNL1       -0.0548
      3 C          -4.2646    0.7416   -1.1392 C.3     1  UNL1       -0.0405
      4 C          -3.4867   -0.5540   -1.2959 C.3     1  UNL1       -0.0010
      5 N          -2.9126   -0.9435   -0.0874 N.3     1  UNL1       -0.2996
      6 C          -3.7852   -1.3385    0.9237 C.3     1  UNL1       -0.0010
      7 C          -3.0591   -1.8774    2.1328 C.3     1  UNL1       -0.0405
      8 C          -4.1208   -2.2707    3.1807 C.3     1  UNL1       -0.0548
      9 C          -5.0047   -3.3315    2.5265 C.3     1  UNL1       -0.0652
     10 C          -1.5461   -0.9791    0.1463 C.3     1  UNL1        0.0291
     11 C          -0.9658    0.4238    0.1325 C.3     1  UNL1        0.0934
     12 O          -1.6652    1.1382    1.1588 O.3     1  UNL1       -0.3859
     13 C           0.4514    0.4861    0.5493 C.ar    1  UNL1       -0.0083
     14 C           1.5325    0.3081   -0.2755 C.ar    1  UNL1       -0.0038
     15 C           2.8043    0.4232    0.2126 C.ar    1  UNL1       -0.0078
     16 C           3.1030    0.7050    1.4970 C.ar    1  UNL1       -0.0350
     17 C           2.0710    0.8959    2.3909 C.ar    1  UNL1        0.0419
     18 CL          2.2283    1.2690    4.0937 Cl      1  UNL1       -0.0835
     19 C           0.7724    0.7789    1.8814 C.ar    1  UNL1       -0.0371
     20 C           3.6986    0.1574   -0.8942 C.2     1  UNL1       -0.0089
     21 C           5.0048    0.2672   -0.8670 C.2     1  UNL1       -0.0463
     22 C           5.9074    0.6654    0.1701 C.ar    1  UNL1       -0.0244
     23 C           5.9412    1.9743    0.6739 C.ar    1  UNL1       -0.0532
     24 C           6.7670    2.4675    1.6640 C.ar    1  UNL1       -0.0428
     25 C           7.6555    1.5703    2.2166 C.ar    1  UNL1        0.0410
     26 CL          8.7197    2.1564    3.4744 Cl      1  UNL1       -0.0835
     27 C           7.6835    0.2640    1.7747 C.ar    1  UNL1       -0.0428
     28 C           6.8293   -0.1900    0.7701 C.ar    1  UNL1       -0.0532
     29 C           2.9248   -0.1371   -2.0960 C.ar    1  UNL1       -0.0082
     30 C           1.6174   -0.0344   -1.6826 C.ar    1  UNL1       -0.0091
     31 C           0.6732   -0.2763   -2.6484 C.ar    1  UNL1       -0.0520
     32 C           1.0418   -0.5978   -3.9338 C.ar    1  UNL1       -0.0428
     33 C           2.3607   -0.6937   -4.3215 C.ar    1  UNL1        0.0416
     34 CL          2.8975   -1.0995   -5.9282 Cl      1  UNL1       -0.0835
     35 C           3.3350   -0.4535   -3.3608 C.ar    1  UNL1       -0.0351
     36 H          -6.5476    2.3091   -1.4489 H       1  UNL1        0.0230
     37 H          -4.9689    3.2262   -1.6478 H       1  UNL1        0.0230
     38 H          -6.0348    2.9418   -3.0486 H       1  UNL1        0.0230
     39 H          -5.7425    0.4935   -2.6954 H       1  UNL1        0.0263
     40 H          -4.2370    1.3945   -3.2481 H       1  UNL1        0.0263
     41 H          -3.5397    1.5080   -0.8044 H       1  UNL1        0.0277
     42 H          -5.0413    0.6881   -0.3657 H       1  UNL1        0.0277
     43 H          -4.2231   -1.3098   -1.7178 H       1  UNL1        0.0426
     44 H          -2.7806   -0.3825   -2.1317 H       1  UNL1        0.0426
     45 H          -4.5321   -2.1273    0.5946 H       1  UNL1        0.0426
     46 H          -4.4215   -0.4475    1.2669 H       1  UNL1        0.0426
     47 H          -2.5025   -2.7880    1.8848 H       1  UNL1        0.0277
     48 H          -2.4249   -1.1364    2.6483 H       1  UNL1        0.0277
     49 H          -4.7138   -1.4014    3.4527 H       1  UNL1        0.0263
     50 H          -3.5757   -2.7152    4.0360 H       1  UNL1        0.0263
     51 H          -4.4680   -3.8867    1.7314 H       1  UNL1        0.0230
     52 H          -5.3862   -3.9712    3.3406 H       1  UNL1        0.0230
     53 H          -5.8566   -2.8011    2.0063 H       1  UNL1        0.0230
     54 H          -1.2359   -1.5121    1.0872 H       1  UNL1        0.0455
     55 H          -1.0575   -1.5557   -0.7010 H       1  UNL1        0.0455
     56 H          -1.2239    0.9598   -0.7740 H       1  UNL1        0.0657
     57 H          -1.3534    2.0822    1.0751 H       1  UNL1        0.2103
     58 H           4.0263    0.7989    2.0331 H       1  UNL1        0.0638
     59 H          -0.0670    0.9241    2.5601 H       1  UNL1        0.0636
     60 H           5.6741    0.0592   -1.6982 H       1  UNL1        0.0630
     61 H           5.2509    2.6785    0.2405 H       1  UNL1        0.0624
     62 H           6.6956    3.5018    1.9616 H       1  UNL1        0.0632
     63 H           8.4125   -0.3664    2.2661 H       1  UNL1        0.0632
     64 H           6.8767   -1.2210    0.4505 H       1  UNL1        0.0624
     65 H          -0.3837   -0.2424   -2.5115 H       1  UNL1        0.0624
     66 H           0.3688   -0.8089   -4.7704 H       1  UNL1        0.0632
     67 H           4.3848   -0.5116   -3.6012 H       1  UNL1        0.0638
@<TRIPOS>BOND
     1     1     2    1
     2     2     3    1
     3     3     4    1
     4     4     5    1
     5     5     6    1
     6     6     7    1
     7     7     8    1
     8     8     9    1
     9     5    10    1
    10    10    11    1
    11    11    12    1
    12    11    13    1
    13    13    14   ar
    14    14    15   ar
    15    15    16   ar
    16    16    17   ar
    17    17    18    1
    18    17    19   ar
    19    15    20    1
    20    20    21    2
    21    21    22    1
    22    22    23   ar
    23    23    24   ar
    24    24    25   ar
    25    25    26    1
    26    25    27   ar
    27    27    28   ar
    28    20    29    1
    29    29    30   ar
    30    30    31   ar
    31    31    32   ar
    32    32    33   ar
    33    33    34    1
    34    33    35   ar
    35    19    13   ar
    36    28    22   ar
    37    35    29   ar
    38    30    14    1
    39     1    36    1
    40     1    37    1
    41     1    38    1
    42     2    39    1
    43     2    40    1
    44     3    41    1
    45     3    42    1
    46     4    43    1
    47     4    44    1
    48     6    45    1
    49     6    46    1
    50     7    47    1
    51     7    48    1
    52     8    49    1
    53     8    50    1
    54     9    51    1
    55     9    52    1
    56     9    53    1
    57    10    54    1
    58    10    55    1
    59    11    56    1
    60    12    57    1
    61    16    58    1
    62    19    59    1
    63    21    60    1
    64    23    61    1
    65    24    62    1
    66    27    63    1
    67    28    64    1
    68    31    65    1
    69    32    66    1
    70    35    67    1
