
     RDKit          3D

 67 70  0  0  0  0  0  0  0  0999 V2000
   -5.6582    2.5065   -2.0935 C   0  0  0  0  0  0  0  0  0  0  0  0
   -4.9232    1.1978   -2.4171 C   0  0  0  0  0  0  0  0  0  0  0  0
   -4.2646    0.7416   -1.1392 C   0  0  0  0  0  0  0  0  0  0  0  0
   -3.4867   -0.5540   -1.2959 C   0  0  0  0  0  0  0  0  0  0  0  0
   -2.9126   -0.9435   -0.0874 N   0  0  0  0  0  0  0  0  0  0  0  0
   -3.7852   -1.3385    0.9237 C   0  0  0  0  0  0  0  0  0  0  0  0
   -3.0591   -1.8774    2.1328 C   0  0  0  0  0  0  0  0  0  0  0  0
   -4.1208   -2.2707    3.1807 C   0  0  0  0  0  0  0  0  0  0  0  0
   -5.0047   -3.3315    2.5265 C   0  0  0  0  0  0  0  0  0  0  0  0
   -1.5461   -0.9791    0.1463 C   0  0  0  0  0  0  0  0  0  0  0  0
   -0.9658    0.4238    0.1325 C   0  0  0  0  0  0  0  0  0  0  0  0
   -1.6652    1.1382    1.1588 O   0  0  0  0  0  0  0  0  0  0  0  0
    0.4514    0.4861    0.5493 C   0  0  0  0  0  0  0  0  0  0  0  0
    1.5325    0.3081   -0.2755 C   0  0  0  0  0  0  0  0  0  0  0  0
    2.8043    0.4232    0.2126 C   0  0  0  0  0  0  0  0  0  0  0  0
    3.1030    0.7050    1.4970 C   0  0  0  0  0  0  0  0  0  0  0  0
    2.0710    0.8959    2.3909 C   0  0  0  0  0  0  0  0  0  0  0  0
    2.2283    1.2690    4.0937 Cl  0  0  0  0  0  0  0  0  0  0  0  0
    0.7724    0.7789    1.8814 C   0  0  0  0  0  0  0  0  0  0  0  0
    3.6986    0.1574   -0.8942 C   0  0  0  0  0  0  0  0  0  0  0  0
    5.0048    0.2672   -0.8670 C   0  0  0  0  0  0  0  0  0  0  0  0
    5.9074    0.6654    0.1701 C   0  0  0  0  0  0  0  0  0  0  0  0
    5.9412    1.9743    0.6739 C   0  0  0  0  0  0  0  0  0  0  0  0
    6.7670    2.4675    1.6640 C   0  0  0  0  0  0  0  0  0  0  0  0
    7.6555    1.5703    2.2166 C   0  0  0  0  0  0  0  0  0  0  0  0
    8.7197    2.1564    3.4744 Cl  0  0  0  0  0  0  0  0  0  0  0  0
    7.6835    0.2640    1.7747 C   0  0  0  0  0  0  0  0  0  0  0  0
    6.8293   -0.1900    0.7701 C   0  0  0  0  0  0  0  0  0  0  0  0
    2.9248   -0.1371   -2.0960 C   0  0  0  0  0  0  0  0  0  0  0  0
    1.6174   -0.0344   -1.6826 C   0  0  0  0  0  0  0  0  0  0  0  0
    0.6732   -0.2763   -2.6484 C   0  0  0  0  0  0  0  0  0  0  0  0
    1.0418   -0.5978   -3.9338 C   0  0  0  0  0  0  0  0  0  0  0  0
    2.3607   -0.6937   -4.3215 C   0  0  0  0  0  0  0  0  0  0  0  0
    2.8975   -1.0995   -5.9282 Cl  0  0  0  0  0  0  0  0  0  0  0  0
    3.3350   -0.4535   -3.3608 C   0  0  0  0  0  0  0  0  0  0  0  0
   -6.5476    2.3091   -1.4489 H   0  0  0  0  0  0  0  0  0  0  0  0
   -4.9689    3.2262   -1.6478 H   0  0  0  0  0  0  0  0  0  0  0  0
   -6.0348    2.9418   -3.0486 H   0  0  0  0  0  0  0  0  0  0  0  0
   -5.7425    0.4935   -2.6954 H   0  0  0  0  0  0  0  0  0  0  0  0
   -4.2370    1.3945   -3.2481 H   0  0  0  0  0  0  0  0  0  0  0  0
   -3.5397    1.5080   -0.8044 H   0  0  0  0  0  0  0  0  0  0  0  0
   -5.0413    0.6881   -0.3657 H   0  0  0  0  0  0  0  0  0  0  0  0
   -4.2231   -1.3098   -1.7178 H   0  0  0  0  0  0  0  0  0  0  0  0
   -2.7806   -0.3825   -2.1317 H   0  0  0  0  0  0  0  0  0  0  0  0
   -4.5321   -2.1273    0.5946 H   0  0  0  0  0  0  0  0  0  0  0  0
   -4.4215   -0.4475    1.2669 H   0  0  0  0  0  0  0  0  0  0  0  0
   -2.5025   -2.7880    1.8848 H   0  0  0  0  0  0  0  0  0  0  0  0
   -2.4249   -1.1364    2.6483 H   0  0  0  0  0  0  0  0  0  0  0  0
   -4.7138   -1.4014    3.4527 H   0  0  0  0  0  0  0  0  0  0  0  0
   -3.5757   -2.7152    4.0360 H   0  0  0  0  0  0  0  0  0  0  0  0
   -4.4680   -3.8867    1.7314 H   0  0  0  0  0  0  0  0  0  0  0  0
   -5.3862   -3.9712    3.3406 H   0  0  0  0  0  0  0  0  0  0  0  0
   -5.8566   -2.8011    2.0063 H   0  0  0  0  0  0  0  0  0  0  0  0
   -1.2359   -1.5121    1.0872 H   0  0  0  0  0  0  0  0  0  0  0  0
   -1.0575   -1.5557   -0.7010 H   0  0  0  0  0  0  0  0  0  0  0  0
   -1.2239    0.9598   -0.7740 H   0  0  0  0  0  0  0  0  0  0  0  0
   -1.3534    2.0822    1.0751 H   0  0  0  0  0  0  0  0  0  0  0  0
    4.0263    0.7989    2.0331 H   0  0  0  0  0  0  0  0  0  0  0  0
   -0.0670    0.9241    2.5601 H   0  0  0  0  0  0  0  0  0  0  0  0
    5.6741    0.0592   -1.6982 H   0  0  0  0  0  0  0  0  0  0  0  0
    5.2509    2.6785    0.2405 H   0  0  0  0  0  0  0  0  0  0  0  0
    6.6956    3.5018    1.9616 H   0  0  0  0  0  0  0  0  0  0  0  0
    8.4125   -0.3664    2.2661 H   0  0  0  0  0  0  0  0  0  0  0  0
    6.8767   -1.2210    0.4505 H   0  0  0  0  0  0  0  0  0  0  0  0
   -0.3837   -0.2424   -2.5115 H   0  0  0  0  0  0  0  0  0  0  0  0
    0.3688   -0.8089   -4.7704 H   0  0  0  0  0  0  0  0  0  0  0  0
    4.3848   -0.5116   -3.6012 H   0  0  0  0  0  0  0  0  0  0  0  0
  1  2  1  0
  2  3  1  0
  3  4  1  0
  4  5  1  0
  5  6  1  0
  6  7  1  0
  7  8  1  0
  8  9  1  0
  5 10  1  0
 10 11  1  0
 11 12  1  0
 11 13  1  0
 13 14  2  0
 14 15  1  0
 15 16  2  0
 16 17  1  0
 17 18  1  0
 17 19  2  0
 15 20  1  0
 20 21  2  0
 21 22  1  0
 22 23  2  0
 23 24  1  0
 24 25  2  0
 25 26  1  0
 25 27  1  0
 27 28  2  0
 20 29  1  0
 29 30  2  0
 30 31  1  0
 31 32  2  0
 32 33  1  0
 33 34  1  0
 33 35  2  0
 19 13  1  0
 28 22  1  0
 35 29  1  0
 30 14  1  0
  1 36  1  0
  1 37  1  0
  1 38  1  0
  2 39  1  0
  2 40  1  0
  3 41  1  0
  3 42  1  0
  4 43  1  0
  4 44  1  0
  6 45  1  0
  6 46  1  0
  7 47  1  0
  7 48  1  0
  8 49  1  0
  8 50  1  0
  9 51  1  0
  9 52  1  0
  9 53  1  0
 10 54  1  0
 10 55  1  0
 11 56  1  0
 12 57  1  0
 16 58  1  0
 19 59  1  0
 21 60  1  0
 23 61  1  0
 24 62  1  0
 27 63  1  0
 28 64  1  0
 31 65  1  0
 32 66  1  0
 35 67  1  0
M  END
$$$$
