@<TRIPOS>MOLECULE
*****
 51 56 0 0 0
SMALL
GASTEIGER

@<TRIPOS>ATOM
      1 C          -3.4928   -0.8075    3.1459 C.3     1  UNL1       -0.0360
      2 C          -3.1143   -0.1486    1.8681 C.ar    1  UNL1       -0.0012
      3 C          -1.8010   -0.1425    1.4274 C.ar    1  UNL1       -0.0131
      4 C          -1.4809    0.4860    0.2219 C.ar    1  UNL1        0.1499
      5 N          -0.1113    0.4703   -0.1990 N.am    1  UNL1       -0.2374
      6 C           0.7887    1.4859    0.2165 C.2     1  UNL1        0.2564
      7 O           0.5275    2.4647    1.0001 O.2     1  UNL1       -0.2694
      8 C           2.0632    1.2139   -0.4110 C.ar    1  UNL1        0.0834
      9 C           3.3465    1.6981   -0.5460 C.ar    1  UNL1        0.0785
     10 C           3.9676    2.8816    0.0987 C.3     1  UNL1        0.0039
     11 C           4.9879    2.5993    1.1828 C.3     1  UNL1       -0.0441
     12 C           3.6490    3.3011    1.4724 C.3     1  UNL1       -0.0441
     13 N           3.9558    0.8276   -1.3989 N.ar    1  UNL1       -0.1751
     14 N           3.1400   -0.1308   -1.7779 N.ar    1  UNL1       -0.2682
     15 C           3.4853   -1.2257   -2.7104 C.3     1  UNL1        0.0306
     16 C           1.9555    0.0754   -1.1832 C.ar    1  UNL1        0.0765
     17 C           0.6063   -0.4419   -1.0332 C.3     1  UNL1        0.1002
     18 C           0.4841   -1.8431   -0.6106 C.ar    1  UNL1       -0.0207
     19 C          -0.7840   -2.3904   -0.5840 C.ar    1  UNL1       -0.0550
     20 C          -0.9978   -3.6996   -0.1778 C.ar    1  UNL1       -0.0431
     21 C           0.0498   -4.5048    0.2149 C.ar    1  UNL1        0.0410
     22 CL         -0.1951   -6.1666    0.7333 Cl      1  UNL1       -0.0835
     23 C           1.3137   -3.9578    0.1877 C.ar    1  UNL1       -0.0431
     24 C           1.5204   -2.6335   -0.2239 C.ar    1  UNL1       -0.0550
     25 N          -2.4628    1.0726   -0.4837 N.ar    1  UNL1       -0.1478
     26 N          -3.7146    1.0854   -0.0962 N.ar    1  UNL1       -0.1953
     27 C          -4.8105    1.6215   -0.6762 C.ar    1  UNL1        0.1521
     28 C          -4.9034    2.3723   -1.9606 C.3     1  UNL1       -0.0027
     29 N          -5.8245    1.3303    0.1658 N.ar    1  UNL1       -0.1325
     30 N          -5.3546    0.6469    1.2087 N.ar    1  UNL1       -0.1277
     31 C          -4.0421    0.4851    1.0622 C.ar    1  UNL1        0.1809
     32 H          -4.5048   -1.3007    3.0577 H       1  UNL1        0.0279
     33 H          -2.7815   -1.6116    3.3835 H       1  UNL1        0.0279
     34 H          -3.5955   -0.0827    3.9732 H       1  UNL1        0.0279
     35 H          -1.0210   -0.6092    1.9893 H       1  UNL1        0.0656
     36 H           4.3571    3.6326   -0.6502 H       1  UNL1        0.0365
     37 H           5.1184    1.5648    1.5209 H       1  UNL1        0.0272
     38 H           5.8935    3.2239    1.2614 H       1  UNL1        0.0272
     39 H           2.9650    2.6836    2.0641 H       1  UNL1        0.0272
     40 H           3.7386    4.3734    1.7404 H       1  UNL1        0.0272
     41 H           4.0156   -1.9829   -2.0991 H       1  UNL1        0.0473
     42 H           2.5694   -1.6709   -3.1100 H       1  UNL1        0.0473
     43 H           4.1684   -0.8272   -3.4863 H       1  UNL1        0.0473
     44 H           0.0871   -0.3679   -2.0546 H       1  UNL1        0.0620
     45 H          -1.6684   -1.8205   -0.8874 H       1  UNL1        0.0621
     46 H          -1.9881   -4.1434   -0.1514 H       1  UNL1        0.0632
     47 H           2.1864   -4.5421    0.4862 H       1  UNL1        0.0632
     48 H           2.5147   -2.2130   -0.2319 H       1  UNL1        0.0621
     49 H          -4.1055    2.0294   -2.6705 H       1  UNL1        0.0309
     50 H          -4.8371    3.4662   -1.7884 H       1  UNL1        0.0309
     51 H          -5.8638    2.1729   -2.4803 H       1  UNL1        0.0309
@<TRIPOS>BOND
     1     1     2    1
     2     2     3   ar
     3     3     4   ar
     4     4     5    1
     5     5     6   am
     6     6     7    2
     7     6     8    1
     8     8     9   ar
     9     9    10    1
    10    10    11    1
    11    11    12    1
    12     9    13   ar
    13    13    14   ar
    14    14    15    1
    15    14    16   ar
    16    16    17    1
    17    17    18    1
    18    18    19   ar
    19    19    20   ar
    20    20    21   ar
    21    21    22    1
    22    21    23   ar
    23    23    24   ar
    24     4    25   ar
    25    25    26   ar
    26    26    27   ar
    27    27    28    1
    28    27    29   ar
    29    29    30   ar
    30    30    31   ar
    31    31     2   ar
    32    17     5    1
    33    24    18   ar
    34    31    26   ar
    35    16     8   ar
    36    12    10    1
    37     1    32    1
    38     1    33    1
    39     1    34    1
    40     3    35    1
    41    10    36    1
    42    11    37    1
    43    11    38    1
    44    12    39    1
    45    12    40    1
    46    15    41    1
    47    15    42    1
    48    15    43    1
    49    17    44    1
    50    19    45    1
    51    20    46    1
    52    23    47    1
    53    24    48    1
    54    28    49    1
    55    28    50    1
    56    28    51    1
