
     RDKit          3D

 51 56  0  0  0  0  0  0  0  0999 V2000
   -3.4928   -0.8075    3.1459 C   0  0  0  0  0  0  0  0  0  0  0  0
   -3.1143   -0.1486    1.8681 C   0  0  0  0  0  0  0  0  0  0  0  0
   -1.8010   -0.1425    1.4274 C   0  0  0  0  0  0  0  0  0  0  0  0
   -1.4809    0.4860    0.2219 C   0  0  0  0  0  0  0  0  0  0  0  0
   -0.1113    0.4703   -0.1990 N   0  0  0  0  0  0  0  0  0  0  0  0
    0.7887    1.4859    0.2165 C   0  0  0  0  0  0  0  0  0  0  0  0
    0.5275    2.4647    1.0001 O   0  0  0  0  0  0  0  0  0  0  0  0
    2.0632    1.2139   -0.4110 C   0  0  0  0  0  0  0  0  0  0  0  0
    3.3465    1.6981   -0.5460 C   0  0  0  0  0  0  0  0  0  0  0  0
    3.9676    2.8816    0.0987 C   0  0  0  0  0  0  0  0  0  0  0  0
    4.9879    2.5993    1.1828 C   0  0  0  0  0  0  0  0  0  0  0  0
    3.6490    3.3011    1.4724 C   0  0  0  0  0  0  0  0  0  0  0  0
    3.9558    0.8276   -1.3989 N   0  0  0  0  0  0  0  0  0  0  0  0
    3.1400   -0.1308   -1.7779 N   0  0  0  0  0  0  0  0  0  0  0  0
    3.4853   -1.2257   -2.7104 C   0  0  0  0  0  0  0  0  0  0  0  0
    1.9555    0.0754   -1.1832 C   0  0  0  0  0  0  0  0  0  0  0  0
    0.6063   -0.4419   -1.0332 C   0  0  1  0  0  0  0  0  0  0  0  0
    0.4841   -1.8431   -0.6106 C   0  0  0  0  0  0  0  0  0  0  0  0
   -0.7840   -2.3904   -0.5840 C   0  0  0  0  0  0  0  0  0  0  0  0
   -0.9978   -3.6996   -0.1778 C   0  0  0  0  0  0  0  0  0  0  0  0
    0.0498   -4.5048    0.2149 C   0  0  0  0  0  0  0  0  0  0  0  0
   -0.1951   -6.1666    0.7333 Cl  0  0  0  0  0  0  0  0  0  0  0  0
    1.3137   -3.9578    0.1877 C   0  0  0  0  0  0  0  0  0  0  0  0
    1.5204   -2.6335   -0.2239 C   0  0  0  0  0  0  0  0  0  0  0  0
   -2.4628    1.0726   -0.4837 N   0  0  0  0  0  0  0  0  0  0  0  0
   -3.7146    1.0854   -0.0962 N   0  0  0  0  0  0  0  0  0  0  0  0
   -4.8105    1.6215   -0.6762 C   0  0  0  0  0  0  0  0  0  0  0  0
   -4.9034    2.3723   -1.9606 C   0  0  0  0  0  0  0  0  0  0  0  0
   -5.8245    1.3303    0.1658 N   0  0  0  0  0  0  0  0  0  0  0  0
   -5.3546    0.6469    1.2087 N   0  0  0  0  0  0  0  0  0  0  0  0
   -4.0421    0.4851    1.0622 C   0  0  0  0  0  0  0  0  0  0  0  0
   -4.5048   -1.3007    3.0577 H   0  0  0  0  0  0  0  0  0  0  0  0
   -2.7815   -1.6116    3.3835 H   0  0  0  0  0  0  0  0  0  0  0  0
   -3.5955   -0.0827    3.9732 H   0  0  0  0  0  0  0  0  0  0  0  0
   -1.0210   -0.6092    1.9893 H   0  0  0  0  0  0  0  0  0  0  0  0
    4.3571    3.6326   -0.6502 H   0  0  0  0  0  0  0  0  0  0  0  0
    5.1184    1.5648    1.5209 H   0  0  0  0  0  0  0  0  0  0  0  0
    5.8935    3.2239    1.2614 H   0  0  0  0  0  0  0  0  0  0  0  0
    2.9650    2.6836    2.0641 H   0  0  0  0  0  0  0  0  0  0  0  0
    3.7386    4.3734    1.7404 H   0  0  0  0  0  0  0  0  0  0  0  0
    4.0156   -1.9829   -2.0991 H   0  0  0  0  0  0  0  0  0  0  0  0
    2.5694   -1.6709   -3.1100 H   0  0  0  0  0  0  0  0  0  0  0  0
    4.1684   -0.8272   -3.4863 H   0  0  0  0  0  0  0  0  0  0  0  0
    0.0871   -0.3679   -2.0546 H   0  0  0  0  0  0  0  0  0  0  0  0
   -1.6684   -1.8205   -0.8874 H   0  0  0  0  0  0  0  0  0  0  0  0
   -1.9881   -4.1434   -0.1514 H   0  0  0  0  0  0  0  0  0  0  0  0
    2.1864   -4.5421    0.4862 H   0  0  0  0  0  0  0  0  0  0  0  0
    2.5147   -2.2130   -0.2319 H   0  0  0  0  0  0  0  0  0  0  0  0
   -4.1055    2.0294   -2.6705 H   0  0  0  0  0  0  0  0  0  0  0  0
   -4.8371    3.4662   -1.7884 H   0  0  0  0  0  0  0  0  0  0  0  0
   -5.8638    2.1729   -2.4803 H   0  0  0  0  0  0  0  0  0  0  0  0
  1  2  1  0
  2  3  2  0
  3  4  1  0
  4  5  1  0
  5  6  1  0
  6  7  2  0
  6  8  1  0
  8  9  1  0
  9 10  1  0
 10 11  1  0
 11 12  1  0
  9 13  2  0
 13 14  1  0
 14 15  1  0
 14 16  1  0
 16 17  1  0
 17 18  1  0
 18 19  2  0
 19 20  1  0
 20 21  2  0
 21 22  1  0
 21 23  1  0
 23 24  2  0
  4 25  2  0
 25 26  1  0
 26 27  1  0
 27 28  1  0
 27 29  2  0
 29 30  1  0
 30 31  2  0
 31  2  1  0
 17  5  1  0
 24 18  1  0
 31 26  1  0
 16  8  2  0
 12 10  1  0
  1 32  1  0
  1 33  1  0
  1 34  1  0
  3 35  1  0
 10 36  1  0
 11 37  1  0
 11 38  1  0
 12 39  1  0
 12 40  1  0
 15 41  1  0
 15 42  1  0
 15 43  1  0
 17 44  1  6
 19 45  1  0
 20 46  1  0
 23 47  1  0
 24 48  1  0
 28 49  1  0
 28 50  1  0
 28 51  1  0
M  END
$$$$
