@<TRIPOS>MOLECULE
*****
 75 79 0 0 0
SMALL
GASTEIGER

@<TRIPOS>ATOM
      1 C          -5.3903    6.9202    0.7938 C.3     1  UNL1        0.0302
      2 N          -5.2626    5.9260   -0.2626 N.ar    1  UNL1       -0.2742
      3 C          -4.1214    5.2183   -0.4885 C.ar    1  UNL1        0.0286
      4 C          -4.3903    4.3747   -1.5740 C.ar    1  UNL1       -0.0054
      5 C          -3.4332    3.4092   -2.1867 C.3     1  UNL1        0.0071
      6 C          -3.4773    2.1241   -1.4347 C.ar    1  UNL1        0.0394
      7 C          -2.4672    1.7708   -0.5539 C.ar    1  UNL1        0.0161
      8 N          -2.5695    0.6142    0.0906 N.ar    1  UNL1       -0.3177
      9 C          -1.5003    0.2457    1.0337 C.3     1  UNL1        0.1015
     10 C          -0.4421   -0.5050    0.3456 C.2     1  UNL1        0.2358
     11 O          -0.5068   -0.5842   -0.9265 O.2     1  UNL1       -0.2736
     12 N           0.5985   -1.1228    1.0713 N.am    1  UNL1       -0.2935
     13 C           0.6901   -0.9484    2.4920 C.3     1  UNL1        0.0382
     14 C           1.5481    0.1704    2.9723 C.3     1  UNL1        0.0600
     15 O           1.1831    1.4239    2.5476 O.3     1  UNL1       -0.3935
     16 C           1.5075   -1.9585    0.3579 C.3     1  UNL1        0.0398
     17 C           2.7471   -1.3519   -0.1399 C.ar    1  UNL1       -0.0301
     18 C           3.8685   -1.4705    0.6703 C.ar    1  UNL1       -0.0565
     19 C           5.1003   -0.9660    0.3124 C.ar    1  UNL1       -0.0537
     20 C           5.2779   -0.3027   -0.9002 C.ar    1  UNL1       -0.0179
     21 C           6.5827    0.2146   -1.2908 C.ar    1  UNL1       -0.0178
     22 C           7.6813   -0.5095   -0.8507 C.ar    1  UNL1       -0.0527
     23 C           8.9535   -0.0857   -1.1702 C.ar    1  UNL1       -0.0428
     24 C           9.1270    1.0675   -1.9327 C.ar    1  UNL1        0.0410
     25 CL         10.7347    1.5947   -2.3297 Cl      1  UNL1       -0.0835
     26 C           8.0552    1.7953   -2.3765 C.ar    1  UNL1       -0.0428
     27 C           6.7890    1.3462   -2.0409 C.ar    1  UNL1       -0.0527
     28 C           4.1648   -0.1846   -1.7022 C.ar    1  UNL1       -0.0537
     29 C           2.9239   -0.7004   -1.3273 C.ar    1  UNL1       -0.0565
     30 C          -3.6013   -0.2606   -0.0495 C.ar    1  UNL1        0.1733
     31 S          -3.6653   -1.7929    0.8572 S.3     1  UNL1       -0.0829
     32 C          -2.9053   -3.1493   -0.0626 C.3     1  UNL1        0.0262
     33 C          -2.9336   -4.3938    0.7605 C.ar    1  UNL1       -0.0370
     34 C          -3.9625   -5.3067    0.7173 C.ar    1  UNL1       -0.0551
     35 C          -3.9553   -6.4470    1.5008 C.ar    1  UNL1       -0.0262
     36 C          -2.9183   -6.7220    2.3599 C.ar    1  UNL1        0.1234
     37 F          -2.8941   -7.8454    3.1417 F       1  UNL1       -0.2055
     38 C          -1.8737   -5.8053    2.4102 C.ar    1  UNL1       -0.0262
     39 C          -1.8872   -4.6721    1.6278 C.ar    1  UNL1       -0.0551
     40 N          -4.5830    0.0949   -0.9140 N.ar    1  UNL1       -0.1848
     41 C          -4.5344    1.2532   -1.5942 C.ar    1  UNL1        0.2773
     42 O          -5.4763    1.5315   -2.3854 O.2     1  UNL1       -0.2655
     43 C          -5.6897    4.6029   -1.9671 C.ar    1  UNL1        0.0528
     44 N          -6.1736    5.5491   -1.1436 N.ar    1  UNL1       -0.1796
     45 H          -6.0620    7.7211    0.4175 H       1  UNL1        0.0473
     46 H          -4.3969    7.3208    1.0568 H       1  UNL1        0.0473
     47 H          -5.8342    6.4181    1.6820 H       1  UNL1        0.0473
     48 H          -3.1906    5.2873    0.0559 H       1  UNL1        0.0829
     49 H          -3.7366    3.2400   -3.2406 H       1  UNL1        0.0365
     50 H          -2.4142    3.8399   -2.1959 H       1  UNL1        0.0365
     51 H          -1.6202    2.4513   -0.4169 H       1  UNL1        0.0814
     52 H          -1.9693   -0.3678    1.8596 H       1  UNL1        0.0588
     53 H          -1.2059    1.1827    1.5023 H       1  UNL1        0.0588
     54 H           1.1111   -1.8828    2.9881 H       1  UNL1        0.0487
     55 H          -0.3098   -0.8462    2.9733 H       1  UNL1        0.0487
     56 H           1.4898    0.1375    4.1005 H       1  UNL1        0.0573
     57 H           2.6375   -0.0399    2.7848 H       1  UNL1        0.0573
     58 H           1.6623    1.7233    1.7297 H       1  UNL1        0.2095
     59 H           1.7339   -2.8916    0.9698 H       1  UNL1        0.0514
     60 H           1.0176   -2.4205   -0.5604 H       1  UNL1        0.0514
     61 H           3.7671   -1.9880    1.6346 H       1  UNL1        0.0621
     62 H           5.9579   -1.0649    0.9524 H       1  UNL1        0.0624
     63 H           7.5511   -1.4006   -0.2627 H       1  UNL1        0.0624
     64 H           9.7984   -0.6654   -0.8197 H       1  UNL1        0.0632
     65 H           8.1362    2.6912   -2.9671 H       1  UNL1        0.0632
     66 H           5.9165    1.9042   -2.3793 H       1  UNL1        0.0624
     67 H           4.2460    0.3220   -2.6550 H       1  UNL1        0.0624
     68 H           2.0492   -0.6036   -1.9674 H       1  UNL1        0.0621
     69 H          -3.4349   -3.2861   -1.0396 H       1  UNL1        0.0429
     70 H          -1.8772   -2.8630   -0.3289 H       1  UNL1        0.0429
     71 H          -4.7963   -5.1074    0.0396 H       1  UNL1        0.0621
     72 H          -4.7724   -7.1420    1.4459 H       1  UNL1        0.0646
     73 H          -1.0460   -6.0142    3.0859 H       1  UNL1        0.0646
     74 H          -1.0792   -3.9431    1.6541 H       1  UNL1        0.0621
     75 H          -6.2484    4.1256   -2.7878 H       1  UNL1        0.0851
@<TRIPOS>BOND
     1     1     2    1
     2     2     3   ar
     3     3     4   ar
     4     4     5    1
     5     5     6    1
     6     6     7   ar
     7     7     8   ar
     8     8     9    1
     9     9    10    1
    10    10    11    2
    11    10    12   am
    12    12    13    1
    13    13    14    1
    14    14    15    1
    15    12    16    1
    16    16    17    1
    17    17    18   ar
    18    18    19   ar
    19    19    20   ar
    20    20    21    1
    21    21    22   ar
    22    22    23   ar
    23    23    24   ar
    24    24    25    1
    25    24    26   ar
    26    26    27   ar
    27    20    28   ar
    28    28    29   ar
    29     8    30   ar
    30    30    31    1
    31    31    32    1
    32    32    33    1
    33    33    34   ar
    34    34    35   ar
    35    35    36   ar
    36    36    37    1
    37    36    38   ar
    38    38    39   ar
    39    30    40   ar
    40    40    41   ar
    41    41    42    2
    42     4    43   ar
    43    43    44   ar
    44    44     2   ar
    45    41     6   ar
    46    29    17   ar
    47    39    33   ar
    48    27    21   ar
    49     1    45    1
    50     1    46    1
    51     1    47    1
    52     3    48    1
    53     5    49    1
    54     5    50    1
    55     7    51    1
    56     9    52    1
    57     9    53    1
    58    13    54    1
    59    13    55    1
    60    14    56    1
    61    14    57    1
    62    15    58    1
    63    16    59    1
    64    16    60    1
    65    18    61    1
    66    19    62    1
    67    22    63    1
    68    23    64    1
    69    26    65    1
    70    27    66    1
    71    28    67    1
    72    29    68    1
    73    32    69    1
    74    32    70    1
    75    34    71    1
    76    35    72    1
    77    38    73    1
    78    39    74    1
    79    43    75    1
