
     RDKit          3D

 75 79  0  0  0  0  0  0  0  0999 V2000
   -5.3903    6.9202    0.7938 C   0  0  0  0  0  0  0  0  0  0  0  0
   -5.2626    5.9260   -0.2626 N   0  0  0  0  0  0  0  0  0  0  0  0
   -4.1214    5.2183   -0.4885 C   0  0  0  0  0  0  0  0  0  0  0  0
   -4.3903    4.3747   -1.5740 C   0  0  0  0  0  0  0  0  0  0  0  0
   -3.4332    3.4092   -2.1867 C   0  0  0  0  0  0  0  0  0  0  0  0
   -3.4773    2.1241   -1.4347 C   0  0  0  0  0  0  0  0  0  0  0  0
   -2.4672    1.7708   -0.5539 C   0  0  0  0  0  0  0  0  0  0  0  0
   -2.5695    0.6142    0.0906 N   0  0  0  0  0  0  0  0  0  0  0  0
   -1.5003    0.2457    1.0337 C   0  0  0  0  0  0  0  0  0  0  0  0
   -0.4421   -0.5050    0.3456 C   0  0  0  0  0  0  0  0  0  0  0  0
   -0.5068   -0.5842   -0.9265 O   0  0  0  0  0  0  0  0  0  0  0  0
    0.5985   -1.1228    1.0713 N   0  0  0  0  0  0  0  0  0  0  0  0
    0.6901   -0.9484    2.4920 C   0  0  0  0  0  0  0  0  0  0  0  0
    1.5481    0.1704    2.9723 C   0  0  0  0  0  0  0  0  0  0  0  0
    1.1831    1.4239    2.5476 O   0  0  0  0  0  0  0  0  0  0  0  0
    1.5075   -1.9585    0.3579 C   0  0  0  0  0  0  0  0  0  0  0  0
    2.7471   -1.3519   -0.1399 C   0  0  0  0  0  0  0  0  0  0  0  0
    3.8685   -1.4705    0.6703 C   0  0  0  0  0  0  0  0  0  0  0  0
    5.1003   -0.9660    0.3124 C   0  0  0  0  0  0  0  0  0  0  0  0
    5.2779   -0.3027   -0.9002 C   0  0  0  0  0  0  0  0  0  0  0  0
    6.5827    0.2146   -1.2908 C   0  0  0  0  0  0  0  0  0  0  0  0
    7.6813   -0.5095   -0.8507 C   0  0  0  0  0  0  0  0  0  0  0  0
    8.9535   -0.0857   -1.1702 C   0  0  0  0  0  0  0  0  0  0  0  0
    9.1270    1.0675   -1.9327 C   0  0  0  0  0  0  0  0  0  0  0  0
   10.7347    1.5947   -2.3297 Cl  0  0  0  0  0  0  0  0  0  0  0  0
    8.0552    1.7953   -2.3765 C   0  0  0  0  0  0  0  0  0  0  0  0
    6.7890    1.3462   -2.0409 C   0  0  0  0  0  0  0  0  0  0  0  0
    4.1648   -0.1846   -1.7022 C   0  0  0  0  0  0  0  0  0  0  0  0
    2.9239   -0.7004   -1.3273 C   0  0  0  0  0  0  0  0  0  0  0  0
   -3.6013   -0.2606   -0.0495 C   0  0  0  0  0  0  0  0  0  0  0  0
   -3.6653   -1.7929    0.8572 S   0  0  0  0  0  0  0  0  0  0  0  0
   -2.9053   -3.1493   -0.0626 C   0  0  0  0  0  0  0  0  0  0  0  0
   -2.9336   -4.3938    0.7605 C   0  0  0  0  0  0  0  0  0  0  0  0
   -3.9625   -5.3067    0.7173 C   0  0  0  0  0  0  0  0  0  0  0  0
   -3.9553   -6.4470    1.5008 C   0  0  0  0  0  0  0  0  0  0  0  0
   -2.9183   -6.7220    2.3599 C   0  0  0  0  0  0  0  0  0  0  0  0
   -2.8941   -7.8454    3.1417 F   0  0  0  0  0  0  0  0  0  0  0  0
   -1.8737   -5.8053    2.4102 C   0  0  0  0  0  0  0  0  0  0  0  0
   -1.8872   -4.6721    1.6278 C   0  0  0  0  0  0  0  0  0  0  0  0
   -4.5830    0.0949   -0.9140 N   0  0  0  0  0  0  0  0  0  0  0  0
   -4.5344    1.2532   -1.5942 C   0  0  0  0  0  0  0  0  0  0  0  0
   -5.4763    1.5315   -2.3854 O   0  0  0  0  0  0  0  0  0  0  0  0
   -5.6897    4.6029   -1.9671 C   0  0  0  0  0  0  0  0  0  0  0  0
   -6.1736    5.5491   -1.1436 N   0  0  0  0  0  0  0  0  0  0  0  0
   -6.0620    7.7211    0.4175 H   0  0  0  0  0  0  0  0  0  0  0  0
   -4.3969    7.3208    1.0568 H   0  0  0  0  0  0  0  0  0  0  0  0
   -5.8342    6.4181    1.6820 H   0  0  0  0  0  0  0  0  0  0  0  0
   -3.1906    5.2873    0.0559 H   0  0  0  0  0  0  0  0  0  0  0  0
   -3.7366    3.2400   -3.2406 H   0  0  0  0  0  0  0  0  0  0  0  0
   -2.4142    3.8399   -2.1959 H   0  0  0  0  0  0  0  0  0  0  0  0
   -1.6202    2.4513   -0.4169 H   0  0  0  0  0  0  0  0  0  0  0  0
   -1.9693   -0.3678    1.8596 H   0  0  0  0  0  0  0  0  0  0  0  0
   -1.2059    1.1827    1.5023 H   0  0  0  0  0  0  0  0  0  0  0  0
    1.1111   -1.8828    2.9881 H   0  0  0  0  0  0  0  0  0  0  0  0
   -0.3098   -0.8462    2.9733 H   0  0  0  0  0  0  0  0  0  0  0  0
    1.4898    0.1375    4.1005 H   0  0  0  0  0  0  0  0  0  0  0  0
    2.6375   -0.0399    2.7848 H   0  0  0  0  0  0  0  0  0  0  0  0
    1.6623    1.7233    1.7297 H   0  0  0  0  0  0  0  0  0  0  0  0
    1.7339   -2.8916    0.9698 H   0  0  0  0  0  0  0  0  0  0  0  0
    1.0176   -2.4205   -0.5604 H   0  0  0  0  0  0  0  0  0  0  0  0
    3.7671   -1.9880    1.6346 H   0  0  0  0  0  0  0  0  0  0  0  0
    5.9579   -1.0649    0.9524 H   0  0  0  0  0  0  0  0  0  0  0  0
    7.5511   -1.4006   -0.2627 H   0  0  0  0  0  0  0  0  0  0  0  0
    9.7984   -0.6654   -0.8197 H   0  0  0  0  0  0  0  0  0  0  0  0
    8.1362    2.6912   -2.9671 H   0  0  0  0  0  0  0  0  0  0  0  0
    5.9165    1.9042   -2.3793 H   0  0  0  0  0  0  0  0  0  0  0  0
    4.2460    0.3220   -2.6550 H   0  0  0  0  0  0  0  0  0  0  0  0
    2.0492   -0.6036   -1.9674 H   0  0  0  0  0  0  0  0  0  0  0  0
   -3.4349   -3.2861   -1.0396 H   0  0  0  0  0  0  0  0  0  0  0  0
   -1.8772   -2.8630   -0.3289 H   0  0  0  0  0  0  0  0  0  0  0  0
   -4.7963   -5.1074    0.0396 H   0  0  0  0  0  0  0  0  0  0  0  0
   -4.7724   -7.1420    1.4459 H   0  0  0  0  0  0  0  0  0  0  0  0
   -1.0460   -6.0142    3.0859 H   0  0  0  0  0  0  0  0  0  0  0  0
   -1.0792   -3.9431    1.6541 H   0  0  0  0  0  0  0  0  0  0  0  0
   -6.2484    4.1256   -2.7878 H   0  0  0  0  0  0  0  0  0  0  0  0
  1  2  1  0
  2  3  1  0
  3  4  2  0
  4  5  1  0
  5  6  1  0
  6  7  2  0
  7  8  1  0
  8  9  1  0
  9 10  1  0
 10 11  2  0
 10 12  1  0
 12 13  1  0
 13 14  1  0
 14 15  1  0
 12 16  1  0
 16 17  1  0
 17 18  2  0
 18 19  1  0
 19 20  2  0
 20 21  1  0
 21 22  2  0
 22 23  1  0
 23 24  2  0
 24 25  1  0
 24 26  1  0
 26 27  2  0
 20 28  1  0
 28 29  2  0
  8 30  1  0
 30 31  1  0
 31 32  1  0
 32 33  1  0
 33 34  2  0
 34 35  1  0
 35 36  2  0
 36 37  1  0
 36 38  1  0
 38 39  2  0
 30 40  2  0
 40 41  1  0
 41 42  2  0
  4 43  1  0
 43 44  2  0
 44  2  1  0
 41  6  1  0
 29 17  1  0
 39 33  1  0
 27 21  1  0
  1 45  1  0
  1 46  1  0
  1 47  1  0
  3 48  1  0
  5 49  1  0
  5 50  1  0
  7 51  1  0
  9 52  1  0
  9 53  1  0
 13 54  1  0
 13 55  1  0
 14 56  1  0
 14 57  1  0
 15 58  1  0
 16 59  1  0
 16 60  1  0
 18 61  1  0
 19 62  1  0
 22 63  1  0
 23 64  1  0
 26 65  1  0
 27 66  1  0
 28 67  1  0
 29 68  1  0
 32 69  1  0
 32 70  1  0
 34 71  1  0
 35 72  1  0
 38 73  1  0
 39 74  1  0
 43 75  1  0
M  END
$$$$
