
     RDKit          3D

 63 68  0  0  0  0  0  0  0  0999 V2000
    5.4900   -0.1461   -1.2421 C   0  0  0  0  0  0  0  0  0  0  0  0
    4.9185   -0.0379    0.0672 N   0  0  0  0  0  0  0  0  0  0  0  0
    5.9041   -0.0768    1.1040 C   0  0  0  0  0  0  0  0  0  0  0  0
    3.7941   -0.9072    0.2993 C   0  0  0  0  0  0  0  0  0  0  0  0
    2.6192   -0.3595   -0.6158 C   0  0  2  0  0  0  0  0  0  0  0  0
    2.5320    1.0366   -0.2543 C   0  0  0  0  0  0  0  0  0  0  0  0
    1.6762    2.0612   -0.8189 C   0  0  0  0  0  0  0  0  0  0  0  0
    0.2432    2.0569   -0.6464 N   0  0  0  0  0  0  0  0  0  0  0  0
   -0.7527    1.5128   -1.3750 C   0  0  0  0  0  0  0  0  0  0  0  0
   -1.9348    1.7679   -0.7438 C   0  0  0  0  0  0  0  0  0  0  0  0
   -1.6754    2.5160    0.4338 C   0  0  0  0  0  0  0  0  0  0  0  0
   -2.4488    3.0704    1.4511 C   0  0  0  0  0  0  0  0  0  0  0  0
   -1.8869    3.7730    2.4870 C   0  0  0  0  0  0  0  0  0  0  0  0
   -0.5315    3.9458    2.5416 C   0  0  0  0  0  0  0  0  0  0  0  0
    0.2232    3.3964    1.5342 C   0  0  0  0  0  0  0  0  0  0  0  0
   -0.3203    2.6747    0.4634 C   0  0  0  0  0  0  0  0  0  0  0  0
   -3.3609    1.3563   -1.0145 C   0  0  0  0  0  0  0  0  0  0  0  0
   -3.7486    0.0496   -1.1045 C   0  0  0  0  0  0  0  0  0  0  0  0
   -5.1887    0.0634   -1.3611 C   0  0  0  0  0  0  0  0  0  0  0  0
   -5.9384   -0.9639   -1.5098 O   0  0  0  0  0  0  0  0  0  0  0  0
   -5.6458    1.3640   -1.4210 N   0  0  0  0  0  0  0  0  0  0  0  0
   -4.5443    2.2050   -1.2094 C   0  0  0  0  0  0  0  0  0  0  0  0
   -4.6308    3.4600   -1.2004 O   0  0  0  0  0  0  0  0  0  0  0  0
   -2.7956   -1.0956   -0.8864 C   0  0  0  0  0  0  0  0  0  0  0  0
   -1.6504   -1.4144   -1.5304 C   0  0  0  0  0  0  0  0  0  0  0  0
   -1.0629   -2.4299   -0.8532 N   0  0  0  0  0  0  0  0  0  0  0  0
   -1.8319   -2.7905    0.2229 C   0  0  0  0  0  0  0  0  0  0  0  0
   -1.7184   -3.7765    1.2193 C   0  0  0  0  0  0  0  0  0  0  0  0
   -2.6853   -3.9248    2.1851 C   0  0  0  0  0  0  0  0  0  0  0  0
   -3.7773   -3.1015    2.1802 C   0  0  0  0  0  0  0  0  0  0  0  0
   -3.9023   -2.1298    1.2102 C   0  0  0  0  0  0  0  0  0  0  0  0
   -2.9264   -1.9660    0.2204 C   0  0  0  0  0  0  0  0  0  0  0  0
    0.2519   -3.0237   -1.0892 C   0  0  0  0  0  0  0  0  0  0  0  0
    1.3824   -2.1251   -1.4183 C   0  0  0  0  0  0  0  0  0  0  0  0
    1.5511   -1.1658   -0.4138 O   0  0  0  0  0  0  0  0  0  0  0  0
    6.5491    0.2145   -1.2588 H   0  0  0  0  0  0  0  0  0  0  0  0
    5.5355   -1.2365   -1.4991 H   0  0  0  0  0  0  0  0  0  0  0  0
    4.8606    0.4252   -1.9504 H   0  0  0  0  0  0  0  0  0  0  0  0
    6.9020    0.2221    0.7362 H   0  0  0  0  0  0  0  0  0  0  0  0
    5.6514    0.6444    1.9352 H   0  0  0  0  0  0  0  0  0  0  0  0
    6.0235   -1.0978    1.5536 H   0  0  0  0  0  0  0  0  0  0  0  0
    3.5179   -0.8566    1.3411 H   0  0  0  0  0  0  0  0  0  0  0  0
    4.0016   -1.9250   -0.0136 H   0  0  0  0  0  0  0  0  0  0  0  0
    3.0997   -0.5255   -1.6231 H   0  0  0  0  0  0  0  0  0  0  0  0
    3.5935    1.4997   -0.2288 H   0  0  0  0  0  0  0  0  0  0  0  0
    2.3310    1.0954    0.9024 H   0  0  0  0  0  0  0  0  0  0  0  0
    2.0922    3.0309   -0.3055 H   0  0  0  0  0  0  0  0  0  0  0  0
    2.0528    2.3353   -1.8566 H   0  0  0  0  0  0  0  0  0  0  0  0
   -0.5527    0.9819   -2.3693 H   0  0  0  0  0  0  0  0  0  0  0  0
   -3.5174    2.9539    1.4387 H   0  0  0  0  0  0  0  0  0  0  0  0
   -2.5425    4.1780    3.2440 H   0  0  0  0  0  0  0  0  0  0  0  0
   -0.0784    4.5037    3.3634 H   0  0  0  0  0  0  0  0  0  0  0  0
    1.2874    3.5278    1.5701 H   0  0  0  0  0  0  0  0  0  0  0  0
   -6.6491    1.6859   -1.5971 H   0  0  0  0  0  0  0  0  0  0  0  0
   -1.2596   -0.9996   -2.5450 H   0  0  0  0  0  0  0  0  0  0  0  0
   -0.8409   -4.3987    1.1784 H   0  0  0  0  0  0  0  0  0  0  0  0
   -2.5441   -4.6942    2.9188 H   0  0  0  0  0  0  0  0  0  0  0  0
   -4.5668   -3.1954    2.9379 H   0  0  0  0  0  0  0  0  0  0  0  0
   -4.7674   -1.4898    1.2194 H   0  0  0  0  0  0  0  0  0  0  0  0
    0.5001   -3.6547   -0.1797 H   0  0  0  0  0  0  0  0  0  0  0  0
    0.2397   -3.8306   -1.8825 H   0  0  0  0  0  0  0  0  0  0  0  0
    1.1677   -1.5567   -2.3461 H   0  0  0  0  0  0  0  0  0  0  0  0
    2.2858   -2.7127   -1.5954 H   0  0  0  0  0  0  0  0  0  0  0  0
  1  2  1  0
  2  3  1  0
  2  4  1  0
  4  5  1  0
  5  6  1  0
  6  7  1  0
  7  8  1  0
  8  9  1  0
  9 10  2  0
 10 11  1  0
 11 12  2  0
 12 13  1  0
 13 14  2  0
 14 15  1  0
 15 16  2  0
 10 17  1  0
 17 18  2  0
 18 19  1  0
 19 20  2  0
 19 21  1  0
 21 22  1  0
 22 23  2  0
 18 24  1  0
 24 25  2  0
 25 26  1  0
 26 27  1  0
 27 28  2  0
 28 29  1  0
 29 30  2  0
 30 31  1  0
 31 32  2  0
 26 33  1  0
 33 34  1  0
 34 35  1  0
 35  5  1  0
 16  8  1  0
 22 17  1  0
 32 24  1  0
 16 11  1  0
 32 27  1  0
  1 36  1  0
  1 37  1  0
  1 38  1  0
  3 39  1  0
  3 40  1  0
  3 41  1  0
  4 42  1  0
  4 43  1  0
  5 44  1  6
  6 45  1  0
  6 46  1  0
  7 47  1  0
  7 48  1  0
  9 49  1  0
 12 50  1  0
 13 51  1  0
 14 52  1  0
 15 53  1  0
 21 54  1  0
 25 55  1  0
 28 56  1  0
 29 57  1  0
 30 58  1  0
 31 59  1  0
 33 60  1  0
 33 61  1  0
 34 62  1  0
 34 63  1  0
M  END
$$$$
