@<TRIPOS>MOLECULE
*****
 63 68 0 0 0
SMALL
GASTEIGER

@<TRIPOS>ATOM
      1 C           5.4900   -0.1461   -1.2421 C.3     1  UNL1       -0.0130
      2 N           4.9185   -0.0379    0.0672 N.3     1  UNL1       -0.3059
      3 C           5.9041   -0.0768    1.1040 C.3     1  UNL1       -0.0130
      4 C           3.7941   -0.9072    0.2993 C.3     1  UNL1        0.0247
      5 C           2.6192   -0.3595   -0.6158 C.3     1  UNL1        0.0730
      6 C           2.5320    1.0366   -0.2543 C.3     1  UNL1       -0.0074
      7 C           1.6762    2.0612   -0.8189 C.3     1  UNL1        0.0257
      8 N           0.2432    2.0569   -0.6464 N.ar    1  UNL1       -0.3459
      9 C          -0.7527    1.5128   -1.3750 C.ar    1  UNL1        0.0136
     10 C          -1.9348    1.7679   -0.7438 C.ar    1  UNL1        0.0131
     11 C          -1.6754    2.5160    0.4338 C.ar    1  UNL1        0.0077
     12 C          -2.4488    3.0704    1.4511 C.ar    1  UNL1       -0.0520
     13 C          -1.8869    3.7730    2.4870 C.ar    1  UNL1       -0.0611
     14 C          -0.5315    3.9458    2.5416 C.ar    1  UNL1       -0.0598
     15 C           0.2232    3.3964    1.5342 C.ar    1  UNL1       -0.0376
     16 C          -0.3203    2.6747    0.4634 C.ar    1  UNL1        0.0497
     17 C          -3.3609    1.3563   -1.0145 C.2     1  UNL1        0.0590
     18 C          -3.7486    0.0496   -1.1045 C.2     1  UNL1        0.0590
     19 C          -5.1887    0.0634   -1.3611 C.2     1  UNL1        0.2519
     20 O          -5.9384   -0.9639   -1.5098 O.2     1  UNL1       -0.2697
     21 N          -5.6458    1.3640   -1.4210 N.am    1  UNL1       -0.2483
     22 C          -4.5443    2.2050   -1.2094 C.2     1  UNL1        0.2519
     23 O          -4.6308    3.4600   -1.2004 O.2     1  UNL1       -0.2697
     24 C          -2.7956   -1.0956   -0.8864 C.ar    1  UNL1        0.0131
     25 C          -1.6504   -1.4144   -1.5304 C.ar    1  UNL1        0.0137
     26 N          -1.0629   -2.4299   -0.8532 N.ar    1  UNL1       -0.3438
     27 C          -1.8319   -2.7905    0.2229 C.ar    1  UNL1        0.0497
     28 C          -1.7184   -3.7765    1.2193 C.ar    1  UNL1       -0.0376
     29 C          -2.6853   -3.9248    2.1851 C.ar    1  UNL1       -0.0598
     30 C          -3.7773   -3.1015    2.1802 C.ar    1  UNL1       -0.0611
     31 C          -3.9023   -2.1298    1.2102 C.ar    1  UNL1       -0.0520
     32 C          -2.9264   -1.9660    0.2204 C.ar    1  UNL1        0.0077
     33 C           0.2519   -3.0237   -1.0892 C.3     1  UNL1        0.0467
     34 C           1.3824   -2.1251   -1.4183 C.3     1  UNL1        0.0660
     35 O           1.5511   -1.1658   -0.4138 O.3     1  UNL1       -0.3735
     36 H           6.5491    0.2145   -1.2588 H       1  UNL1        0.0391
     37 H           5.5355   -1.2365   -1.4991 H       1  UNL1        0.0391
     38 H           4.8606    0.4252   -1.9504 H       1  UNL1        0.0391
     39 H           6.9020    0.2221    0.7362 H       1  UNL1        0.0391
     40 H           5.6514    0.6444    1.9352 H       1  UNL1        0.0391
     41 H           6.0235   -1.0978    1.5536 H       1  UNL1        0.0391
     42 H           3.5179   -0.8566    1.3411 H       1  UNL1        0.0452
     43 H           4.0016   -1.9250   -0.0136 H       1  UNL1        0.0452
     44 H           3.0997   -0.5255   -1.6231 H       1  UNL1        0.0609
     45 H           3.5935    1.4997   -0.2288 H       1  UNL1        0.0308
     46 H           2.3310    1.0954    0.9024 H       1  UNL1        0.0308
     47 H           2.0922    3.0309   -0.3055 H       1  UNL1        0.0492
     48 H           2.0528    2.3353   -1.8566 H       1  UNL1        0.0492
     49 H          -0.5527    0.9819   -2.3693 H       1  UNL1        0.0815
     50 H          -3.5174    2.9539    1.4387 H       1  UNL1        0.0624
     51 H          -2.5425    4.1780    3.2440 H       1  UNL1        0.0618
     52 H          -0.0784    4.5037    3.3634 H       1  UNL1        0.0618
     53 H           1.2874    3.5278    1.5701 H       1  UNL1        0.0638
     54 H          -6.6491    1.6859   -1.5971 H       1  UNL1        0.1581
     55 H          -1.2596   -0.9996   -2.5450 H       1  UNL1        0.0815
     56 H          -0.8409   -4.3987    1.1784 H       1  UNL1        0.0638
     57 H          -2.5441   -4.6942    2.9188 H       1  UNL1        0.0618
     58 H          -4.5668   -3.1954    2.9379 H       1  UNL1        0.0618
     59 H          -4.7674   -1.4898    1.2194 H       1  UNL1        0.0624
     60 H           0.5001   -3.6547   -0.1797 H       1  UNL1        0.0514
     61 H           0.2397   -3.8306   -1.8825 H       1  UNL1        0.0514
     62 H           1.1677   -1.5567   -2.3461 H       1  UNL1        0.0578
     63 H           2.2858   -2.7127   -1.5954 H       1  UNL1        0.0578
@<TRIPOS>BOND
     1     1     2    1
     2     2     3    1
     3     2     4    1
     4     4     5    1
     5     5     6    1
     6     6     7    1
     7     7     8    1
     8     8     9   ar
     9     9    10   ar
    10    10    11   ar
    11    11    12   ar
    12    12    13   ar
    13    13    14   ar
    14    14    15   ar
    15    15    16   ar
    16    10    17    1
    17    17    18    2
    18    18    19    1
    19    19    20    2
    20    19    21   am
    21    21    22   am
    22    22    23    2
    23    18    24    1
    24    24    25   ar
    25    25    26   ar
    26    26    27   ar
    27    27    28   ar
    28    28    29   ar
    29    29    30   ar
    30    30    31   ar
    31    31    32   ar
    32    26    33    1
    33    33    34    1
    34    34    35    1
    35    35     5    1
    36    16     8   ar
    37    22    17    1
    38    32    24   ar
    39    16    11   ar
    40    32    27   ar
    41     1    36    1
    42     1    37    1
    43     1    38    1
    44     3    39    1
    45     3    40    1
    46     3    41    1
    47     4    42    1
    48     4    43    1
    49     5    44    1
    50     6    45    1
    51     6    46    1
    52     7    47    1
    53     7    48    1
    54     9    49    1
    55    12    50    1
    56    13    51    1
    57    14    52    1
    58    15    53    1
    59    21    54    1
    60    25    55    1
    61    28    56    1
    62    29    57    1
    63    30    58    1
    64    31    59    1
    65    33    60    1
    66    33    61    1
    67    34    62    1
    68    34    63    1
