
     RDKit          3D

 57 61  0  0  0  0  0  0  0  0999 V2000
    6.1942    0.4543    3.0610 N   0  0  0  0  0  0  0  0  0  0  0  0
    6.3278    0.1660    1.9500 C   0  0  0  0  0  0  0  0  0  0  0  0
    6.5118   -0.2081    0.5771 C   0  0  0  0  0  0  0  0  0  0  0  0
    7.8573   -0.2747    0.1356 C   0  0  0  0  0  0  0  0  0  0  0  0
    8.0742   -0.6576   -1.1636 C   0  0  0  0  0  0  0  0  0  0  0  0
    6.9980   -0.9581   -1.9783 C   0  0  0  0  0  0  0  0  0  0  0  0
    5.7476   -0.8812   -1.5203 N   0  0  0  0  0  0  0  0  0  0  0  0
    5.4658   -0.5032   -0.2285 C   0  0  0  0  0  0  0  0  0  0  0  0
    4.1214   -0.4215    0.1521 N   0  0  0  0  0  0  0  0  0  0  0  0
    3.5407    0.0476    1.3524 C   0  0  1  0  0  0  0  0  0  0  0  0
    3.5566    1.5453    1.4210 C   0  0  0  0  0  0  0  0  0  0  0  0
    2.6097    1.8832    0.2442 C   0  0  0  0  0  0  0  0  0  0  0  0
    1.5337    0.9493    0.4890 N   0  0  0  0  0  0  0  0  0  0  0  0
    0.2076    1.1434    0.0221 C   0  0  0  0  0  0  0  0  0  0  0  0
   -0.1417    2.1484   -0.6465 O   0  0  0  0  0  0  0  0  0  0  0  0
   -0.8105    0.2100    0.2828 O   0  0  0  0  0  0  0  0  0  0  0  0
   -2.1321    0.3885   -0.1741 C   0  0  1  0  0  0  0  0  0  0  0  0
   -2.6248   -0.7404   -1.0194 C   0  0  0  0  0  0  0  0  0  0  0  0
   -2.7583   -2.0358   -0.2522 C   0  0  0  0  0  0  0  0  0  0  0  0
   -3.7558   -1.8280    0.8657 C   0  0  0  0  0  0  0  0  0  0  0  0
   -3.1509   -0.7808    1.7977 C   0  0  0  0  0  0  0  0  0  0  0  0
   -3.0394    0.4985    1.0334 C   0  0  0  0  0  0  0  0  0  0  0  0
   -4.4019    0.9447    0.5308 C   0  0  0  0  0  0  0  0  0  0  0  0
   -4.9274   -0.0993   -0.4123 C   0  0  2  0  0  0  0  0  0  0  0  0
   -6.2060    0.3843   -0.9753 C   0  0  0  0  0  0  0  0  0  0  0  0
   -6.2043    1.5897   -1.7093 N   0  0  0  0  0  0  0  0  0  0  0  0
   -7.2764   -0.2424   -0.8181 O   0  0  0  0  0  0  0  0  0  0  0  0
   -5.0984   -1.3861    0.3525 C   0  0  0  0  0  0  0  0  0  0  0  0
   -3.9865   -0.3509   -1.5562 C   0  0  0  0  0  0  0  0  0  0  0  0
    2.0051   -0.1774    1.2587 C   0  0  0  0  0  0  0  0  0  0  0  0
    8.6648   -0.0303    0.8091 H   0  0  0  0  0  0  0  0  0  0  0  0
    9.0719   -0.7331   -1.5769 H   0  0  0  0  0  0  0  0  0  0  0  0
    7.1663   -1.2625   -3.0090 H   0  0  0  0  0  0  0  0  0  0  0  0
    3.4392   -0.7886   -0.6172 H   0  0  0  0  0  0  0  0  0  0  0  0
    3.8951   -0.4720    2.2680 H   0  0  0  0  0  0  0  0  0  0  0  0
    2.9902    1.9157    2.3146 H   0  0  0  0  0  0  0  0  0  0  0  0
    4.5022    2.0520    1.2955 H   0  0  0  0  0  0  0  0  0  0  0  0
    3.1604    1.6522   -0.6826 H   0  0  0  0  0  0  0  0  0  0  0  0
    2.3097    2.9352    0.3363 H   0  0  0  0  0  0  0  0  0  0  0  0
   -2.2604    1.3297   -0.7479 H   0  0  0  0  0  0  0  0  0  0  0  0
   -1.9792   -0.9438   -1.8986 H   0  0  0  0  0  0  0  0  0  0  0  0
   -1.7869   -2.2955    0.1969 H   0  0  0  0  0  0  0  0  0  0  0  0
   -3.0958   -2.8083   -0.9692 H   0  0  0  0  0  0  0  0  0  0  0  0
   -3.8421   -2.7696    1.4116 H   0  0  0  0  0  0  0  0  0  0  0  0
   -3.7777   -0.6058    2.6782 H   0  0  0  0  0  0  0  0  0  0  0  0
   -2.1312   -1.1221    2.0568 H   0  0  0  0  0  0  0  0  0  0  0  0
   -2.6956    1.2870    1.7373 H   0  0  0  0  0  0  0  0  0  0  0  0
   -5.1077    1.0179    1.3868 H   0  0  0  0  0  0  0  0  0  0  0  0
   -4.2726    1.9340    0.0500 H   0  0  0  0  0  0  0  0  0  0  0  0
   -6.8080    2.3771   -1.4345 H   0  0  0  0  0  0  0  0  0  0  0  0
   -5.5873    1.6775   -2.5323 H   0  0  0  0  0  0  0  0  0  0  0  0
   -5.4850   -2.1660   -0.3084 H   0  0  0  0  0  0  0  0  0  0  0  0
   -5.7421   -1.1956    1.2342 H   0  0  0  0  0  0  0  0  0  0  0  0
   -3.8523    0.6023   -2.1087 H   0  0  0  0  0  0  0  0  0  0  0  0
   -4.4283   -1.1461   -2.1884 H   0  0  0  0  0  0  0  0  0  0  0  0
    1.6139   -0.0997    2.2919 H   0  0  0  0  0  0  0  0  0  0  0  0
    1.8015   -1.1495    0.7878 H   0  0  0  0  0  0  0  0  0  0  0  0
  1  2  3  0
  2  3  1  0
  3  4  2  0
  4  5  1  0
  5  6  2  0
  6  7  1  0
  7  8  2  0
  8  9  1  0
  9 10  1  0
 10 11  1  0
 11 12  1  0
 12 13  1  0
 13 14  1  0
 14 15  2  0
 14 16  1  0
 16 17  1  0
 17 18  1  0
 18 19  1  0
 19 20  1  0
 20 21  1  0
 21 22  1  0
 22 23  1  0
 23 24  1  0
 24 25  1  6
 25 26  1  0
 25 27  2  0
 24 28  1  0
 24 29  1  0
 13 30  1  0
  8  3  1  0
 30 10  1  0
 22 17  1  0
 29 18  1  0
 28 20  1  0
  4 31  1  0
  5 32  1  0
  6 33  1  0
  9 34  1  0
 10 35  1  1
 11 36  1  0
 11 37  1  0
 12 38  1  0
 12 39  1  0
 17 40  1  6
 18 41  1  0
 19 42  1  0
 19 43  1  0
 20 44  1  0
 21 45  1  0
 21 46  1  0
 22 47  1  0
 23 48  1  0
 23 49  1  0
 26 50  1  0
 26 51  1  0
 28 52  1  0
 28 53  1  0
 29 54  1  0
 29 55  1  0
 30 56  1  0
 30 57  1  0
M  END
$$$$
