@<TRIPOS>MOLECULE
*****
 57 61 0 0 0
SMALL
GASTEIGER

@<TRIPOS>ATOM
      1 N           6.1942    0.4543    3.0610 N.1     1  UNL1       -0.1908
      2 C           6.3278    0.1660    1.9500 C.1     1  UNL1        0.1026
      3 C           6.5118   -0.2081    0.5771 C.ar    1  UNL1        0.0914
      4 C           7.8573   -0.2747    0.1356 C.ar    1  UNL1       -0.0396
      5 C           8.0742   -0.6576   -1.1636 C.ar    1  UNL1       -0.0422
      6 C           6.9980   -0.9581   -1.9783 C.ar    1  UNL1        0.0298
      7 N           5.7476   -0.8812   -1.5203 N.ar    1  UNL1       -0.2392
      8 C           5.4658   -0.5032   -0.2285 C.ar    1  UNL1        0.1364
      9 N           4.1214   -0.4215    0.1521 N.pl3   1  UNL1       -0.3236
     10 C           3.5407    0.0476    1.3524 C.3     1  UNL1        0.0392
     11 C           3.5566    1.5453    1.4210 C.3     1  UNL1       -0.0171
     12 C           2.6097    1.8832    0.2442 C.3     1  UNL1        0.0196
     13 N           1.5337    0.9493    0.4890 N.am    1  UNL1       -0.2656
     14 C           0.2076    1.1434    0.0221 C.2     1  UNL1        0.4032
     15 O          -0.1417    2.1484   -0.6465 O.2     1  UNL1       -0.2262
     16 O          -0.8105    0.2100    0.2828 O.3     1  UNL1       -0.4464
     17 C          -2.1321    0.3885   -0.1741 C.3     1  UNL1        0.1103
     18 C          -2.6248   -0.7404   -1.0194 C.3     1  UNL1       -0.0023
     19 C          -2.7583   -2.0358   -0.2522 C.3     1  UNL1       -0.0439
     20 C          -3.7558   -1.8280    0.8657 C.3     1  UNL1       -0.0394
     21 C          -3.1509   -0.7808    1.7977 C.3     1  UNL1       -0.0439
     22 C          -3.0394    0.4985    1.0334 C.3     1  UNL1       -0.0023
     23 C          -4.4019    0.9447    0.5308 C.3     1  UNL1       -0.0328
     24 C          -4.9274   -0.0993   -0.4123 C.3     1  UNL1        0.0477
     25 C          -6.2060    0.3843   -0.9753 C.2     1  UNL1        0.2167
     26 N          -6.2043    1.5897   -1.7093 N.am    1  UNL1       -0.3289
     27 O          -7.2764   -0.2424   -0.8181 O.2     1  UNL1       -0.2754
     28 C          -5.0984   -1.3861    0.3525 C.3     1  UNL1       -0.0362
     29 C          -3.9865   -0.3509   -1.5562 C.3     1  UNL1       -0.0328
     30 C           2.0051   -0.1774    1.2587 C.3     1  UNL1        0.0362
     31 H           8.6648   -0.0303    0.8091 H       1  UNL1        0.0632
     32 H           9.0719   -0.7331   -1.5769 H       1  UNL1        0.0633
     33 H           7.1663   -1.2625   -3.0090 H       1  UNL1        0.0830
     34 H           3.4392   -0.7886   -0.6172 H       1  UNL1        0.1478
     35 H           3.8951   -0.4720    2.2680 H       1  UNL1        0.0514
     36 H           2.9902    1.9157    2.3146 H       1  UNL1        0.0299
     37 H           4.5022    2.0520    1.2955 H       1  UNL1        0.0299
     38 H           3.1604    1.6522   -0.6826 H       1  UNL1        0.0466
     39 H           2.3097    2.9352    0.3363 H       1  UNL1        0.0466
     40 H          -2.2604    1.3297   -0.7479 H       1  UNL1        0.0740
     41 H          -1.9792   -0.9438   -1.8986 H       1  UNL1        0.0337
     42 H          -1.7869   -2.2955    0.1969 H       1  UNL1        0.0272
     43 H          -3.0958   -2.8083   -0.9692 H       1  UNL1        0.0272
     44 H          -3.8421   -2.7696    1.4116 H       1  UNL1        0.0301
     45 H          -3.7777   -0.6058    2.6782 H       1  UNL1        0.0272
     46 H          -2.1312   -1.1221    2.0568 H       1  UNL1        0.0272
     47 H          -2.6956    1.2870    1.7373 H       1  UNL1        0.0337
     48 H          -5.1077    1.0179    1.3868 H       1  UNL1        0.0279
     49 H          -4.2726    1.9340    0.0500 H       1  UNL1        0.0279
     50 H          -6.8080    2.3771   -1.4345 H       1  UNL1        0.1449
     51 H          -5.5873    1.6775   -2.5323 H       1  UNL1        0.1449
     52 H          -5.4850   -2.1660   -0.3084 H       1  UNL1        0.0278
     53 H          -5.7421   -1.1956    1.2342 H       1  UNL1        0.0278
     54 H          -3.8523    0.6023   -2.1087 H       1  UNL1        0.0279
     55 H          -4.4283   -1.1461   -2.1884 H       1  UNL1        0.0279
     56 H           1.6139   -0.0997    2.2919 H       1  UNL1        0.0484
     57 H           1.8015   -1.1495    0.7878 H       1  UNL1        0.0484
@<TRIPOS>BOND
     1     1     2    3
     2     2     3    1
     3     3     4   ar
     4     4     5   ar
     5     5     6   ar
     6     6     7   ar
     7     7     8   ar
     8     8     9    1
     9     9    10    1
    10    10    11    1
    11    11    12    1
    12    12    13    1
    13    13    14   am
    14    14    15    2
    15    14    16    1
    16    16    17    1
    17    17    18    1
    18    18    19    1
    19    19    20    1
    20    20    21    1
    21    21    22    1
    22    22    23    1
    23    23    24    1
    24    24    25    1
    25    25    26   am
    26    25    27    2
    27    24    28    1
    28    24    29    1
    29    13    30    1
    30     8     3   ar
    31    30    10    1
    32    22    17    1
    33    29    18    1
    34    28    20    1
    35     4    31    1
    36     5    32    1
    37     6    33    1
    38     9    34    1
    39    10    35    1
    40    11    36    1
    41    11    37    1
    42    12    38    1
    43    12    39    1
    44    17    40    1
    45    18    41    1
    46    19    42    1
    47    19    43    1
    48    20    44    1
    49    21    45    1
    50    21    46    1
    51    22    47    1
    52    23    48    1
    53    23    49    1
    54    26    50    1
    55    26    51    1
    56    28    52    1
    57    28    53    1
    58    29    54    1
    59    29    55    1
    60    30    56    1
    61    30    57    1
