@<TRIPOS>MOLECULE
*****
 55 59 0 0 0
SMALL
GASTEIGER

@<TRIPOS>ATOM
      1 C          -7.0866    2.8033   -0.0063 C.3     1  UNL1        0.0124
      2 C          -5.8362    2.9086    0.8260 C.2     1  UNL1        0.2125
      3 O          -5.9362    3.2059    2.0611 O.2     1  UNL1       -0.2759
      4 N          -4.6020    2.6779    0.2256 N.am    1  UNL1       -0.3017
      5 C          -3.3783    2.7636    0.9913 C.3     1  UNL1        0.0153
      6 C          -2.2606    2.2413    0.0973 C.3     1  UNL1       -0.0287
      7 C          -2.5720    0.9189   -0.5158 C.3     1  UNL1        0.0093
      8 C          -2.5217   -0.1108    0.5469 C.ar    1  UNL1        0.1057
      9 N          -3.6696   -0.5016    1.1284 N.ar    1  UNL1       -0.2528
     10 C          -3.7026   -1.4421    2.0820 C.ar    1  UNL1        0.0462
     11 C          -2.5132   -2.0263    2.4764 C.ar    1  UNL1        0.0495
     12 N          -1.3896   -1.6544    1.9183 N.ar    1  UNL1       -0.2183
     13 C          -1.3417   -0.6804    0.9286 C.ar    1  UNL1        0.2374
     14 O          -0.1439   -0.3954    0.4465 O.3     1  UNL1       -0.4687
     15 C           0.5907    0.3339   -0.3714 C.3     1  UNL1        0.1330
     16 C           1.3031   -0.4571   -1.5048 C.3     1  UNL1        0.0522
     17 N           2.5114   -0.4714   -0.7234 N.pl3   1  UNL1       -0.3080
     18 C           3.7219   -1.2069   -0.7977 C.ar    1  UNL1        0.1221
     19 C           3.8423   -2.2261   -1.7253 C.ar    1  UNL1       -0.0211
     20 C           5.0253   -2.9273   -1.7918 C.ar    1  UNL1       -0.0493
     21 C           6.0902   -2.6206   -0.9418 C.ar    1  UNL1        0.0005
     22 C           7.2603   -3.3441   -1.0416 C.ar    1  UNL1       -0.0526
     23 C           8.3297   -3.0389   -0.1953 C.ar    1  UNL1       -0.0611
     24 C           8.2018   -2.0225    0.7248 C.ar    1  UNL1       -0.0597
     25 C           7.0114   -1.3275    0.7869 C.ar    1  UNL1       -0.0357
     26 C           5.9344   -1.5990   -0.0303 C.ar    1  UNL1        0.0731
     27 N           4.7683   -0.9281    0.0165 N.ar    1  UNL1       -0.2320
     28 C           2.0141    0.5454    0.1663 C.3     1  UNL1        0.0522
     29 C          -3.9401    0.9072   -1.2005 C.3     1  UNL1       -0.0287
     30 C          -4.4650    2.3402   -1.1676 C.3     1  UNL1        0.0153
     31 H          -7.0268    1.9044   -0.6300 H       1  UNL1        0.0323
     32 H          -7.9530    2.7252    0.6909 H       1  UNL1        0.0323
     33 H          -7.1703    3.7363   -0.5752 H       1  UNL1        0.0323
     34 H          -3.4176    2.2394    1.9563 H       1  UNL1        0.0465
     35 H          -3.1592    3.8380    1.1548 H       1  UNL1        0.0465
     36 H          -1.3934    2.0781    0.8025 H       1  UNL1        0.0287
     37 H          -1.9835    3.0183   -0.6143 H       1  UNL1        0.0287
     38 H          -1.8473    0.6727   -1.3068 H       1  UNL1        0.0367
     39 H          -4.5951   -1.7874    2.5766 H       1  UNL1        0.0845
     40 H          -2.5180   -2.8022    3.2591 H       1  UNL1        0.0846
     41 H           0.2349    1.2844   -0.8467 H       1  UNL1        0.0765
     42 H           1.3788    0.0816   -2.4482 H       1  UNL1        0.0501
     43 H           0.7971   -1.4322   -1.5989 H       1  UNL1        0.0501
     44 H           2.9962   -2.4378   -2.3688 H       1  UNL1        0.0652
     45 H           5.1252   -3.7316   -2.5211 H       1  UNL1        0.0625
     46 H           7.3131   -4.1335   -1.7803 H       1  UNL1        0.0624
     47 H           9.2267   -3.6391   -0.3182 H       1  UNL1        0.0618
     48 H           9.0524   -1.8167    1.3599 H       1  UNL1        0.0618
     49 H           6.9125   -0.5281    1.5112 H       1  UNL1        0.0639
     50 H           2.3564    1.5629   -0.0078 H       1  UNL1        0.0501
     51 H           2.0983    0.2741    1.2503 H       1  UNL1        0.0501
     52 H          -3.8586    0.5501   -2.2448 H       1  UNL1        0.0287
     53 H          -4.6773    0.3010   -0.6559 H       1  UNL1        0.0287
     54 H          -5.4103    2.3486   -1.7347 H       1  UNL1        0.0465
     55 H          -3.7266    3.0279   -1.6441 H       1  UNL1        0.0465
@<TRIPOS>BOND
     1     1     2    1
     2     2     3    2
     3     2     4   am
     4     4     5    1
     5     5     6    1
     6     6     7    1
     7     7     8    1
     8     8     9   ar
     9     9    10   ar
    10    10    11   ar
    11    11    12   ar
    12    12    13   ar
    13    13    14    1
    14    14    15    1
    15    15    16    1
    16    16    17    1
    17    17    18    1
    18    18    19   ar
    19    19    20   ar
    20    20    21   ar
    21    21    22   ar
    22    22    23   ar
    23    23    24   ar
    24    24    25   ar
    25    25    26   ar
    26    26    27   ar
    27    17    28    1
    28     7    29    1
    29    29    30    1
    30    30     4    1
    31    13     8   ar
    32    28    15    1
    33    27    18   ar
    34    26    21   ar
    35     1    31    1
    36     1    32    1
    37     1    33    1
    38     5    34    1
    39     5    35    1
    40     6    36    1
    41     6    37    1
    42     7    38    1
    43    10    39    1
    44    11    40    1
    45    15    41    1
    46    16    42    1
    47    16    43    1
    48    19    44    1
    49    20    45    1
    50    22    46    1
    51    23    47    1
    52    24    48    1
    53    25    49    1
    54    28    50    1
    55    28    51    1
    56    29    52    1
    57    29    53    1
    58    30    54    1
    59    30    55    1
