
     RDKit          3D

 41 41  0  0  0  0  0  0  0  0999 V2000
   -1.4714   -0.4335   -1.0662 C   0  0  0  0  0  0  0  0  0  0  0  0
   -0.4864    0.0270   -0.0746 N   0  0  0  0  0  4  0  0  0  0  0  0
   -0.5885   -0.8250    1.0711 C   0  0  0  0  0  0  0  0  0  0  0  0
   -0.9506    1.3446    0.3267 C   0  0  0  0  0  0  0  0  0  0  0  0
    0.7667    0.1133   -0.7190 C   0  0  0  0  0  0  0  0  0  0  0  0
    1.9269   -0.5389   -0.0223 C   0  0  0  0  0  0  0  0  0  0  0  0
    2.1394    0.0214    1.2484 O   0  0  0  0  0  0  0  0  0  0  0  0
   -0.9226    2.3964    0.0981 C   0  0  0  0  0  0  0  0  0  0  0  0
   -0.4070    1.0246    0.0364 N   0  0  0  0  0  0  0  0  0  0  0  0
   -1.2518   -0.0208    0.0217 C   0  0  0  0  0  0  0  0  0  0  0  0
   -0.8078   -1.3297   -0.0360 C   0  0  0  0  0  0  0  0  0  0  0  0
   -1.9038   -2.1111   -0.0348 N   0  0  0  0  0  2  0  0  0  0  0  0
   -3.0186   -1.3397    0.0216 C   0  0  0  0  0  0  0  0  0  0  0  0
   -2.6003   -0.0552    0.0558 N   0  0  0  0  0  0  0  0  0  0  0  0
    0.5653   -1.5194   -0.0787 C   0  0  0  0  0  0  0  0  0  0  0  0
    0.9467   -2.7210   -0.1310 O   0  0  0  0  0  0  0  0  0  0  0  0
    1.4029   -0.4651   -0.0635 N   0  0  0  0  0  0  0  0  0  0  0  0
    2.8340   -0.7035   -0.1094 C   0  0  0  0  0  0  0  0  0  0  0  0
    0.9173    0.7969   -0.0064 C   0  0  0  0  0  0  0  0  0  0  0  0
    1.7265    1.7497    0.0060 O   0  0  0  0  0  0  0  0  0  0  0  0
   -1.1991   -1.4293   -1.4527 H   0  0  0  0  0  0  0  0  0  0  0  0
   -2.4922   -0.3416   -0.6981 H   0  0  0  0  0  0  0  0  0  0  0  0
   -1.3242    0.2705   -1.9284 H   0  0  0  0  0  0  0  0  0  0  0  0
   -0.1309   -1.8065    1.0051 H   0  0  0  0  0  0  0  0  0  0  0  0
   -0.3124   -0.2500    1.9806 H   0  0  0  0  0  0  0  0  0  0  0  0
   -1.6947   -1.0251    1.1928 H   0  0  0  0  0  0  0  0  0  0  0  0
   -0.0630    1.8359    0.7834 H   0  0  0  0  0  0  0  0  0  0  0  0
   -1.3294    1.9181   -0.5259 H   0  0  0  0  0  0  0  0  0  0  0  0
   -1.7411    1.2369    1.1121 H   0  0  0  0  0  0  0  0  0  0  0  0
    0.7508   -0.3198   -1.7588 H   0  0  0  0  0  0  0  0  0  0  0  0
    1.0731    1.1768   -0.9020 H   0  0  0  0  0  0  0  0  0  0  0  0
    2.8350   -0.3042   -0.6191 H   0  0  0  0  0  0  0  0  0  0  0  0
    1.8587   -1.6383   -0.0065 H   0  0  0  0  0  0  0  0  0  0  0  0
    2.4335    0.9675    1.0534 H   0  0  0  0  0  0  0  0  0  0  0  0
   -1.7017    2.5790   -0.6543 H   0  0  0  0  0  0  0  0  0  0  0  0
   -0.0794    3.0958   -0.0963 H   0  0  0  0  0  0  0  0  0  0  0  0
   -1.2683    2.6175    1.1344 H   0  0  0  0  0  0  0  0  0  0  0  0
   -4.0456   -1.7245    0.0349 H   0  0  0  0  0  0  0  0  0  0  0  0
    3.3672    0.2381    0.1490 H   0  0  0  0  0  0  0  0  0  0  0  0
    3.1782   -1.0943   -1.0827 H   0  0  0  0  0  0  0  0  0  0  0  0
    3.0688   -1.4136    0.7354 H   0  0  0  0  0  0  0  0  0  0  0  0
  1  2  1  0
  2  3  1  0
  2  4  1  0
  2  5  1  0
  5  6  1  0
  6  7  1  0
  8  9  1  0
  9 10  1  0
 10 11  2  0
 11 12  1  0
 12 13  1  0
 13 14  2  0
 11 15  1  0
 15 16  2  0
 15 17  1  0
 17 18  1  0
 17 19  1  0
 19 20  2  0
 19  9  1  0
 14 10  1  0
  1 21  1  0
  1 22  1  0
  1 23  1  0
  3 24  1  0
  3 25  1  0
  3 26  1  0
  4 27  1  0
  4 28  1  0
  4 29  1  0
  5 30  1  0
  5 31  1  0
  6 32  1  0
  6 33  1  0
  7 34  1  0
  8 35  1  0
  8 36  1  0
  8 37  1  0
 13 38  1  0
 18 39  1  0
 18 40  1  0
 18 41  1  0
M  CHG  2   2   1  12  -1
M  END
$$$$
