@<TRIPOS>MOLECULE
*****
 41 41 0 0 0
SMALL
GASTEIGER

@<TRIPOS>ATOM
      1 C          -1.4714   -0.4335   -1.0662 C.3     1  UNL1       -0.0417
      2 N          -0.4864    0.0270   -0.0746 N.4     1  UNL1        0.2385
      3 C          -0.5885   -0.8250    1.0711 C.3     1  UNL1       -0.0417
      4 C          -0.9506    1.3446    0.3267 C.3     1  UNL1       -0.0417
      5 C           0.7667    0.1133   -0.7190 C.3     1  UNL1       -0.0071
      6 C           1.9269   -0.5389   -0.0223 C.3     1  UNL1        0.0841
      7 O           2.1394    0.0214    1.2484 O.3     1  UNL1       -0.3898
      8 C          -0.9226    2.3964    0.0981 C.3     2  UNL2        0.0180
      9 N          -0.4070    1.0246    0.0364 N.ar    2  UNL2       -0.2823
     10 C          -1.2518   -0.0208    0.0217 C.ar    2  UNL2        0.1254
     11 C          -0.8078   -1.3297   -0.0360 C.ar    2  UNL2       -0.0262
     12 N          -1.9038   -2.1111   -0.0348 N.ar    2  UNL2       -0.6435
     13 C          -3.0186   -1.3397    0.0216 C.ar    2  UNL2       -0.0781
     14 N          -2.6003   -0.0552    0.0558 N.ar    2  UNL2       -0.2618
     15 C           0.5653   -1.5194   -0.0787 C.ar    2  UNL2        0.2438
     16 O           0.9467   -2.7210   -0.1310 O.2     2  UNL2       -0.2688
     17 N           1.4029   -0.4651   -0.0635 N.ar    2  UNL2       -0.2649
     18 C           2.8340   -0.7035   -0.1094 C.3     2  UNL2        0.0195
     19 C           0.9173    0.7969   -0.0064 C.ar    2  UNL2        0.3329
     20 O           1.7265    1.7497    0.0060 O.2     2  UNL2       -0.2462
     21 H          -1.1991   -1.4293   -1.4527 H       1  UNL1        0.0778
     22 H          -2.4922   -0.3416   -0.6981 H       1  UNL1        0.0778
     23 H          -1.3242    0.2705   -1.9284 H       1  UNL1        0.0778
     24 H          -0.1309   -1.8065    1.0051 H       1  UNL1        0.0778
     25 H          -0.3124   -0.2500    1.9806 H       1  UNL1        0.0778
     26 H          -1.6947   -1.0251    1.1928 H       1  UNL1        0.0778
     27 H          -0.0630    1.8359    0.7834 H       1  UNL1        0.0778
     28 H          -1.3294    1.9181   -0.5259 H       1  UNL1        0.0778
     29 H          -1.7411    1.2369    1.1121 H       1  UNL1        0.0778
     30 H           0.7508   -0.3198   -1.7588 H       1  UNL1        0.0837
     31 H           1.0731    1.1768   -0.9020 H       1  UNL1        0.0837
     32 H           2.8350   -0.3042   -0.6191 H       1  UNL1        0.0610
     33 H           1.8587   -1.6383   -0.0065 H       1  UNL1        0.0610
     34 H           2.4335    0.9675    1.0534 H       1  UNL1        0.2096
     35 H          -1.7017    2.5790   -0.6543 H       2  UNL2        0.0458
     36 H          -0.0794    3.0958   -0.0963 H       2  UNL2        0.0458
     37 H          -1.2683    2.6175    1.1344 H       2  UNL2        0.0458
     38 H          -4.0456   -1.7245    0.0349 H       2  UNL2        0.0575
     39 H           3.3672    0.2381    0.1490 H       2  UNL2        0.0458
     40 H           3.1782   -1.0943   -1.0827 H       2  UNL2        0.0458
     41 H           3.0688   -1.4136    0.7354 H       2  UNL2        0.0458
@<TRIPOS>UNITY_ATOM_ATTR
2 1
charge 1
12 1
charge -1
@<TRIPOS>BOND
     1     1     2    1
     2     2     3    1
     3     2     4    1
     4     2     5    1
     5     5     6    1
     6     6     7    1
     7     8     9    1
     8     9    10   ar
     9    10    11   ar
    10    11    12   ar
    11    12    13   ar
    12    13    14   ar
    13    11    15   ar
    14    15    16    2
    15    15    17   ar
    16    17    18    1
    17    17    19   ar
    18    19    20    2
    19    19     9   ar
    20    14    10   ar
    21     1    21    1
    22     1    22    1
    23     1    23    1
    24     3    24    1
    25     3    25    1
    26     3    26    1
    27     4    27    1
    28     4    28    1
    29     4    29    1
    30     5    30    1
    31     5    31    1
    32     6    32    1
    33     6    33    1
    34     7    34    1
    35     8    35    1
    36     8    36    1
    37     8    37    1
    38    13    38    1
    39    18    39    1
    40    18    40    1
    41    18    41    1
