@<TRIPOS>MOLECULE
*****
 78 81 0 0 0
SMALL
GASTEIGER

@<TRIPOS>ATOM
      1 C           3.1540    0.2234    0.1255 C.3     1  UNL1       -0.0397
      2 C           1.6837    0.0592    0.0905 C.ar    1  UNL1       -0.0503
      3 C           0.8490    0.8989    0.8032 C.ar    1  UNL1       -0.0570
      4 C          -0.5400    0.7464    0.7722 C.ar    1  UNL1       -0.0342
      5 C          -1.1025   -0.2764    0.0049 C.ar    1  UNL1        0.1169
      6 C          -0.2715   -1.1307   -0.7190 C.ar    1  UNL1       -0.0342
      7 C           1.1089   -0.9442   -0.6608 C.ar    1  UNL1       -0.0570
      8 S          -2.8472   -0.4103    0.0112 S.O2    1  UNL1        0.1096
      9 O          -3.4237    0.5501   -1.2584 O.3     1  UNL1       -0.2498
     10 O          -3.3011   -1.8071   -0.2821 O.2     1  UNL1       -0.1421
     11 O          -3.4022    0.1314    1.2973 O.2     1  UNL1       -0.1421
     12 C          -5.8245    0.1957   -0.7694 C.3     2  UNL2        0.0643
     13 C          -5.2845    0.9641   -1.9274 C.3     2  UNL2       -0.0141
     14 C          -3.8301    0.7691   -1.8180 C.ar    2  UNL2       -0.0415
     15 C          -3.4583    0.0119   -0.7040 C.ar    2  UNL2       -0.0171
     16 C          -4.6938   -0.3551    0.0215 C.3     2  UNL2       -0.0123
     17 C          -2.1032   -0.2534   -0.4741 C.ar    2  UNL2        0.1089
     18 C          -1.2367    0.2781   -1.4025 C.ar    2  UNL2       -0.0351
     19 C          -1.5782    1.0244   -2.5041 C.ar    2  UNL2       -0.0596
     20 C          -2.9168    1.2768   -2.7170 C.ar    2  UNL2       -0.0582
     21 S          -1.7996   -1.1823    0.9699 S.O2    2  UNL2        0.0617
     22 O          -2.6731   -2.4340    0.8889 O.2     2  UNL2       -0.1528
     23 O          -2.3750   -0.4219    2.1582 O.2     2  UNL2       -0.1528
     24 N          -0.2154   -1.5843    1.1350 N.3     2  UNL2       -0.1680
     25 C           0.5033   -2.3768    0.2512 C.3     2  UNL2        0.0450
     26 C          -0.2525   -2.7663   -0.9785 C.3     2  UNL2       -0.0464
     27 C           1.7961   -1.6979   -0.1708 C.3     2  UNL2        0.0292
     28 N           2.0961   -0.5231    0.6401 N.pl3   2  UNL2       -0.3268
     29 C           1.3942   -0.0050    1.8254 C.3     2  UNL2        0.0292
     30 C           0.5194   -1.1532    2.2903 C.3     2  UNL2        0.0450
     31 C          -0.2721   -0.8602    3.5050 C.3     2  UNL2       -0.0464
     32 C           3.2366    0.2007    0.1937 C.ar    2  UNL2        0.0300
     33 C           3.9755   -0.2062   -0.8951 C.ar    2  UNL2       -0.0372
     34 C           5.1037    0.4639   -1.3789 C.ar    2  UNL2       -0.0179
     35 C           5.4987    1.6225   -0.7050 C.ar    2  UNL2        0.1301
     36 O           6.6248    2.3054   -1.1751 O.3     2  UNL2       -0.4057
     37 C           7.9217    2.0018   -0.6966 C.3     2  UNL2        0.5752
     38 F           8.2284    0.6713   -0.9672 F       2  UNL2       -0.1328
     39 F           8.8199    2.7850   -1.3823 F       2  UNL2       -0.1328
     40 F           8.0469    2.2119    0.6440 F       2  UNL2       -0.1328
     41 C           4.7875    2.0756    0.3990 C.ar    2  UNL2       -0.0179
     42 C           3.6955    1.3468    0.7942 C.ar    2  UNL2       -0.0372
     43 C          -6.6695    1.1206    0.0570 C.2     2  UNL2        0.3084
     44 O          -6.0076    2.2083    0.5596 O.3     2  UNL2       -0.4804
     45 O          -7.9043    0.9668    0.3094 O.2     2  UNL2       -0.2507
     46 H           3.5468    0.8362   -0.7329 H       1  UNL1        0.0278
     47 H           3.3886    0.8256    1.0295 H       1  UNL1        0.0278
     48 H           3.6574   -0.7821    0.1743 H       1  UNL1        0.0278
     49 H           1.2419    1.7115    1.4163 H       1  UNL1        0.0621
     50 H          -1.1451    1.4497    1.3632 H       1  UNL1        0.0637
     51 H          -0.7384   -1.9164   -1.3062 H       1  UNL1        0.0637
     52 H           1.7366   -1.6287   -1.2384 H       1  UNL1        0.0621
     53 H          -3.5953    1.4635   -0.8904 H       1  UNL1        0.2449
     54 H          -6.4942   -0.6109   -1.1778 H       2  UNL2        0.0420
     55 H          -5.4955    2.0481   -1.8556 H       2  UNL2        0.0321
     56 H          -5.5965    0.5450   -2.9161 H       2  UNL2        0.0321
     57 H          -4.7880   -1.4589    0.1202 H       2  UNL2        0.0322
     58 H          -4.7106    0.1103    1.0397 H       2  UNL2        0.0322
     59 H          -0.2024    0.0716   -1.1964 H       2  UNL2        0.0637
     60 H          -0.7824    1.3652   -3.1314 H       2  UNL2        0.0618
     61 H          -3.1432    1.8614   -3.5856 H       2  UNL2        0.0620
     62 H           0.8554   -3.3618    0.7290 H       2  UNL2        0.0493
     63 H          -1.3210   -2.5404   -0.9087 H       2  UNL2        0.0246
     64 H          -0.1123   -3.8494   -1.2317 H       2  UNL2        0.0246
     65 H           0.1464   -2.2144   -1.8596 H       2  UNL2        0.0246
     66 H           2.6724   -2.3683   -0.1104 H       2  UNL2        0.0479
     67 H           1.7065   -1.3755   -1.2262 H       2  UNL2        0.0479
     68 H           0.7363    0.8081    1.4740 H       2  UNL2        0.0479
     69 H           2.1182    0.3003    2.6063 H       2  UNL2        0.0479
     70 H           1.2589   -1.9636    2.5662 H       2  UNL2        0.0493
     71 H          -0.6521    0.1767    3.6021 H       2  UNL2        0.0246
     72 H          -1.0484   -1.6415    3.6328 H       2  UNL2        0.0246
     73 H           0.3973   -1.0044    4.4055 H       2  UNL2        0.0246
     74 H           3.7111   -1.0953   -1.4492 H       2  UNL2        0.0637
     75 H           5.6425    0.0830   -2.2495 H       2  UNL2        0.0655
     76 H           5.1297    2.9724    0.8855 H       2  UNL2        0.0655
     77 H           3.1839    1.7468    1.6547 H       2  UNL2        0.0637
     78 H          -6.3653    2.7145    1.3723 H       2  UNL2        0.2951
@<TRIPOS>BOND
     1     1     2    1
     2     2     3   ar
     3     3     4   ar
     4     4     5   ar
     5     5     6   ar
     6     6     7   ar
     7     5     8    1
     8     8     9    1
     9     8    10    2
    10     8    11    2
    11    12    13    1
    12    13    14    1
    13    14    15   ar
    14    15    16    1
    15    15    17   ar
    16    17    18   ar
    17    18    19   ar
    18    19    20   ar
    19    17    21    1
    20    21    22    2
    21    21    23    2
    22    21    24    1
    23    24    25    1
    24    25    26    1
    25    25    27    1
    26    27    28    1
    27    28    29    1
    28    29    30    1
    29    30    31    1
    30    28    32    1
    31    32    33   ar
    32    33    34   ar
    33    34    35   ar
    34    35    36    1
    35    36    37    1
    36    37    38    1
    37    37    39    1
    38    37    40    1
    39    35    41   ar
    40    41    42   ar
    41    12    43    1
    42    43    44    1
    43    43    45    2
    44     7     2   ar
    45    16    12    1
    46    30    24    1
    47    42    32   ar
    48    20    14   ar
    49     1    46    1
    50     1    47    1
    51     1    48    1
    52     3    49    1
    53     4    50    1
    54     6    51    1
    55     7    52    1
    56     9    53    1
    57    12    54    1
    58    13    55    1
    59    13    56    1
    60    16    57    1
    61    16    58    1
    62    18    59    1
    63    19    60    1
    64    20    61    1
    65    25    62    1
    66    26    63    1
    67    26    64    1
    68    26    65    1
    69    27    66    1
    70    27    67    1
    71    29    68    1
    72    29    69    1
    73    30    70    1
    74    31    71    1
    75    31    72    1
    76    31    73    1
    77    33    74    1
    78    34    75    1
    79    41    76    1
    80    42    77    1
    81    44    78    1
