
     RDKit          3D

 78 81  0  0  0  0  0  0  0  0999 V2000
    3.1540    0.2234    0.1255 C   0  0  0  0  0  0  0  0  0  0  0  0
    1.6837    0.0592    0.0905 C   0  0  0  0  0  0  0  0  0  0  0  0
    0.8490    0.8989    0.8032 C   0  0  0  0  0  0  0  0  0  0  0  0
   -0.5400    0.7464    0.7722 C   0  0  0  0  0  0  0  0  0  0  0  0
   -1.1025   -0.2764    0.0049 C   0  0  0  0  0  0  0  0  0  0  0  0
   -0.2715   -1.1307   -0.7190 C   0  0  0  0  0  0  0  0  0  0  0  0
    1.1089   -0.9442   -0.6608 C   0  0  0  0  0  0  0  0  0  0  0  0
   -2.8472   -0.4103    0.0112 S   0  0  0  0  0  0  0  0  0  0  0  0
   -3.4237    0.5501   -1.2584 O   0  0  0  0  0  0  0  0  0  0  0  0
   -3.3011   -1.8071   -0.2821 O   0  0  0  0  0  0  0  0  0  0  0  0
   -3.4022    0.1314    1.2973 O   0  0  0  0  0  0  0  0  0  0  0  0
   -5.8245    0.1957   -0.7694 C   0  0  0  0  0  0  0  0  0  0  0  0
   -5.2845    0.9641   -1.9274 C   0  0  0  0  0  0  0  0  0  0  0  0
   -3.8301    0.7691   -1.8180 C   0  0  0  0  0  0  0  0  0  0  0  0
   -3.4583    0.0119   -0.7040 C   0  0  0  0  0  0  0  0  0  0  0  0
   -4.6938   -0.3551    0.0215 C   0  0  0  0  0  0  0  0  0  0  0  0
   -2.1032   -0.2534   -0.4741 C   0  0  0  0  0  0  0  0  0  0  0  0
   -1.2367    0.2781   -1.4025 C   0  0  0  0  0  0  0  0  0  0  0  0
   -1.5782    1.0244   -2.5041 C   0  0  0  0  0  0  0  0  0  0  0  0
   -2.9168    1.2768   -2.7170 C   0  0  0  0  0  0  0  0  0  0  0  0
   -1.7996   -1.1823    0.9699 S   0  0  0  0  0  0  0  0  0  0  0  0
   -2.6731   -2.4340    0.8889 O   0  0  0  0  0  0  0  0  0  0  0  0
   -2.3750   -0.4219    2.1582 O   0  0  0  0  0  0  0  0  0  0  0  0
   -0.2154   -1.5843    1.1350 N   0  0  0  0  0  0  0  0  0  0  0  0
    0.5033   -2.3768    0.2512 C   0  0  1  0  0  0  0  0  0  0  0  0
   -0.2525   -2.7663   -0.9785 C   0  0  0  0  0  0  0  0  0  0  0  0
    1.7961   -1.6979   -0.1708 C   0  0  0  0  0  0  0  0  0  0  0  0
    2.0961   -0.5231    0.6401 N   0  0  0  0  0  0  0  0  0  0  0  0
    1.3942   -0.0050    1.8254 C   0  0  0  0  0  0  0  0  0  0  0  0
    0.5194   -1.1532    2.2903 C   0  0  1  0  0  0  0  0  0  0  0  0
   -0.2721   -0.8602    3.5050 C   0  0  0  0  0  0  0  0  0  0  0  0
    3.2366    0.2007    0.1937 C   0  0  0  0  0  0  0  0  0  0  0  0
    3.9755   -0.2062   -0.8951 C   0  0  0  0  0  0  0  0  0  0  0  0
    5.1037    0.4639   -1.3789 C   0  0  0  0  0  0  0  0  0  0  0  0
    5.4987    1.6225   -0.7050 C   0  0  0  0  0  0  0  0  0  0  0  0
    6.6248    2.3054   -1.1751 O   0  0  0  0  0  0  0  0  0  0  0  0
    7.9217    2.0018   -0.6966 C   0  0  0  0  0  0  0  0  0  0  0  0
    8.2284    0.6713   -0.9672 F   0  0  0  0  0  0  0  0  0  0  0  0
    8.8199    2.7850   -1.3823 F   0  0  0  0  0  0  0  0  0  0  0  0
    8.0469    2.2119    0.6440 F   0  0  0  0  0  0  0  0  0  0  0  0
    4.7875    2.0756    0.3990 C   0  0  0  0  0  0  0  0  0  0  0  0
    3.6955    1.3468    0.7942 C   0  0  0  0  0  0  0  0  0  0  0  0
   -6.6695    1.1206    0.0570 C   0  0  0  0  0  0  0  0  0  0  0  0
   -6.0076    2.2083    0.5596 O   0  0  0  0  0  0  0  0  0  0  0  0
   -7.9043    0.9668    0.3094 O   0  0  0  0  0  0  0  0  0  0  0  0
    3.5468    0.8362   -0.7329 H   0  0  0  0  0  0  0  0  0  0  0  0
    3.3886    0.8256    1.0295 H   0  0  0  0  0  0  0  0  0  0  0  0
    3.6574   -0.7821    0.1743 H   0  0  0  0  0  0  0  0  0  0  0  0
    1.2419    1.7115    1.4163 H   0  0  0  0  0  0  0  0  0  0  0  0
   -1.1451    1.4497    1.3632 H   0  0  0  0  0  0  0  0  0  0  0  0
   -0.7384   -1.9164   -1.3062 H   0  0  0  0  0  0  0  0  0  0  0  0
    1.7366   -1.6287   -1.2384 H   0  0  0  0  0  0  0  0  0  0  0  0
   -3.5953    1.4635   -0.8904 H   0  0  0  0  0  0  0  0  0  0  0  0
   -6.4942   -0.6109   -1.1778 H   0  0  0  0  0  0  0  0  0  0  0  0
   -5.4955    2.0481   -1.8556 H   0  0  0  0  0  0  0  0  0  0  0  0
   -5.5965    0.5450   -2.9161 H   0  0  0  0  0  0  0  0  0  0  0  0
   -4.7880   -1.4589    0.1202 H   0  0  0  0  0  0  0  0  0  0  0  0
   -4.7106    0.1103    1.0397 H   0  0  0  0  0  0  0  0  0  0  0  0
   -0.2024    0.0716   -1.1964 H   0  0  0  0  0  0  0  0  0  0  0  0
   -0.7824    1.3652   -3.1314 H   0  0  0  0  0  0  0  0  0  0  0  0
   -3.1432    1.8614   -3.5856 H   0  0  0  0  0  0  0  0  0  0  0  0
    0.8554   -3.3618    0.7290 H   0  0  0  0  0  0  0  0  0  0  0  0
   -1.3210   -2.5404   -0.9087 H   0  0  0  0  0  0  0  0  0  0  0  0
   -0.1123   -3.8494   -1.2317 H   0  0  0  0  0  0  0  0  0  0  0  0
    0.1464   -2.2144   -1.8596 H   0  0  0  0  0  0  0  0  0  0  0  0
    2.6724   -2.3683   -0.1104 H   0  0  0  0  0  0  0  0  0  0  0  0
    1.7065   -1.3755   -1.2262 H   0  0  0  0  0  0  0  0  0  0  0  0
    0.7363    0.8081    1.4740 H   0  0  0  0  0  0  0  0  0  0  0  0
    2.1182    0.3003    2.6063 H   0  0  0  0  0  0  0  0  0  0  0  0
    1.2589   -1.9636    2.5662 H   0  0  0  0  0  0  0  0  0  0  0  0
   -0.6521    0.1767    3.6021 H   0  0  0  0  0  0  0  0  0  0  0  0
   -1.0484   -1.6415    3.6328 H   0  0  0  0  0  0  0  0  0  0  0  0
    0.3973   -1.0044    4.4055 H   0  0  0  0  0  0  0  0  0  0  0  0
    3.7111   -1.0953   -1.4492 H   0  0  0  0  0  0  0  0  0  0  0  0
    5.6425    0.0830   -2.2495 H   0  0  0  0  0  0  0  0  0  0  0  0
    5.1297    2.9724    0.8855 H   0  0  0  0  0  0  0  0  0  0  0  0
    3.1839    1.7468    1.6547 H   0  0  0  0  0  0  0  0  0  0  0  0
   -6.3653    2.7145    1.3723 H   0  0  0  0  0  0  0  0  0  0  0  0
  1  2  1  0
  2  3  2  0
  3  4  1  0
  4  5  2  0
  5  6  1  0
  6  7  2  0
  5  8  1  0
  8  9  1  0
  8 10  2  0
  8 11  2  0
 12 13  1  0
 13 14  1  0
 14 15  2  0
 15 16  1  0
 15 17  1  0
 17 18  2  0
 18 19  1  0
 19 20  2  0
 17 21  1  0
 21 22  2  0
 21 23  2  0
 21 24  1  0
 24 25  1  0
 25 26  1  0
 25 27  1  0
 27 28  1  0
 28 29  1  0
 29 30  1  0
 30 31  1  0
 28 32  1  0
 32 33  2  0
 33 34  1  0
 34 35  2  0
 35 36  1  0
 36 37  1  0
 37 38  1  0
 37 39  1  0
 37 40  1  0
 35 41  1  0
 41 42  2  0
 12 43  1  0
 43 44  1  0
 43 45  2  0
  7  2  1  0
 16 12  1  0
 30 24  1  0
 42 32  1  0
 20 14  1  0
  1 46  1  0
  1 47  1  0
  1 48  1  0
  3 49  1  0
  4 50  1  0
  6 51  1  0
  7 52  1  0
  9 53  1  0
 12 54  1  0
 13 55  1  0
 13 56  1  0
 16 57  1  0
 16 58  1  0
 18 59  1  0
 19 60  1  0
 20 61  1  0
 25 62  1  1
 26 63  1  0
 26 64  1  0
 26 65  1  0
 27 66  1  0
 27 67  1  0
 29 68  1  0
 29 69  1  0
 30 70  1  1
 31 71  1  0
 31 72  1  0
 31 73  1  0
 33 74  1  0
 34 75  1  0
 41 76  1  0
 42 77  1  0
 44 78  1  0
M  END
$$$$
