
     RDKit          3D

 32 34  0  0  0  0  0  0  0  0999 V2000
   -1.2448    3.0818   -0.5280 O   0  0  0  0  0  0  0  0  0  0  0  0
   -1.0141    1.8987   -0.2521 C   0  0  0  0  0  0  0  0  0  0  0  0
    0.3865    1.4072   -0.3301 C   0  0  0  0  0  0  0  0  0  0  0  0
    0.4699   -0.0835   -0.3838 C   0  0  1  0  0  0  0  0  0  0  0  0
    1.8550   -0.5067   -0.1335 C   0  0  0  0  0  0  0  0  0  0  0  0
    2.2187   -1.8139    0.1100 C   0  0  0  0  0  0  0  0  0  0  0  0
    3.5335   -2.1349    0.3334 C   0  0  0  0  0  0  0  0  0  0  0  0
    4.5348   -1.1982    0.3274 C   0  0  0  0  0  0  0  0  0  0  0  0
    5.8736   -1.5350    0.5563 O   0  0  0  0  0  0  0  0  0  0  0  0
    4.1977    0.1091    0.0874 C   0  0  0  0  0  0  0  0  0  0  0  0
    2.8570    0.4354   -0.1402 C   0  0  0  0  0  0  0  0  0  0  0  0
   -0.4449   -0.6973    0.5276 O   0  0  0  0  0  0  0  0  0  0  0  0
   -1.7614   -0.2706    0.5206 C   0  0  0  0  0  0  0  0  0  0  0  0
   -2.8070   -1.1134    0.8956 C   0  0  0  0  0  0  0  0  0  0  0  0
   -4.1232   -0.7176    0.8984 C   0  0  0  0  0  0  0  0  0  0  0  0
   -5.1387   -1.5589    1.2699 O   0  0  0  0  0  0  0  0  0  0  0  0
   -4.4166    0.5856    0.5077 C   0  0  0  0  0  0  0  0  0  0  0  0
   -3.4176    1.4573    0.1280 C   0  0  0  0  0  0  0  0  0  0  0  0
   -3.7375    2.7514   -0.2571 O   0  0  0  0  0  0  0  0  0  0  0  0
   -2.1167    1.0078    0.1440 C   0  0  0  0  0  0  0  0  0  0  0  0
    0.8472    1.8306   -1.2231 H   0  0  0  0  0  0  0  0  0  0  0  0
    0.8841    1.7415    0.6107 H   0  0  0  0  0  0  0  0  0  0  0  0
    0.1973   -0.4650   -1.4082 H   0  0  0  0  0  0  0  0  0  0  0  0
    1.4574   -2.5807    0.1227 H   0  0  0  0  0  0  0  0  0  0  0  0
    3.8240   -3.1637    0.5256 H   0  0  0  0  0  0  0  0  0  0  0  0
    6.5280   -0.8280    0.8175 H   0  0  0  0  0  0  0  0  0  0  0  0
    4.9679    0.8715    0.0766 H   0  0  0  0  0  0  0  0  0  0  0  0
    2.6729    1.4808   -0.3215 H   0  0  0  0  0  0  0  0  0  0  0  0
   -2.5402   -2.1290    1.1962 H   0  0  0  0  0  0  0  0  0  0  0  0
   -5.5147   -2.3123    0.6980 H   0  0  0  0  0  0  0  0  0  0  0  0
   -5.4619    0.9018    0.5094 H   0  0  0  0  0  0  0  0  0  0  0  0
   -3.5661    3.5482    0.3573 H   0  0  0  0  0  0  0  0  0  0  0  0
  1  2  2  0
  2  3  1  0
  3  4  1  0
  4  5  1  0
  5  6  2  0
  6  7  1  0
  7  8  2  0
  8  9  1  0
  8 10  1  0
 10 11  2  0
  4 12  1  0
 12 13  1  0
 13 14  2  0
 14 15  1  0
 15 16  1  0
 15 17  2  0
 17 18  1  0
 18 19  1  0
 18 20  2  0
 20  2  1  0
 11  5  1  0
 20 13  1  0
  3 21  1  0
  3 22  1  0
  4 23  1  6
  6 24  1  0
  7 25  1  0
  9 26  1  0
 10 27  1  0
 11 28  1  0
 14 29  1  0
 16 30  1  0
 17 31  1  0
 19 32  1  0
M  END
$$$$
