@<TRIPOS>MOLECULE
*****
 32 34 0 0 0
SMALL
GASTEIGER

@<TRIPOS>ATOM
      1 O          -1.2448    3.0818   -0.5280 O.2     1  UNL1       -0.2917
      2 C          -1.0141    1.8987   -0.2521 C.2     1  UNL1        0.1740
      3 C           0.3865    1.4072   -0.3301 C.3     1  UNL1        0.0520
      4 C           0.4699   -0.0835   -0.3838 C.3     1  UNL1        0.1322
      5 C           1.8550   -0.5067   -0.1335 C.ar    1  UNL1       -0.0067
      6 C           2.2187   -1.8139    0.1100 C.ar    1  UNL1       -0.0516
      7 C           3.5335   -2.1349    0.3334 C.ar    1  UNL1       -0.0198
      8 C           4.5348   -1.1982    0.3274 C.ar    1  UNL1        0.1169
      9 O           5.8736   -1.5350    0.5563 O.3     1  UNL1       -0.5068
     10 C           4.1977    0.1091    0.0874 C.ar    1  UNL1       -0.0198
     11 C           2.8570    0.4354   -0.1402 C.ar    1  UNL1       -0.0516
     12 O          -0.4449   -0.6973    0.5276 O.3     1  UNL1       -0.4828
     13 C          -1.7614   -0.2706    0.5206 C.ar    1  UNL1        0.1389
     14 C          -2.8070   -1.1134    0.8956 C.ar    1  UNL1        0.0225
     15 C          -4.1232   -0.7176    0.8984 C.ar    1  UNL1        0.1238
     16 O          -5.1387   -1.5589    1.2699 O.3     1  UNL1       -0.5065
     17 C          -4.4166    0.5856    0.5077 C.ar    1  UNL1        0.0222
     18 C          -3.4176    1.4573    0.1280 C.ar    1  UNL1        0.1343
     19 O          -3.7375    2.7514   -0.2571 O.3     1  UNL1       -0.5058
     20 C          -2.1167    1.0078    0.1440 C.ar    1  UNL1        0.1007
     21 H           0.8472    1.8306   -1.2231 H       1  UNL1        0.0385
     22 H           0.8841    1.7415    0.6107 H       1  UNL1        0.0385
     23 H           0.1973   -0.4650   -1.4082 H       1  UNL1        0.0789
     24 H           1.4574   -2.5807    0.1227 H       1  UNL1        0.0623
     25 H           3.8240   -3.1637    0.5256 H       1  UNL1        0.0654
     26 H           6.5280   -0.8280    0.8175 H       1  UNL1        0.2921
     27 H           4.9679    0.8715    0.0766 H       1  UNL1        0.0654
     28 H           2.6729    1.4808   -0.3215 H       1  UNL1        0.0623
     29 H          -2.5402   -2.1290    1.1962 H       1  UNL1        0.0691
     30 H          -5.5147   -2.3123    0.6980 H       1  UNL1        0.2921
     31 H          -5.4619    0.9018    0.5094 H       1  UNL1        0.0691
     32 H          -3.5661    3.5482    0.3573 H       1  UNL1        0.2922
@<TRIPOS>BOND
     1     1     2    2
     2     2     3    1
     3     3     4    1
     4     4     5    1
     5     5     6   ar
     6     6     7   ar
     7     7     8   ar
     8     8     9    1
     9     8    10   ar
    10    10    11   ar
    11     4    12    1
    12    12    13    1
    13    13    14   ar
    14    14    15   ar
    15    15    16    1
    16    15    17   ar
    17    17    18   ar
    18    18    19    1
    19    18    20   ar
    20    20     2    1
    21    11     5   ar
    22    20    13   ar
    23     3    21    1
    24     3    22    1
    25     4    23    1
    26     6    24    1
    27     7    25    1
    28     9    26    1
    29    10    27    1
    30    11    28    1
    31    14    29    1
    32    16    30    1
    33    17    31    1
    34    19    32    1
