@<TRIPOS>MOLECULE
*****
 42 45 0 0 0
SMALL
GASTEIGER

@<TRIPOS>ATOM
      1 N           3.6686    3.7384   -0.5973 N.am    1  UNL1       -0.3253
      2 C           2.2930    4.0070   -0.4605 C.2     1  UNL1        0.2441
      3 O           1.8964    5.1876   -0.4458 O.2     1  UNL1       -0.2703
      4 C           1.3541    2.8816   -0.3379 C.ar    1  UNL1        0.0689
      5 C          -0.0142    3.0720   -0.2002 C.ar    1  UNL1        0.0429
      6 N          -0.7408    1.9562   -0.0998 N.ar    1  UNL1       -0.2391
      7 C          -0.2990    0.7044   -0.1176 C.ar    1  UNL1        0.1273
      8 N          -1.2219   -0.3632    0.0021 N.pl3   1  UNL1       -0.3245
      9 C          -2.6281   -0.1592    0.1591 C.3     1  UNL1        0.0345
     10 C          -3.3757   -1.5043    0.1440 C.3     1  UNL1       -0.0322
     11 C          -4.8325   -1.2127    0.3568 C.3     1  UNL1       -0.0387
     12 C          -5.0065   -0.4838    1.6741 C.3     1  UNL1       -0.0040
     13 N          -4.3283    0.7741    1.5678 N.3     1  UNL1       -0.3142
     14 C          -2.8967    0.5276    1.4863 C.3     1  UNL1        0.0143
     15 C           1.0918    0.4597   -0.2564 C.ar    1  UNL1        0.0302
     16 C           1.6976   -0.7363   -0.2924 C.ar    1  UNL1       -0.0359
     17 C           3.0631   -0.7411   -0.4340 C.ar    1  UNL1        0.0211
     18 C           4.0161   -1.9004   -0.5068 C.ar    1  UNL1       -0.0043
     19 C           3.6412   -3.1856   -0.4391 C.ar    1  UNL1       -0.0465
     20 C           4.5256   -4.1746   -0.5087 C.ar    1  UNL1       -0.0237
     21 S           6.1133   -3.2675   -0.6937 S.2     1  UNL1       -0.1044
     22 C           5.3546   -1.6306   -0.6517 C.ar    1  UNL1       -0.0161
     23 S           3.5096    0.9810   -0.5189 S.2     1  UNL1       -0.0873
     24 C           1.8327    1.5903   -0.3586 C.ar    1  UNL1        0.0367
     25 H           4.2468    3.4616    0.2182 H       1  UNL1        0.1453
     26 H           4.1305    3.8134   -1.5230 H       1  UNL1        0.1453
     27 H          -0.3838    4.0677   -0.1842 H       1  UNL1        0.0838
     28 H          -0.8774   -1.3689   -0.0229 H       1  UNL1        0.1478
     29 H          -3.0456    0.4331   -0.6625 H       1  UNL1        0.0510
     30 H          -3.1976   -1.9609   -0.8497 H       1  UNL1        0.0284
     31 H          -2.9562   -2.1837    0.9121 H       1  UNL1        0.0284
     32 H          -5.1744   -0.5929   -0.5020 H       1  UNL1        0.0278
     33 H          -5.4551   -2.1122    0.3853 H       1  UNL1        0.0278
     34 H          -4.5114   -1.1036    2.4540 H       1  UNL1        0.0424
     35 H          -6.0790   -0.3932    1.8953 H       1  UNL1        0.0424
     36 H          -4.6046    1.2154    0.6548 H       1  UNL1        0.1220
     37 H          -2.5489   -0.1766    2.2734 H       1  UNL1        0.0442
     38 H          -2.3806    1.4887    1.4874 H       1  UNL1        0.0442
     39 H           1.1997   -1.7343   -0.2184 H       1  UNL1        0.0636
     40 H           2.5404   -3.4487   -0.3190 H       1  UNL1        0.0629
     41 H           4.4849   -5.2336   -0.4807 H       1  UNL1        0.0693
     42 H           5.8982   -0.6919   -0.7292 H       1  UNL1        0.0699
@<TRIPOS>BOND
     1     1     2   am
     2     2     3    2
     3     2     4    1
     4     4     5   ar
     5     5     6   ar
     6     6     7   ar
     7     7     8    1
     8     8     9    1
     9     9    10    1
    10    10    11    1
    11    11    12    1
    12    12    13    1
    13    13    14    1
    14     7    15   ar
    15    15    16   ar
    16    16    17   ar
    17    17    18    1
    18    18    19   ar
    19    19    20   ar
    20    20    21   ar
    21    21    22   ar
    22    17    23   ar
    23    23    24   ar
    24    24     4   ar
    25    14     9    1
    26    24    15   ar
    27    22    18   ar
    28     1    25    1
    29     1    26    1
    30     5    27    1
    31     8    28    1
    32     9    29    1
    33    10    30    1
    34    10    31    1
    35    11    32    1
    36    11    33    1
    37    12    34    1
    38    12    35    1
    39    13    36    1
    40    14    37    1
    41    14    38    1
    42    16    39    1
    43    19    40    1
    44    20    41    1
    45    22    42    1
