@<TRIPOS>MOLECULE
*****
 59 62 0 0 0
SMALL
GASTEIGER

@<TRIPOS>ATOM
      1 N          -3.8483   -1.0549    0.2124 N.pl3   1  UNL1       -0.2516
      2 C          -4.8536   -0.0720    0.1570 C.cat   1  UNL1        0.3648
      3 N          -5.9899   -0.4787   -0.3821 N.2     1  UNL1       -0.1173
      4 C          -7.1538    0.3743   -0.5357 C.3     1  UNL1        0.1044
      5 C          -7.6851    0.7202    0.8129 C.3     1  UNL1       -0.0160
      6 C          -6.7755    1.4267    1.7396 C.3     1  UNL1       -0.0209
      7 C          -5.6034    2.1267    1.1488 C.3     1  UNL1        0.0609
      8 N          -4.5537    1.2050    0.6762 N.pl3   1  UNL1       -0.2211
      9 C          -3.2438    1.7302    0.7970 C.3     1  UNL1        0.0858
     10 C          -2.1178    0.9604    0.3146 C.ar    1  UNL1       -0.0158
     11 C          -1.4330    0.1036    1.1420 C.ar    1  UNL1       -0.0550
     12 C          -0.3340   -0.6241    0.6667 C.ar    1  UNL1       -0.0493
     13 C           0.0934   -0.5057   -0.6356 C.ar    1  UNL1        0.0370
     14 C           1.2339   -1.2717   -1.0984 C.2     1  UNL1        0.2483
     15 O           1.5648   -1.1048   -2.3235 O.2     1  UNL1       -0.2699
     16 N           1.9952   -2.1709   -0.3201 N.am    1  UNL1       -0.2808
     17 C           3.1016   -2.8830   -0.8563 C.ar    1  UNL1        0.0459
     18 C           2.8816   -4.1118   -1.4269 C.ar    1  UNL1       -0.0384
     19 C           3.9688   -4.7845   -1.9409 C.ar    1  UNL1       -0.0416
     20 C           5.2386   -4.2233   -1.8755 C.ar    1  UNL1        0.0418
     21 CL          6.6461   -5.0406   -2.5143 Cl      1  UNL1       -0.0835
     22 C           5.4288   -2.9688   -1.2871 C.ar    1  UNL1       -0.0295
     23 C           4.3405   -2.2961   -0.7730 C.ar    1  UNL1        0.0596
     24 C           4.4896   -0.9946   -0.1540 C.2     1  UNL1        0.2511
     25 O           3.4597   -0.4288    0.2995 O.2     1  UNL1       -0.2697
     26 N           5.6965   -0.2871   -0.0072 N.am    1  UNL1       -0.2663
     27 C           5.8074    0.9918    0.6070 C.ar    1  UNL1        0.1252
     28 C           5.6910    2.1622   -0.1079 C.ar    1  UNL1       -0.0201
     29 C           5.7958    3.4091    0.4727 C.ar    1  UNL1       -0.0387
     30 C           6.0267    3.4991    1.8250 C.ar    1  UNL1        0.0592
     31 CL          6.1721    5.0620    2.6356 Cl      1  UNL1       -0.0820
     32 C           6.1427    2.3244    2.5377 C.ar    1  UNL1        0.0480
     33 N           6.0338    1.1133    1.9317 N.ar    1  UNL1       -0.2387
     34 C          -0.6127    0.3625   -1.4460 C.ar    1  UNL1       -0.0493
     35 C          -1.6928    1.0800   -0.9855 C.ar    1  UNL1       -0.0550
     36 H          -3.2688   -1.2575   -0.6110 H       1  UNL1        0.2412
     37 H          -3.7012   -1.5859    1.0884 H       1  UNL1        0.2412
     38 H          -6.8365    1.3127   -1.0777 H       1  UNL1        0.0693
     39 H          -7.9083   -0.0842   -1.1828 H       1  UNL1        0.0693
     40 H          -8.1311   -0.1679    1.3306 H       1  UNL1        0.0298
     41 H          -8.5898    1.3796    0.6301 H       1  UNL1        0.0298
     42 H          -7.3639    2.2107    2.3030 H       1  UNL1        0.0295
     43 H          -6.4484    0.7027    2.5237 H       1  UNL1        0.0295
     44 H          -5.1883    2.8137    1.9123 H       1  UNL1        0.0634
     45 H          -5.9539    2.7612    0.2925 H       1  UNL1        0.0634
     46 H          -3.2660    2.7699    0.3601 H       1  UNL1        0.0685
     47 H          -3.0884    1.9533    1.9055 H       1  UNL1        0.0685
     48 H          -1.7672    0.0088    2.1663 H       1  UNL1        0.0621
     49 H           0.1228   -1.2628    1.4054 H       1  UNL1        0.0625
     50 H           1.7050   -2.2946    0.6907 H       1  UNL1        0.1552
     51 H           1.8865   -4.5276   -1.4663 H       1  UNL1        0.0637
     52 H           3.8813   -5.7549   -2.4059 H       1  UNL1        0.0633
     53 H           6.4053   -2.5423   -1.2393 H       1  UNL1        0.0640
     54 H           6.5667   -0.7265   -0.3712 H       1  UNL1        0.1566
     55 H           5.5073    2.0465   -1.1818 H       1  UNL1        0.0652
     56 H           5.6977    4.2806   -0.1262 H       1  UNL1        0.0634
     57 H           6.3263    2.4111    3.6123 H       1  UNL1        0.0845
     58 H          -0.2810    0.4598   -2.4719 H       1  UNL1        0.0625
     59 H          -2.2172    1.7435   -1.6395 H       1  UNL1        0.0621
@<TRIPOS>BOND
     1     1     2    1
     2     2     3    2
     3     3     4    1
     4     4     5    1
     5     5     6    1
     6     6     7    1
     7     7     8    1
     8     8     9    1
     9     9    10    1
    10    10    11   ar
    11    11    12   ar
    12    12    13   ar
    13    13    14    1
    14    14    15    2
    15    14    16   am
    16    16    17    1
    17    17    18   ar
    18    18    19   ar
    19    19    20   ar
    20    20    21    1
    21    20    22   ar
    22    22    23   ar
    23    23    24    1
    24    24    25    2
    25    24    26   am
    26    26    27    1
    27    27    28   ar
    28    28    29   ar
    29    29    30   ar
    30    30    31    1
    31    30    32   ar
    32    32    33   ar
    33    13    34   ar
    34    34    35   ar
    35     8     2    1
    36    35    10   ar
    37    23    17   ar
    38    33    27   ar
    39     1    36    1
    40     1    37    1
    41     4    38    1
    42     4    39    1
    43     5    40    1
    44     5    41    1
    45     6    42    1
    46     6    43    1
    47     7    44    1
    48     7    45    1
    49     9    46    1
    50     9    47    1
    51    11    48    1
    52    12    49    1
    53    16    50    1
    54    18    51    1
    55    19    52    1
    56    22    53    1
    57    26    54    1
    58    28    55    1
    59    29    56    1
    60    32    57    1
    61    34    58    1
    62    35    59    1
