
     RDKit          3D

 59 62  0  0  0  0  0  0  0  0999 V2000
   -3.8483   -1.0549    0.2124 N   0  0  0  0  0  0  0  0  0  0  0  0
   -4.8536   -0.0720    0.1570 C   0  0  0  0  0  0  0  0  0  0  0  0
   -5.9899   -0.4787   -0.3821 N   0  0  0  0  0  0  0  0  0  0  0  0
   -7.1538    0.3743   -0.5357 C   0  0  0  0  0  0  0  0  0  0  0  0
   -7.6851    0.7202    0.8129 C   0  0  0  0  0  0  0  0  0  0  0  0
   -6.7755    1.4267    1.7396 C   0  0  0  0  0  0  0  0  0  0  0  0
   -5.6034    2.1267    1.1488 C   0  0  0  0  0  0  0  0  0  0  0  0
   -4.5537    1.2050    0.6762 N   0  0  0  0  0  0  0  0  0  0  0  0
   -3.2438    1.7302    0.7970 C   0  0  0  0  0  0  0  0  0  0  0  0
   -2.1178    0.9604    0.3146 C   0  0  0  0  0  0  0  0  0  0  0  0
   -1.4330    0.1036    1.1420 C   0  0  0  0  0  0  0  0  0  0  0  0
   -0.3340   -0.6241    0.6667 C   0  0  0  0  0  0  0  0  0  0  0  0
    0.0934   -0.5057   -0.6356 C   0  0  0  0  0  0  0  0  0  0  0  0
    1.2339   -1.2717   -1.0984 C   0  0  0  0  0  0  0  0  0  0  0  0
    1.5648   -1.1048   -2.3235 O   0  0  0  0  0  0  0  0  0  0  0  0
    1.9952   -2.1709   -0.3201 N   0  0  0  0  0  0  0  0  0  0  0  0
    3.1016   -2.8830   -0.8563 C   0  0  0  0  0  0  0  0  0  0  0  0
    2.8816   -4.1118   -1.4269 C   0  0  0  0  0  0  0  0  0  0  0  0
    3.9688   -4.7845   -1.9409 C   0  0  0  0  0  0  0  0  0  0  0  0
    5.2386   -4.2233   -1.8755 C   0  0  0  0  0  0  0  0  0  0  0  0
    6.6461   -5.0406   -2.5143 Cl  0  0  0  0  0  0  0  0  0  0  0  0
    5.4288   -2.9688   -1.2871 C   0  0  0  0  0  0  0  0  0  0  0  0
    4.3405   -2.2961   -0.7730 C   0  0  0  0  0  0  0  0  0  0  0  0
    4.4896   -0.9946   -0.1540 C   0  0  0  0  0  0  0  0  0  0  0  0
    3.4597   -0.4288    0.2995 O   0  0  0  0  0  0  0  0  0  0  0  0
    5.6965   -0.2871   -0.0072 N   0  0  0  0  0  0  0  0  0  0  0  0
    5.8074    0.9918    0.6070 C   0  0  0  0  0  0  0  0  0  0  0  0
    5.6910    2.1622   -0.1079 C   0  0  0  0  0  0  0  0  0  0  0  0
    5.7958    3.4091    0.4727 C   0  0  0  0  0  0  0  0  0  0  0  0
    6.0267    3.4991    1.8250 C   0  0  0  0  0  0  0  0  0  0  0  0
    6.1721    5.0620    2.6356 Cl  0  0  0  0  0  0  0  0  0  0  0  0
    6.1427    2.3244    2.5377 C   0  0  0  0  0  0  0  0  0  0  0  0
    6.0338    1.1133    1.9317 N   0  0  0  0  0  0  0  0  0  0  0  0
   -0.6127    0.3625   -1.4460 C   0  0  0  0  0  0  0  0  0  0  0  0
   -1.6928    1.0800   -0.9855 C   0  0  0  0  0  0  0  0  0  0  0  0
   -3.2688   -1.2575   -0.6110 H   0  0  0  0  0  0  0  0  0  0  0  0
   -3.7012   -1.5859    1.0884 H   0  0  0  0  0  0  0  0  0  0  0  0
   -6.8365    1.3127   -1.0777 H   0  0  0  0  0  0  0  0  0  0  0  0
   -7.9083   -0.0842   -1.1828 H   0  0  0  0  0  0  0  0  0  0  0  0
   -8.1311   -0.1679    1.3306 H   0  0  0  0  0  0  0  0  0  0  0  0
   -8.5898    1.3796    0.6301 H   0  0  0  0  0  0  0  0  0  0  0  0
   -7.3639    2.2107    2.3030 H   0  0  0  0  0  0  0  0  0  0  0  0
   -6.4484    0.7027    2.5237 H   0  0  0  0  0  0  0  0  0  0  0  0
   -5.1883    2.8137    1.9123 H   0  0  0  0  0  0  0  0  0  0  0  0
   -5.9539    2.7612    0.2925 H   0  0  0  0  0  0  0  0  0  0  0  0
   -3.2660    2.7699    0.3601 H   0  0  0  0  0  0  0  0  0  0  0  0
   -3.0884    1.9533    1.9055 H   0  0  0  0  0  0  0  0  0  0  0  0
   -1.7672    0.0088    2.1663 H   0  0  0  0  0  0  0  0  0  0  0  0
    0.1228   -1.2628    1.4054 H   0  0  0  0  0  0  0  0  0  0  0  0
    1.7050   -2.2946    0.6907 H   0  0  0  0  0  0  0  0  0  0  0  0
    1.8865   -4.5276   -1.4663 H   0  0  0  0  0  0  0  0  0  0  0  0
    3.8813   -5.7549   -2.4059 H   0  0  0  0  0  0  0  0  0  0  0  0
    6.4053   -2.5423   -1.2393 H   0  0  0  0  0  0  0  0  0  0  0  0
    6.5667   -0.7265   -0.3712 H   0  0  0  0  0  0  0  0  0  0  0  0
    5.5073    2.0465   -1.1818 H   0  0  0  0  0  0  0  0  0  0  0  0
    5.6977    4.2806   -0.1262 H   0  0  0  0  0  0  0  0  0  0  0  0
    6.3263    2.4111    3.6123 H   0  0  0  0  0  0  0  0  0  0  0  0
   -0.2810    0.4598   -2.4719 H   0  0  0  0  0  0  0  0  0  0  0  0
   -2.2172    1.7435   -1.6395 H   0  0  0  0  0  0  0  0  0  0  0  0
  1  2  1  0
  2  3  2  0
  3  4  1  0
  4  5  1  0
  5  6  1  0
  6  7  1  0
  7  8  1  0
  8  9  1  0
  9 10  1  0
 10 11  2  0
 11 12  1  0
 12 13  2  0
 13 14  1  0
 14 15  2  0
 14 16  1  0
 16 17  1  0
 17 18  2  0
 18 19  1  0
 19 20  2  0
 20 21  1  0
 20 22  1  0
 22 23  2  0
 23 24  1  0
 24 25  2  0
 24 26  1  0
 26 27  1  0
 27 28  2  0
 28 29  1  0
 29 30  2  0
 30 31  1  0
 30 32  1  0
 32 33  2  0
 13 34  1  0
 34 35  2  0
  8  2  1  0
 35 10  1  0
 23 17  1  0
 33 27  1  0
  1 36  1  0
  1 37  1  0
  4 38  1  0
  4 39  1  0
  5 40  1  0
  5 41  1  0
  6 42  1  0
  6 43  1  0
  7 44  1  0
  7 45  1  0
  9 46  1  0
  9 47  1  0
 11 48  1  0
 12 49  1  0
 16 50  1  0
 18 51  1  0
 19 52  1  0
 22 53  1  0
 26 54  1  0
 28 55  1  0
 29 56  1  0
 32 57  1  0
 34 58  1  0
 35 59  1  0
M  END
$$$$
