@<TRIPOS>MOLECULE
*****
 47 50 0 0 0
SMALL
GASTEIGER

@<TRIPOS>ATOM
      1 O           5.2206   -1.9680   -1.1947 O.2     1  UNL1       -0.1498
      2 S           4.7243   -2.0985    0.2374 S.O2    1  UNL1        0.0766
      3 O           4.6789   -3.5566    0.5518 O.2     1  UNL1       -0.1498
      4 N           5.7556   -1.2654    1.3249 N.pl3   1  UNL1       -0.1937
      5 C           6.0474    0.1136    1.1546 C.ar    1  UNL1        0.1774
      6 N           6.6863    0.9894    1.6907 N.ar    1  UNL1       -0.2321
      7 C           6.8111    2.2242    1.3136 C.ar    1  UNL1        0.0369
      8 C           6.1618    2.6068    0.1924 C.ar    1  UNL1       -0.0030
      9 S           5.3380    1.0586   -0.3093 S.2     1  UNL1       -0.0594
     10 C           3.1408   -1.3612    0.3109 C.ar    1  UNL1        0.1450
     11 C           2.8046   -0.3361    1.1617 C.ar    1  UNL1       -0.0121
     12 C           1.5235    0.1708    1.1514 C.ar    1  UNL1        0.0638
     13 CL          1.1546    1.4737    2.2547 Cl      1  UNL1       -0.0816
     14 C           0.5305   -0.2952    0.3222 C.ar    1  UNL1        0.0486
     15 N          -0.7559    0.2944    0.3890 N.pl3   1  UNL1       -0.3409
     16 C          -1.7570   -0.2603   -0.5281 C.3     1  UNL1        0.0276
     17 C          -3.0855    0.4447   -0.3673 C.3     1  UNL1        0.0374
     18 C          -2.9980    1.9069   -0.6474 C.3     1  UNL1       -0.0318
     19 C          -4.0536    2.2064   -1.6885 C.3     1  UNL1       -0.0385
     20 C          -4.4511    0.8640   -2.2041 C.3     1  UNL1       -0.0005
     21 N          -4.0138   -0.1352   -1.2826 N.3     1  UNL1       -0.2952
     22 C          -5.0652   -0.7648   -0.5494 C.3     1  UNL1       -0.0005
     23 C          -4.5095   -0.9971    0.8234 C.3     1  UNL1       -0.0385
     24 C          -3.6298    0.2229    1.0236 C.3     1  UNL1       -0.0318
     25 C           0.8776   -1.3227   -0.5261 C.ar    1  UNL1       -0.0022
     26 C           2.1678   -1.8513   -0.5333 C.ar    1  UNL1        0.1517
     27 F           2.4391   -2.8618   -1.3946 F       1  UNL1       -0.2034
     28 H           6.1573   -1.8010    2.1081 H       1  UNL1        0.1758
     29 H           7.4263    2.9552    1.8808 H       1  UNL1        0.0835
     30 H           6.0787    3.5202   -0.3428 H       1  UNL1        0.0710
     31 H           3.5723    0.0504    1.8389 H       1  UNL1        0.0653
     32 H          -0.9576    1.0570    1.0401 H       1  UNL1        0.1462
     33 H          -1.3984   -0.1627   -1.5613 H       1  UNL1        0.0479
     34 H          -1.8993   -1.3144   -0.2796 H       1  UNL1        0.0479
     35 H          -2.0118    2.1611   -1.1244 H       1  UNL1        0.0284
     36 H          -3.2107    2.5331    0.2335 H       1  UNL1        0.0284
     37 H          -4.9490    2.6983   -1.2412 H       1  UNL1        0.0278
     38 H          -3.6657    2.8836   -2.4865 H       1  UNL1        0.0278
     39 H          -3.9496    0.6792   -3.1823 H       1  UNL1        0.0427
     40 H          -5.5449    0.7964   -2.3711 H       1  UNL1        0.0427
     41 H          -5.2533   -1.7642   -1.0407 H       1  UNL1        0.0427
     42 H          -6.0097   -0.1700   -0.5191 H       1  UNL1        0.0427
     43 H          -3.8592   -1.8778    0.8337 H       1  UNL1        0.0278
     44 H          -5.3313   -1.0400    1.5798 H       1  UNL1        0.0278
     45 H          -2.8243    0.0261    1.7633 H       1  UNL1        0.0284
     46 H          -4.2411    1.0641    1.3843 H       1  UNL1        0.0284
     47 H           0.1282   -1.7147   -1.1902 H       1  UNL1        0.0666
@<TRIPOS>BOND
     1     1     2    2
     2     2     3    2
     3     2     4    1
     4     4     5    1
     5     5     6   ar
     6     6     7   ar
     7     7     8   ar
     8     8     9   ar
     9     2    10    1
    10    10    11   ar
    11    11    12   ar
    12    12    13    1
    13    12    14   ar
    14    14    15    1
    15    15    16    1
    16    16    17    1
    17    17    18    1
    18    18    19    1
    19    19    20    1
    20    20    21    1
    21    21    22    1
    22    22    23    1
    23    23    24    1
    24    14    25   ar
    25    25    26   ar
    26    26    27    1
    27     9     5   ar
    28    26    10   ar
    29    21    17    1
    30    24    17    1
    31     4    28    1
    32     7    29    1
    33     8    30    1
    34    11    31    1
    35    15    32    1
    36    16    33    1
    37    16    34    1
    38    18    35    1
    39    18    36    1
    40    19    37    1
    41    19    38    1
    42    20    39    1
    43    20    40    1
    44    22    41    1
    45    22    42    1
    46    23    43    1
    47    23    44    1
    48    24    45    1
    49    24    46    1
    50    25    47    1
