
     RDKit          3D

 47 50  0  0  0  0  0  0  0  0999 V2000
    5.2206   -1.9680   -1.1947 O   0  0  0  0  0  0  0  0  0  0  0  0
    4.7243   -2.0985    0.2374 S   0  0  0  0  0  6  0  0  0  0  0  0
    4.6789   -3.5566    0.5518 O   0  0  0  0  0  0  0  0  0  0  0  0
    5.7556   -1.2654    1.3249 N   0  0  0  0  0  0  0  0  0  0  0  0
    6.0474    0.1136    1.1546 C   0  0  0  0  0  0  0  0  0  0  0  0
    6.6863    0.9894    1.6907 N   0  0  0  0  0  0  0  0  0  0  0  0
    6.8111    2.2242    1.3136 C   0  0  0  0  0  0  0  0  0  0  0  0
    6.1618    2.6068    0.1924 C   0  0  0  0  0  0  0  0  0  0  0  0
    5.3380    1.0586   -0.3093 S   0  0  0  0  0  0  0  0  0  0  0  0
    3.1408   -1.3612    0.3109 C   0  0  0  0  0  0  0  0  0  0  0  0
    2.8046   -0.3361    1.1617 C   0  0  0  0  0  0  0  0  0  0  0  0
    1.5235    0.1708    1.1514 C   0  0  0  0  0  0  0  0  0  0  0  0
    1.1546    1.4737    2.2547 Cl  0  0  0  0  0  0  0  0  0  0  0  0
    0.5305   -0.2952    0.3222 C   0  0  0  0  0  0  0  0  0  0  0  0
   -0.7559    0.2944    0.3890 N   0  0  0  0  0  0  0  0  0  0  0  0
   -1.7570   -0.2603   -0.5281 C   0  0  0  0  0  0  0  0  0  0  0  0
   -3.0855    0.4447   -0.3673 C   0  0  0  0  0  0  0  0  0  0  0  0
   -2.9980    1.9069   -0.6474 C   0  0  0  0  0  0  0  0  0  0  0  0
   -4.0536    2.2064   -1.6885 C   0  0  0  0  0  0  0  0  0  0  0  0
   -4.4511    0.8640   -2.2041 C   0  0  0  0  0  0  0  0  0  0  0  0
   -4.0138   -0.1352   -1.2826 N   0  0  0  0  0  0  0  0  0  0  0  0
   -5.0652   -0.7648   -0.5494 C   0  0  0  0  0  0  0  0  0  0  0  0
   -4.5095   -0.9971    0.8234 C   0  0  0  0  0  0  0  0  0  0  0  0
   -3.6298    0.2229    1.0236 C   0  0  0  0  0  0  0  0  0  0  0  0
    0.8776   -1.3227   -0.5261 C   0  0  0  0  0  0  0  0  0  0  0  0
    2.1678   -1.8513   -0.5333 C   0  0  0  0  0  0  0  0  0  0  0  0
    2.4391   -2.8618   -1.3946 F   0  0  0  0  0  0  0  0  0  0  0  0
    6.1573   -1.8010    2.1081 H   0  0  0  0  0  0  0  0  0  0  0  0
    7.4263    2.9552    1.8808 H   0  0  0  0  0  0  0  0  0  0  0  0
    6.0787    3.5202   -0.3428 H   0  0  0  0  0  0  0  0  0  0  0  0
    3.5723    0.0504    1.8389 H   0  0  0  0  0  0  0  0  0  0  0  0
   -0.9576    1.0570    1.0401 H   0  0  0  0  0  0  0  0  0  0  0  0
   -1.3984   -0.1627   -1.5613 H   0  0  0  0  0  0  0  0  0  0  0  0
   -1.8993   -1.3144   -0.2796 H   0  0  0  0  0  0  0  0  0  0  0  0
   -2.0118    2.1611   -1.1244 H   0  0  0  0  0  0  0  0  0  0  0  0
   -3.2107    2.5331    0.2335 H   0  0  0  0  0  0  0  0  0  0  0  0
   -4.9490    2.6983   -1.2412 H   0  0  0  0  0  0  0  0  0  0  0  0
   -3.6657    2.8836   -2.4865 H   0  0  0  0  0  0  0  0  0  0  0  0
   -3.9496    0.6792   -3.1823 H   0  0  0  0  0  0  0  0  0  0  0  0
   -5.5449    0.7964   -2.3711 H   0  0  0  0  0  0  0  0  0  0  0  0
   -5.2533   -1.7642   -1.0407 H   0  0  0  0  0  0  0  0  0  0  0  0
   -6.0097   -0.1700   -0.5191 H   0  0  0  0  0  0  0  0  0  0  0  0
   -3.8592   -1.8778    0.8337 H   0  0  0  0  0  0  0  0  0  0  0  0
   -5.3313   -1.0400    1.5798 H   0  0  0  0  0  0  0  0  0  0  0  0
   -2.8243    0.0261    1.7633 H   0  0  0  0  0  0  0  0  0  0  0  0
   -4.2411    1.0641    1.3843 H   0  0  0  0  0  0  0  0  0  0  0  0
    0.1282   -1.7147   -1.1902 H   0  0  0  0  0  0  0  0  0  0  0  0
  1  2  2  0
  2  3  2  0
  2  4  1  0
  4  5  1  0
  5  6  2  0
  6  7  1  0
  7  8  2  0
  8  9  1  0
  2 10  1  0
 10 11  2  0
 11 12  1  0
 12 13  1  0
 12 14  2  0
 14 15  1  0
 15 16  1  0
 16 17  1  0
 17 18  1  0
 18 19  1  0
 19 20  1  0
 20 21  1  0
 21 22  1  0
 22 23  1  0
 23 24  1  0
 14 25  1  0
 25 26  2  0
 26 27  1  0
  9  5  1  0
 26 10  1  0
 21 17  1  0
 24 17  1  0
  4 28  1  0
  7 29  1  0
  8 30  1  0
 11 31  1  0
 15 32  1  0
 16 33  1  0
 16 34  1  0
 18 35  1  0
 18 36  1  0
 19 37  1  0
 19 38  1  0
 20 39  1  0
 20 40  1  0
 22 41  1  0
 22 42  1  0
 23 43  1  0
 23 44  1  0
 24 45  1  0
 24 46  1  0
 25 47  1  0
M  END
$$$$
