@<TRIPOS>MOLECULE
*****
 36 38 0 0 0
SMALL
GASTEIGER

@<TRIPOS>ATOM
      1 C           1.5632   -3.2332   -1.8507 C.3     1  UNL1       -0.0222
      2 C           1.3074   -2.1774   -0.8207 C.ar    1  UNL1        0.0426
      3 C           2.3695   -1.7391   -0.0619 C.ar    1  UNL1        0.0018
      4 C           2.1614   -0.7540    0.9077 C.ar    1  UNL1        0.1324
      5 O           3.2297   -0.3101    1.6741 O.3     1  UNL1       -0.4529
      6 C           4.0128    0.7771    1.2465 C.ar    1  UNL1        0.1644
      7 C           3.7060    1.3942    0.0594 C.ar    1  UNL1        0.0730
      8 N           4.4542    2.4485   -0.3694 N.ar    1  UNL1       -0.2401
      9 C           5.4912    2.8857    0.3664 C.ar    1  UNL1        0.1161
     10 N           5.7949    2.2855    1.5277 N.ar    1  UNL1       -0.2401
     11 C           5.0753    1.2331    1.9900 C.ar    1  UNL1        0.0730
     12 C           0.8756   -0.2727    1.0459 C.ar    1  UNL1        0.0112
     13 C          -0.1787   -0.7128    0.2874 C.ar    1  UNL1        0.1295
     14 C          -1.5111   -0.1627    0.4841 C.2     1  UNL1        0.2678
     15 O          -1.7242    0.7207    1.3463 O.2     1  UNL1       -0.2681
     16 N          -2.6154   -0.6021   -0.2878 N.am    1  UNL1       -0.2650
     17 C          -3.9253   -0.0778   -0.1116 C.ar    1  UNL1        0.1279
     18 C          -4.3296    1.0225   -0.8367 C.ar    1  UNL1        0.0137
     19 C          -5.5891    1.5661   -0.7000 C.ar    1  UNL1        0.1281
     20 F          -6.0067    2.6406   -1.3976 F       1  UNL1       -0.2053
     21 C          -6.4576    0.9740    0.1974 C.ar    1  UNL1       -0.0082
     22 C          -6.0406   -0.1253    0.9159 C.ar    1  UNL1        0.0324
     23 N          -4.8048   -0.6269    0.7553 N.ar    1  UNL1       -0.2399
     24 N           0.0756   -1.6608   -0.6304 N.ar    1  UNL1       -0.2470
     25 H           1.9394   -4.1528   -1.3918 H       1  UNL1        0.0293
     26 H           0.6842   -3.3791   -2.5053 H       1  UNL1        0.0293
     27 H           2.3742   -2.8466   -2.5157 H       1  UNL1        0.0293
     28 H           3.3556   -2.1366   -0.1975 H       1  UNL1        0.0672
     29 H           2.8822    1.0852   -0.5748 H       1  UNL1        0.0868
     30 H           6.0859    3.7204    0.0299 H       1  UNL1        0.1047
     31 H           5.3361    0.7621    2.9296 H       1  UNL1        0.0868
     32 H           0.7126    0.4835    1.7893 H       1  UNL1        0.0677
     33 H          -2.4758   -1.3486   -1.0279 H       1  UNL1        0.1566
     34 H          -3.6480    1.4836   -1.5381 H       1  UNL1        0.0681
     35 H          -7.4393    1.4018    0.3005 H       1  UNL1        0.0661
     36 H          -6.7407   -0.5666    1.6094 H       1  UNL1        0.0831
@<TRIPOS>BOND
     1     1     2    1
     2     2     3   ar
     3     3     4   ar
     4     4     5    1
     5     5     6    1
     6     6     7   ar
     7     7     8   ar
     8     8     9   ar
     9     9    10   ar
    10    10    11   ar
    11     4    12   ar
    12    12    13   ar
    13    13    14    1
    14    14    15    2
    15    14    16   am
    16    16    17    1
    17    17    18   ar
    18    18    19   ar
    19    19    20    1
    20    19    21   ar
    21    21    22   ar
    22    22    23   ar
    23    13    24   ar
    24    24     2   ar
    25    11     6   ar
    26    23    17   ar
    27     1    25    1
    28     1    26    1
    29     1    27    1
    30     3    28    1
    31     7    29    1
    32     9    30    1
    33    11    31    1
    34    12    32    1
    35    16    33    1
    36    18    34    1
    37    21    35    1
    38    22    36    1
