@<TRIPOS>MOLECULE
*****
 18 17 0 0 0
SMALL
GASTEIGER

@<TRIPOS>ATOM
      1 C1          4.4381    0.2744   -0.2323 C.3     1  <1>         0.0000
      2 Hg1         2.5311   -0.4451    0.1317 Hg      1  <1>         0.0000
      3 S1          0.5734   -1.6949    0.7148 S.3     1  <1>         0.0000
      4 C2         -0.8211   -0.5764    0.9390 C.3     1  <1>         0.0000
      5 C3         -1.2562    0.1165   -0.3167 C.3     1  <1>         0.0000
      6 N1         -1.6467   -0.9075   -1.2776 N.3     1  <1>         0.0000
      7 C4         -2.4692    0.9138    0.0202 C.2     1  <1>         0.0000
      8 O1         -2.6887    1.9876    0.8635 O.3     1  <1>         0.0000
      9 O2         -3.3872    0.4007   -0.6651 O.2     1  <1>         0.0000
     10 H1          4.4138    1.3634   -0.4374 H       1  <1>         0.0000
     11 H2          4.9044   -0.1916   -1.1219 H       1  <1>         0.0000
     12 H3          5.1385    0.1068    0.6170 H       1  <1>         0.0000
     13 H4         -1.6848   -1.2408    1.2291 H       1  <1>         0.0000
     14 H5         -0.6787    0.1367    1.7873 H       1  <1>         0.0000
     15 H6         -0.4495    0.7118   -0.7510 H       1  <1>         0.0000
     16 H7         -0.8617   -1.5224   -1.5268 H       1  <1>         0.0000
     17 H8         -2.3976   -1.4984   -0.8194 H       1  <1>         0.0000
     18 H9         -3.6580    2.0654    1.2058 H       1  <1>         0.0000
@<TRIPOS>BOND
     1     1     2    1
     2     2     3    1
     3     3     4    1
     4     4     5    1
     5     5     6    1
     6     5     7    1
     7     7     8    1
     8     7     9    2
     9     1    10    1
    10     1    11    1
    11     1    12    1
    12     4    13    1
    13     4    14    1
    14     5    15    1
    15     6    16    1
    16     6    17    1
    17     8    18    1
