@<TRIPOS>MOLECULE
*****
 45 48 0 0 0
SMALL
GASTEIGER

@<TRIPOS>ATOM
      1 O          -1.3256   -0.8286    2.1156 O.2     1  UNL1       -0.2701
      2 C          -2.4265   -0.2101    1.9855 C.2     1  UNL1        0.2471
      3 N          -3.5651   -0.9572    2.2765 N.am    1  UNL1       -0.3084
      4 C          -3.5403   -2.3426    2.7014 C.3     1  UNL1        0.0235
      5 C          -4.3564   -2.5960    3.9651 C.3     1  UNL1       -0.0328
      6 C          -4.6627   -3.2437    2.6041 C.3     1  UNL1       -0.0328
      7 C          -2.3700    1.1706    1.5579 C.ar    1  UNL1        0.0737
      8 C          -1.1230    1.7193    1.2134 C.ar    1  UNL1       -0.0231
      9 C          -1.0363    3.0186    0.7950 C.ar    1  UNL1        0.0640
     10 N           0.2077    3.6001    0.4678 N.pl3   1  UNL1       -0.3369
     11 C           1.4974    2.9960    0.4523 C.3     1  UNL1        0.0422
     12 C           1.7496    2.1222   -0.7395 C.ar    1  UNL1        0.0280
     13 C           2.1875    2.3964   -1.9908 C.ar    1  UNL1        0.0415
     14 N           2.3214    1.3717   -2.7918 N.ar    1  UNL1       -0.2327
     15 C           2.1262    0.2456   -2.6122 C.ar    1  UNL1        0.1637
     16 N           2.1533   -1.0710   -3.2114 N.pl3   1  UNL1       -0.2787
     17 C           3.3665   -1.8228   -3.1791 C.ar    1  UNL1        0.1243
     18 C           4.4949   -1.3170   -2.6006 C.ar    1  UNL1       -0.0215
     19 C           5.6503   -2.0482   -2.5804 C.ar    1  UNL1       -0.0571
     20 C           5.6722   -3.2904   -3.1425 C.ar    1  UNL1       -0.0435
     21 C           4.5256   -3.8111   -3.7334 C.ar    1  UNL1        0.0297
     22 N           3.4178   -3.0452   -3.7231 N.ar    1  UNL1       -0.2401
     23 S           1.5437    0.3080   -0.7857 S.2     1  UNL1       -0.0555
     24 C          -2.1852    3.8164    0.7061 C.ar    1  UNL1        0.1469
     25 F          -2.0579    5.1194    0.2828 F       1  UNL1       -0.2035
     26 C          -3.4023    3.2925    1.0393 C.ar    1  UNL1        0.0114
     27 C          -3.4821    1.9586    1.4668 C.ar    1  UNL1        0.1383
     28 F          -4.7203    1.5166    1.7842 F       1  UNL1       -0.2046
     29 H          -4.5036   -0.5330    2.1927 H       1  UNL1        0.1493
     30 H          -2.5190   -2.7692    2.7671 H       1  UNL1        0.0498
     31 H          -5.0195   -1.7925    4.3276 H       1  UNL1        0.0284
     32 H          -3.9331   -3.2502    4.7528 H       1  UNL1        0.0284
     33 H          -5.6689   -2.9828    2.2457 H       1  UNL1        0.0284
     34 H          -4.4596   -4.3311    2.5667 H       1  UNL1        0.0284
     35 H          -0.2472    1.0745    1.3130 H       1  UNL1        0.0645
     36 H           0.2083    4.6391    0.1892 H       1  UNL1        0.1465
     37 H           1.5870    2.3832    1.3848 H       1  UNL1        0.0516
     38 H           2.3288    3.7472    0.5561 H       1  UNL1        0.0516
     39 H           2.4162    3.4281   -2.3103 H       1  UNL1        0.0839
     40 H           1.3061   -1.4827   -3.6665 H       1  UNL1        0.1555
     41 H           4.5201   -0.3217   -2.1368 H       1  UNL1        0.0652
     42 H           6.5423   -1.6487   -2.1237 H       1  UNL1        0.0619
     43 H           6.5418   -3.9343   -3.1703 H       1  UNL1        0.0633
     44 H           4.5422   -4.8013   -4.1826 H       1  UNL1        0.0830
     45 H          -4.3024    3.9123    0.9710 H       1  UNL1        0.0676
@<TRIPOS>BOND
     1     1     2    2
     2     2     3   am
     3     3     4    1
     4     4     5    1
     5     5     6    1
     6     2     7    1
     7     7     8   ar
     8     8     9   ar
     9     9    10    1
    10    10    11    1
    11    11    12    1
    12    12    13   ar
    13    13    14   ar
    14    14    15   ar
    15    15    16    1
    16    16    17    1
    17    17    18   ar
    18    18    19   ar
    19    19    20   ar
    20    20    21   ar
    21    21    22   ar
    22    15    23   ar
    23     9    24   ar
    24    24    25    1
    25    24    26   ar
    26    26    27   ar
    27    27    28    1
    28     6     4    1
    29    27     7   ar
    30    23    12   ar
    31    22    17   ar
    32     3    29    1
    33     4    30    1
    34     5    31    1
    35     5    32    1
    36     6    33    1
    37     6    34    1
    38     8    35    1
    39    10    36    1
    40    11    37    1
    41    11    38    1
    42    13    39    1
    43    16    40    1
    44    18    41    1
    45    19    42    1
    46    20    43    1
    47    21    44    1
    48    26    45    1
