
     RDKit          3D

 50 53  0  0  0  0  0  0  0  0999 V2000
    6.0653    0.7724    1.8283 C   0  0  0  0  0  0  0  0  0  0  0  0
    5.7714    0.8971    0.3903 C   0  0  0  0  0  0  0  0  0  0  0  0
    6.8156    1.3237   -0.4497 C   0  0  0  0  0  0  0  0  0  0  0  0
    6.5376    1.4395   -1.7946 C   0  0  0  0  0  0  0  0  0  0  0  0
    7.8278    1.9735   -2.8800 Cl  0  0  0  0  0  0  0  0  0  0  0  0
    5.2826    1.1472   -2.2935 C   0  0  0  0  0  0  0  0  0  0  0  0
    4.3097    0.7413   -1.4533 N   0  0  0  0  0  0  0  0  0  0  0  0
    4.5346    0.6150   -0.1411 C   0  0  0  0  0  0  0  0  0  0  0  0
    3.4475    0.1725    0.7217 C   0  0  0  0  0  0  0  0  0  0  0  0
    3.6734    0.0584    1.9516 O   0  0  0  0  0  0  0  0  0  0  0  0
    2.1692   -0.1229    0.1972 N   0  0  0  0  0  0  0  0  0  0  0  0
    1.0479   -0.5576    0.9385 C   0  0  0  0  0  0  0  0  0  0  0  0
    1.0237   -0.7615    2.2874 C   0  0  0  0  0  0  0  0  0  0  0  0
   -0.1283   -1.1883    2.9199 C   0  0  0  0  0  0  0  0  0  0  0  0
   -1.2867   -1.4207    2.2072 C   0  0  0  0  0  0  0  0  0  0  0  0
   -2.4249   -1.7934    2.8729 F   0  0  0  0  0  0  0  0  0  0  0  0
   -1.2652   -1.2144    0.8222 C   0  0  0  0  0  0  0  0  0  0  0  0
   -2.4967   -1.5217    0.0477 C   0  0  2  0  0  0  0  0  0  0  0  0
   -2.8258   -2.9745    0.1836 C   0  0  0  0  0  0  0  0  0  0  0  0
   -3.0748   -3.4673    1.4153 F   0  0  0  0  0  0  0  0  0  0  0  0
   -2.3471   -1.2928   -1.4425 C   0  0  0  0  0  0  0  0  0  0  0  0
   -2.7904    0.3180   -1.9637 S   0  0  0  0  0  6  0  0  0  0  0  0
   -3.0856    0.3268   -3.4579 O   0  0  0  0  0  0  0  0  0  0  0  0
   -1.7545    1.3444   -1.6448 O   0  0  0  0  0  0  0  0  0  0  0  0
   -4.2874    0.7184   -1.0882 C   0  0  0  0  0  0  0  0  0  0  0  0
   -5.5051    1.0165   -1.8373 C   0  0  0  0  0  0  0  0  0  0  0  0
   -4.6557    2.1305   -1.1694 C   0  0  0  0  0  0  0  0  0  0  0  0
   -4.2750    0.1554    0.2560 C   0  0  0  0  0  0  0  0  0  0  0  0
   -5.2075    0.6791    1.2317 N   0  0  0  0  0  0  0  0  0  0  0  0
   -3.5227   -0.7414    0.6254 N   0  0  0  0  0  0  0  0  0  0  0  0
   -0.1224   -0.7901    0.1964 C   0  0  0  0  0  0  0  0  0  0  0  0
    5.9630   -0.2736    2.1610 H   0  0  0  0  0  0  0  0  0  0  0  0
    5.4579    1.4564    2.4578 H   0  0  0  0  0  0  0  0  0  0  0  0
    7.1190    1.0569    2.0284 H   0  0  0  0  0  0  0  0  0  0  0  0
    7.7964    1.5564   -0.0894 H   0  0  0  0  0  0  0  0  0  0  0  0
    5.0513    1.2335   -3.3435 H   0  0  0  0  0  0  0  0  0  0  0  0
    2.1008    0.0119   -0.8612 H   0  0  0  0  0  0  0  0  0  0  0  0
    1.8819   -0.6019    2.9014 H   0  0  0  0  0  0  0  0  0  0  0  0
   -0.1736   -1.3583    3.9941 H   0  0  0  0  0  0  0  0  0  0  0  0
   -3.7583   -3.2086   -0.4286 H   0  0  0  0  0  0  0  0  0  0  0  0
   -2.0228   -3.6250   -0.2621 H   0  0  0  0  0  0  0  0  0  0  0  0
   -3.0907   -1.9839   -1.9776 H   0  0  0  0  0  0  0  0  0  0  0  0
   -1.3946   -1.5674   -1.8845 H   0  0  0  0  0  0  0  0  0  0  0  0
   -6.4761    0.8117   -1.3520 H   0  0  0  0  0  0  0  0  0  0  0  0
   -5.4320    0.9651   -2.9501 H   0  0  0  0  0  0  0  0  0  0  0  0
   -4.1358    2.8328   -1.8402 H   0  0  0  0  0  0  0  0  0  0  0  0
   -5.1352    2.6351   -0.3027 H   0  0  0  0  0  0  0  0  0  0  0  0
   -5.0659    1.6186    1.6706 H   0  0  0  0  0  0  0  0  0  0  0  0
   -6.0181    0.0765    1.4704 H   0  0  0  0  0  0  0  0  0  0  0  0
   -0.1176   -0.6331   -0.8689 H   0  0  0  0  0  0  0  0  0  0  0  0
  1  2  1  0
  2  3  2  0
  3  4  1  0
  4  5  1  0
  4  6  2  0
  6  7  1  0
  7  8  2  0
  8  9  1  0
  9 10  2  0
  9 11  1  0
 11 12  1  0
 12 13  2  0
 13 14  1  0
 14 15  2  0
 15 16  1  0
 15 17  1  0
 17 18  1  0
 18 19  1  6
 19 20  1  0
 18 21  1  0
 21 22  1  0
 22 23  2  0
 22 24  2  0
 22 25  1  0
 25 26  1  0
 26 27  1  0
 25 28  1  0
 28 29  1  0
 28 30  2  0
 17 31  2  0
  8  2  1  0
 31 12  1  0
 30 18  1  0
 27 25  1  0
  1 32  1  0
  1 33  1  0
  1 34  1  0
  3 35  1  0
  6 36  1  0
 11 37  1  0
 13 38  1  0
 14 39  1  0
 19 40  1  0
 19 41  1  0
 21 42  1  0
 21 43  1  0
 26 44  1  0
 26 45  1  0
 27 46  1  0
 27 47  1  0
 29 48  1  0
 29 49  1  0
 31 50  1  0
M  END
$$$$
