@<TRIPOS>MOLECULE
*****
 50 53 0 0 0
SMALL
GASTEIGER

@<TRIPOS>ATOM
      1 C           6.0653    0.7724    1.8283 C.3     1  UNL1       -0.0375
      2 C           5.7714    0.8971    0.3903 C.ar    1  UNL1       -0.0186
      3 C           6.8156    1.3237   -0.4497 C.ar    1  UNL1       -0.0368
      4 C           6.5376    1.4395   -1.7946 C.ar    1  UNL1        0.0593
      5 CL          7.8278    1.9735   -2.8800 Cl      1  UNL1       -0.0820
      6 C           5.2826    1.1472   -2.2935 C.ar    1  UNL1        0.0467
      7 N           4.3097    0.7413   -1.4533 N.ar    1  UNL1       -0.2486
      8 C           4.5346    0.6150   -0.1411 C.ar    1  UNL1        0.1286
      9 C           3.4475    0.1725    0.7217 C.2     1  UNL1        0.2668
     10 O           3.6734    0.0584    1.9516 O.2     1  UNL1       -0.2682
     11 N           2.1692   -0.1229    0.1972 N.am    1  UNL1       -0.2802
     12 C           1.0479   -0.5576    0.9385 C.ar    1  UNL1        0.0343
     13 C           1.0237   -0.7615    2.2874 C.ar    1  UNL1       -0.0377
     14 C          -0.1283   -1.1883    2.9199 C.ar    1  UNL1       -0.0243
     15 C          -1.2867   -1.4207    2.2072 C.ar    1  UNL1        0.1312
     16 F          -2.4249   -1.7934    2.8729 F       1  UNL1       -0.2050
     17 C          -1.2652   -1.2144    0.8222 C.ar    1  UNL1        0.0448
     18 C          -2.4967   -1.5217    0.0477 C.3     1  UNL1        0.2263
     19 C          -2.8258   -2.9745    0.1836 C.3     1  UNL1        0.1433
     20 F          -3.0748   -3.4673    1.4153 F       1  UNL1       -0.2438
     21 C          -2.3471   -1.2928   -1.4425 C.3     1  UNL1        0.1212
     22 S          -2.7904    0.3180   -1.9637 S.O2    1  UNL1       -0.0094
     23 O          -3.0856    0.3268   -3.4579 O.2     1  UNL1       -0.1731
     24 O          -1.7545    1.3444   -1.6448 O.2     1  UNL1       -0.1731
     25 C          -4.2874    0.7184   -1.0882 C.3     1  UNL1        0.1888
     26 C          -5.5051    1.0165   -1.8373 C.3     1  UNL1       -0.0139
     27 C          -4.6557    2.1305   -1.1694 C.3     1  UNL1       -0.0139
     28 C          -4.2750    0.1554    0.2560 C.2     1  UNL1        0.3073
     29 N          -5.2075    0.6791    1.2317 N.pl3   1  UNL1       -0.2488
     30 N          -3.5227   -0.7414    0.6254 N.2     1  UNL1       -0.0697
     31 C          -0.1224   -0.7901    0.1964 C.ar    1  UNL1       -0.0300
     32 H           5.9630   -0.2736    2.1610 H       1  UNL1        0.0278
     33 H           5.4579    1.4564    2.4578 H       1  UNL1        0.0278
     34 H           7.1190    1.0569    2.0284 H       1  UNL1        0.0278
     35 H           7.7964    1.5564   -0.0894 H       1  UNL1        0.0636
     36 H           5.0513    1.2335   -3.3435 H       1  UNL1        0.0844
     37 H           2.1008    0.0119   -0.8612 H       1  UNL1        0.1552
     38 H           1.8819   -0.6019    2.9014 H       1  UNL1        0.0637
     39 H          -0.1736   -1.3583    3.9941 H       1  UNL1        0.0647
     40 H          -3.7583   -3.2086   -0.4286 H       1  UNL1        0.0666
     41 H          -2.0228   -3.6250   -0.2621 H       1  UNL1        0.0666
     42 H          -3.0907   -1.9839   -1.9776 H       1  UNL1        0.0551
     43 H          -1.3946   -1.5674   -1.8845 H       1  UNL1        0.0551
     44 H          -6.4761    0.8117   -1.3520 H       1  UNL1        0.0293
     45 H          -5.4320    0.9651   -2.9501 H       1  UNL1        0.0293
     46 H          -4.1358    2.8328   -1.8402 H       1  UNL1        0.0293
     47 H          -5.1352    2.6351   -0.3027 H       1  UNL1        0.0293
     48 H          -5.0659    1.6186    1.6706 H       1  UNL1        0.2881
     49 H          -6.0181    0.0765    1.4704 H       1  UNL1        0.2881
     50 H          -0.1176   -0.6331   -0.8689 H       1  UNL1        0.0641
@<TRIPOS>BOND
     1     1     2    1
     2     2     3   ar
     3     3     4   ar
     4     4     5    1
     5     4     6   ar
     6     6     7   ar
     7     7     8   ar
     8     8     9    1
     9     9    10    2
    10     9    11   am
    11    11    12    1
    12    12    13   ar
    13    13    14   ar
    14    14    15   ar
    15    15    16    1
    16    15    17   ar
    17    17    18    1
    18    18    19    1
    19    19    20    1
    20    18    21    1
    21    21    22    1
    22    22    23    2
    23    22    24    2
    24    22    25    1
    25    25    26    1
    26    26    27    1
    27    25    28    1
    28    28    29    1
    29    28    30    2
    30    17    31   ar
    31     8     2   ar
    32    31    12   ar
    33    30    18    1
    34    27    25    1
    35     1    32    1
    36     1    33    1
    37     1    34    1
    38     3    35    1
    39     6    36    1
    40    11    37    1
    41    13    38    1
    42    14    39    1
    43    19    40    1
    44    19    41    1
    45    21    42    1
    46    21    43    1
    47    26    44    1
    48    26    45    1
    49    27    46    1
    50    27    47    1
    51    29    48    1
    52    29    49    1
    53    31    50    1
