@<TRIPOS>MOLECULE
*****
 56 59 0 0 0
SMALL
GASTEIGER

@<TRIPOS>ATOM
      1 C           8.6325    0.0158   -1.3442 C.3     1  UNL1        0.0124
      2 C           7.9621    0.8415   -0.3078 C.2     1  UNL1        0.2125
      3 O           8.6523    1.5098    0.4996 O.2     1  UNL1       -0.2759
      4 N           6.5492    0.8930   -0.2081 N.am    1  UNL1       -0.3002
      5 C           5.4524    0.2864   -0.9305 C.3     1  UNL1        0.0260
      6 C           4.5881    1.4566   -0.5122 C.3     1  UNL1        0.0537
      7 C           3.2223    1.0637   -0.1169 C.ar    1  UNL1        0.1779
      8 N           2.0794    1.6457   -0.5120 N.ar    1  UNL1       -0.0608
      9 O           1.0685    1.0150    0.0481 O.2     1  UNL1       -0.3361
     10 C           1.5003    0.0325    0.8027 C.ar    1  UNL1        0.2479
     11 C           0.6867   -0.9369    1.6197 C.3     1  UNL1        0.1048
     12 C           1.5819   -2.1494    1.8166 C.3     1  UNL1       -0.0241
     13 C           1.1638   -3.1583    0.8083 C.3     1  UNL1       -0.0350
     14 C           0.0036   -2.5291    0.0764 C.3     1  UNL1        0.0155
     15 N          -0.4396   -1.4261    0.8600 N.am    1  UNL1       -0.2897
     16 C          -1.7503   -0.8858    0.9072 C.2     1  UNL1        0.2177
     17 O          -2.0162    0.1010    1.6561 O.2     1  UNL1       -0.2755
     18 C          -2.7877   -1.4944    0.0720 C.3     1  UNL1        0.0396
     19 C          -4.0993   -0.7675    0.1628 C.3     1  UNL1        0.0172
     20 N          -5.1005   -1.4613   -0.6751 N.3     1  UNL1       -0.3265
     21 C          -3.9335    0.6468   -0.3891 C.3     1  UNL1       -0.0092
     22 C          -5.2497    1.3644   -0.2961 C.ar    1  UNL1       -0.0078
     23 C          -6.0240    1.5637   -1.4043 C.ar    1  UNL1       -0.0176
     24 C          -7.2344    2.2225   -1.3187 C.ar    1  UNL1        0.1588
     25 F          -7.9987    2.4157   -2.4354 F       1  UNL1       -0.2025
     26 C          -7.6764    2.6899   -0.1005 C.ar    1  UNL1        0.1611
     27 F          -8.8662    3.3349   -0.0290 F       1  UNL1       -0.2024
     28 C          -6.8889    2.4832    1.0053 C.ar    1  UNL1        0.0119
     29 C          -5.6784    1.8241    0.9183 C.ar    1  UNL1        0.1295
     30 F          -4.9510    1.6524    2.0452 F       1  UNL1       -0.2051
     31 N           2.8544    0.0648    0.6978 N.ar    1  UNL1       -0.1941
     32 C           5.5763    1.5531    0.6351 C.3     1  UNL1        0.0260
     33 H           9.4486   -0.5740   -0.8837 H       1  UNL1        0.0323
     34 H           7.8739   -0.7326   -1.6988 H       1  UNL1        0.0323
     35 H           8.9913    0.6784   -2.1530 H       1  UNL1        0.0323
     36 H           5.1149   -0.6963   -0.4928 H       1  UNL1        0.0472
     37 H           5.6058    0.1625   -2.0207 H       1  UNL1        0.0472
     38 H           4.6369    2.2957   -1.2289 H       1  UNL1        0.0411
     39 H           0.4313   -0.4513    2.5615 H       1  UNL1        0.0599
     40 H           1.4748   -2.5107    2.8738 H       1  UNL1        0.0288
     41 H           2.6554   -1.8952    1.6494 H       1  UNL1        0.0288
     42 H           0.8438   -4.1089    1.2969 H       1  UNL1        0.0281
     43 H           1.9865   -3.3932    0.0971 H       1  UNL1        0.0281
     44 H          -0.7723   -3.3192   -0.0568 H       1  UNL1        0.0465
     45 H           0.3316   -2.2089   -0.9369 H       1  UNL1        0.0465
     46 H          -2.4063   -1.5088   -0.9737 H       1  UNL1        0.0374
     47 H          -2.9562   -2.5626    0.3381 H       1  UNL1        0.0374
     48 H          -4.4823   -0.7119    1.1920 H       1  UNL1        0.0466
     49 H          -4.9235   -2.4793   -0.6711 H       1  UNL1        0.1185
     50 H          -6.0658   -1.2535   -0.3229 H       1  UNL1        0.1185
     51 H          -3.6821    0.5859   -1.4777 H       1  UNL1        0.0329
     52 H          -3.1340    1.2118    0.0958 H       1  UNL1        0.0329
     53 H          -5.6609    1.1913   -2.3437 H       1  UNL1        0.0651
     54 H          -7.2568    2.8577    1.9450 H       1  UNL1        0.0676
     55 H           5.2388    0.9481    1.4867 H       1  UNL1        0.0472
     56 H           5.8277    2.6071    0.8944 H       1  UNL1        0.0472
@<TRIPOS>BOND
     1     1     2    1
     2     2     3    2
     3     2     4   am
     4     4     5    1
     5     5     6    1
     6     6     7    1
     7     7     8   ar
     8     8     9   ar
     9     9    10   ar
    10    10    11    1
    11    11    12    1
    12    12    13    1
    13    13    14    1
    14    14    15    1
    15    15    16   am
    16    16    17    2
    17    16    18    1
    18    18    19    1
    19    19    20    1
    20    19    21    1
    21    21    22    1
    22    22    23   ar
    23    23    24   ar
    24    24    25    1
    25    24    26   ar
    26    26    27    1
    27    26    28   ar
    28    28    29   ar
    29    29    30    1
    30    10    31   ar
    31     6    32    1
    32    32     4    1
    33    31     7   ar
    34    15    11    1
    35    29    22   ar
    36     1    33    1
    37     1    34    1
    38     1    35    1
    39     5    36    1
    40     5    37    1
    41     6    38    1
    42    11    39    1
    43    12    40    1
    44    12    41    1
    45    13    42    1
    46    13    43    1
    47    14    44    1
    48    14    45    1
    49    18    46    1
    50    18    47    1
    51    19    48    1
    52    20    49    1
    53    20    50    1
    54    21    51    1
    55    21    52    1
    56    23    53    1
    57    28    54    1
    58    32    55    1
    59    32    56    1
