@<TRIPOS>MOLECULE
*****
 72 74 0 0 0
SMALL
GASTEIGER

@<TRIPOS>ATOM
      1 C           2.3911   -3.4706   -4.8707 C.3     1  UNL1        0.0833
      2 O           2.3014   -2.3096   -4.0827 O.3     1  UNL1       -0.4537
      3 C           1.6218   -2.1484   -2.9179 C.2     1  UNL1        0.4008
      4 O           0.9847   -3.1447   -2.4487 O.2     1  UNL1       -0.2265
      5 N           1.5834   -0.9113   -2.1818 N.am    1  UNL1       -0.2648
      6 C           0.8216   -0.8162   -0.9331 C.3     1  UNL1        0.1544
      7 C           1.4187    0.1185    0.0483 C.3     1  UNL1        0.0044
      8 C           2.7895   -0.1921    0.4733 C.ar    1  UNL1       -0.0447
      9 C           3.0477   -1.0140    1.5433 C.ar    1  UNL1       -0.0551
     10 C           4.3595   -1.2749    1.9345 C.ar    1  UNL1       -0.0194
     11 C           5.4084   -0.7233    1.2661 C.ar    1  UNL1        0.1420
     12 N           6.7885   -0.9232    1.6281 N.pl3   1  UNL1       -0.0734
     13 C           7.1157   -0.7135    2.8490 C.cat   1  UNL1        0.3821
     14 N           8.4419   -0.8834    3.3050 N.pl3   1  UNL1       -0.2889
     15 N           6.1190   -0.2807    3.7636 N.pl3   1  UNL1       -0.2889
     16 C           5.1253    0.1084    0.1811 C.ar    1  UNL1       -0.0194
     17 C           3.8457    0.3787   -0.2194 C.ar    1  UNL1       -0.0551
     18 P          -0.8344   -0.1985   -1.4523 P.3     1  UNL1        0.4540
     19 O          -0.7083    0.6651   -2.6812 O.2     1  UNL1       -0.2304
     20 O          -1.7960   -1.5569   -1.7959 O.3     1  UNL1       -0.4144
     21 C          -2.7178   -2.0939   -0.9102 C.ar    1  UNL1        0.1310
     22 C          -2.5772   -2.0372    0.4584 C.ar    1  UNL1       -0.0177
     23 C          -3.5261   -2.5884    1.2870 C.ar    1  UNL1       -0.0370
     24 C          -4.6713   -3.2295    0.8074 C.ar    1  UNL1        0.0336
     25 N          -5.5573   -3.7332    1.7883 N.am    1  UNL1       -0.2857
     26 C          -6.7586   -4.4356    1.5439 C.2     1  UNL1        0.2141
     27 C          -7.6148   -4.9138    2.7073 C.3     1  UNL1        0.0125
     28 O          -7.1283   -4.6709    0.3777 O.2     1  UNL1       -0.2758
     29 C          -4.8060   -3.2849   -0.5377 C.ar    1  UNL1       -0.0370
     30 C          -3.8495   -2.7286   -1.3895 C.ar    1  UNL1       -0.0177
     31 O          -1.5698    0.7370   -0.2330 O.3     1  UNL1       -0.4144
     32 C          -1.6163    2.1262   -0.2737 C.ar    1  UNL1        0.1310
     33 C          -1.1960    2.9139    0.7812 C.ar    1  UNL1       -0.0177
     34 C          -1.2543    4.3035    0.7153 C.ar    1  UNL1       -0.0370
     35 C          -1.7354    4.9038   -0.4171 C.ar    1  UNL1        0.0336
     36 N          -1.8156    6.3300   -0.5188 N.am    1  UNL1       -0.2857
     37 C          -0.7150    7.0644   -1.0126 C.2     1  UNL1        0.2141
     38 C          -0.7059    8.5509   -1.1594 C.3     1  UNL1        0.0125
     39 O           0.3371    6.4628   -1.3642 O.2     1  UNL1       -0.2758
     40 C          -2.1596    4.1448   -1.4817 C.ar    1  UNL1       -0.0370
     41 C          -2.0955    2.7578   -1.3992 C.ar    1  UNL1       -0.0177
     42 H           3.4314   -3.7093   -5.1995 H       1  UNL1        0.0661
     43 H           1.8893   -4.3474   -4.4242 H       1  UNL1        0.0661
     44 H           1.8489   -3.2356   -5.8238 H       1  UNL1        0.0661
     45 H           2.1169   -0.1132   -2.5687 H       1  UNL1        0.1530
     46 H           0.6455   -1.8072   -0.5500 H       1  UNL1        0.0652
     47 H           1.4211    1.1510   -0.4122 H       1  UNL1        0.0338
     48 H           0.7254    0.2206    0.9175 H       1  UNL1        0.0338
     49 H           2.2224   -1.4739    2.0944 H       1  UNL1        0.0621
     50 H           4.5602   -1.9244    2.7739 H       1  UNL1        0.0653
     51 H           9.2496   -0.3716    2.8391 H       1  UNL1        0.2547
     52 H           8.6272   -1.5146    4.1044 H       1  UNL1        0.2547
     53 H           5.3674    0.4013    3.4508 H       1  UNL1        0.2547
     54 H           6.1010   -0.6247    4.7518 H       1  UNL1        0.2547
     55 H           5.9698    0.5330   -0.3285 H       1  UNL1        0.0653
     56 H           3.6565    1.0386   -1.0745 H       1  UNL1        0.0621
     57 H          -1.6988   -1.5459    0.8451 H       1  UNL1        0.0655
     58 H          -3.3445   -2.5002    2.3584 H       1  UNL1        0.0637
     59 H          -5.3439   -3.5968    2.8303 H       1  UNL1        0.1548
     60 H          -7.0526   -4.7801    3.6289 H       1  UNL1        0.0323
     61 H          -7.7478   -5.9966    2.5499 H       1  UNL1        0.0323
     62 H          -8.5740   -4.3705    2.7177 H       1  UNL1        0.0323
     63 H          -5.6646   -3.7595   -0.9750 H       1  UNL1        0.0637
     64 H          -3.9645   -2.7791   -2.4614 H       1  UNL1        0.0655
     65 H          -0.8268    2.4247    1.6475 H       1  UNL1        0.0655
     66 H          -0.9236    4.9172    1.5419 H       1  UNL1        0.0637
     67 H          -2.6874    6.8538   -0.2305 H       1  UNL1        0.1548
     68 H          -0.2348    9.0273   -0.2788 H       1  UNL1        0.0323
     69 H          -0.1265    8.7872   -2.0665 H       1  UNL1        0.0323
     70 H          -1.7606    8.9337   -1.2189 H       1  UNL1        0.0323
     71 H          -2.5377    4.6548   -2.3651 H       1  UNL1        0.0637
     72 H          -2.4367    2.2189   -2.2520 H       1  UNL1        0.0655
@<TRIPOS>BOND
     1     1     2    1
     2     2     3    1
     3     3     4    2
     4     3     5   am
     5     5     6    1
     6     6     7    1
     7     7     8    1
     8     8     9   ar
     9     9    10   ar
    10    10    11   ar
    11    11    12    1
    12    12    13    2
    13    13    14    1
    14    13    15    1
    15    11    16   ar
    16    16    17   ar
    17     6    18    1
    18    18    19    2
    19    18    20    1
    20    20    21    1
    21    21    22   ar
    22    22    23   ar
    23    23    24   ar
    24    24    25    1
    25    25    26   am
    26    26    27    1
    27    26    28    2
    28    24    29   ar
    29    29    30   ar
    30    18    31    1
    31    31    32    1
    32    32    33   ar
    33    33    34   ar
    34    34    35   ar
    35    35    36    1
    36    36    37   am
    37    37    38    1
    38    37    39    2
    39    35    40   ar
    40    40    41   ar
    41    17     8   ar
    42    30    21   ar
    43    41    32   ar
    44     1    42    1
    45     1    43    1
    46     1    44    1
    47     5    45    1
    48     6    46    1
    49     7    47    1
    50     7    48    1
    51     9    49    1
    52    10    50    1
    53    14    51    1
    54    14    52    1
    55    15    53    1
    56    15    54    1
    57    16    55    1
    58    17    56    1
    59    22    57    1
    60    23    58    1
    61    25    59    1
    62    27    60    1
    63    27    61    1
    64    27    62    1
    65    29    63    1
    66    30    64    1
    67    33    65    1
    68    34    66    1
    69    36    67    1
    70    38    68    1
    71    38    69    1
    72    38    70    1
    73    40    71    1
    74    41    72    1
