@<TRIPOS>MOLECULE
*****
 35 36 0 0 0
SMALL
GASTEIGER

@<TRIPOS>ATOM
      1 C          -3.7063    3.3134    1.0719 C.3     1  UNL1        0.0789
      2 O          -2.8163    2.2747    0.7029 O.3     1  UNL1       -0.4933
      3 C          -3.2373    1.1701   -0.0243 C.ar    1  UNL1        0.1415
      4 C          -4.5578    1.0906   -0.3927 C.ar    1  UNL1       -0.0147
      5 C          -5.0678    0.0221   -1.1215 C.ar    1  UNL1       -0.0166
      6 C          -4.2386   -1.0053   -1.4990 C.ar    1  UNL1        0.1189
      7 O          -4.7307   -2.0800   -2.2269 O.3     1  UNL1       -0.5067
      8 C          -2.9113   -0.9363   -1.1351 C.ar    1  UNL1        0.0047
      9 C          -2.4354    0.1329   -0.4141 C.ar    1  UNL1        0.0802
     10 N          -1.0718    0.2180   -0.0318 N.am    1  UNL1       -0.2659
     11 C           0.1195   -0.5545   -0.1783 C.2     1  UNL1        0.3105
     12 O          -0.0925   -1.6317   -0.8414 O.2     1  UNL1       -0.2521
     13 N           1.4241   -0.1955    0.3444 N.am    1  UNL1       -0.2359
     14 C           2.4206   -1.1870    0.0239 C.2     1  UNL1        0.2529
     15 O           2.1989   -2.2509   -0.6338 O.2     1  UNL1       -0.2697
     16 C           3.7774   -0.9416    0.4930 C.ar    1  UNL1        0.0556
     17 C           4.4330   -1.8095    1.3679 C.ar    1  UNL1       -0.0455
     18 C           5.7037   -1.5476    1.7837 C.ar    1  UNL1       -0.0256
     19 C           6.3381   -0.4049    1.3248 C.ar    1  UNL1        0.1248
     20 F           7.5994   -0.1505    1.7409 F       1  UNL1       -0.2054
     21 C           5.6931    0.4681    0.4512 C.ar    1  UNL1       -0.0074
     22 C           4.3969    0.1968    0.0299 C.ar    1  UNL1        0.0558
     23 CL          3.6284    1.3227   -1.0679 Cl      1  UNL1       -0.0827
     24 H          -4.5594    2.8866    1.6104 H       1  UNL1        0.0660
     25 H          -3.2125    4.0296    1.7397 H       1  UNL1        0.0660
     26 H          -4.0517    3.8625    0.1702 H       1  UNL1        0.0660
     27 H          -5.2227    1.8893   -0.1043 H       1  UNL1        0.0656
     28 H          -6.0993   -0.0104   -1.3921 H       1  UNL1        0.0655
     29 H          -4.1045   -2.8211   -2.4978 H       1  UNL1        0.2921
     30 H          -2.3035   -1.7606   -1.4527 H       1  UNL1        0.0674
     31 H          -0.7122    1.0399    0.5212 H       1  UNL1        0.1565
     32 H           1.1655   -1.0177   -0.1856 H       1  UNL1        0.1594
     33 H           3.8980   -2.7031    1.7092 H       1  UNL1        0.0626
     34 H           6.1524   -2.2708    2.4675 H       1  UNL1        0.0646
     35 H           6.1827    1.3620    0.0894 H       1  UNL1        0.0661
@<TRIPOS>BOND
     1     1     2    1
     2     2     3    1
     3     3     4   ar
     4     4     5   ar
     5     5     6   ar
     6     6     7    1
     7     6     8   ar
     8     8     9   ar
     9     9    10    1
    10    10    11   am
    11    11    12    2
    12    11    13   am
    13    13    14   am
    14    14    15    2
    15    14    16    1
    16    16    17   ar
    17    17    18   ar
    18    18    19   ar
    19    19    20    1
    20    19    21   ar
    21    21    22   ar
    22    22    23    1
    23     9     3   ar
    24    22    16   ar
    25     1    24    1
    26     1    25    1
    27     1    26    1
    28     4    27    1
    29     5    28    1
    30     7    29    1
    31     8    30    1
    32    10    31    1
    33    13    32    1
    34    17    33    1
    35    18    34    1
    36    21    35    1
