
     RDKit          3D

 35 36  0  0  0  0  0  0  0  0999 V2000
   -3.7063    3.3134    1.0719 C   0  0  0  0  0  0  0  0  0  0  0  0
   -2.8163    2.2747    0.7029 O   0  0  0  0  0  0  0  0  0  0  0  0
   -3.2373    1.1701   -0.0243 C   0  0  0  0  0  0  0  0  0  0  0  0
   -4.5578    1.0906   -0.3927 C   0  0  0  0  0  0  0  0  0  0  0  0
   -5.0678    0.0221   -1.1215 C   0  0  0  0  0  0  0  0  0  0  0  0
   -4.2386   -1.0053   -1.4990 C   0  0  0  0  0  0  0  0  0  0  0  0
   -4.7307   -2.0800   -2.2269 O   0  0  0  0  0  0  0  0  0  0  0  0
   -2.9113   -0.9363   -1.1351 C   0  0  0  0  0  0  0  0  0  0  0  0
   -2.4354    0.1329   -0.4141 C   0  0  0  0  0  0  0  0  0  0  0  0
   -1.0718    0.2180   -0.0318 N   0  0  0  0  0  0  0  0  0  0  0  0
    0.1195   -0.5545   -0.1783 C   0  0  0  0  0  0  0  0  0  0  0  0
   -0.0925   -1.6317   -0.8414 O   0  0  0  0  0  0  0  0  0  0  0  0
    1.4241   -0.1955    0.3444 N   0  0  0  0  0  0  0  0  0  0  0  0
    2.4206   -1.1870    0.0239 C   0  0  0  0  0  0  0  0  0  0  0  0
    2.1989   -2.2509   -0.6338 O   0  0  0  0  0  0  0  0  0  0  0  0
    3.7774   -0.9416    0.4930 C   0  0  0  0  0  0  0  0  0  0  0  0
    4.4330   -1.8095    1.3679 C   0  0  0  0  0  0  0  0  0  0  0  0
    5.7037   -1.5476    1.7837 C   0  0  0  0  0  0  0  0  0  0  0  0
    6.3381   -0.4049    1.3248 C   0  0  0  0  0  0  0  0  0  0  0  0
    7.5994   -0.1505    1.7409 F   0  0  0  0  0  0  0  0  0  0  0  0
    5.6931    0.4681    0.4512 C   0  0  0  0  0  0  0  0  0  0  0  0
    4.3969    0.1968    0.0299 C   0  0  0  0  0  0  0  0  0  0  0  0
    3.6284    1.3227   -1.0679 Cl  0  0  0  0  0  0  0  0  0  0  0  0
   -4.5594    2.8866    1.6104 H   0  0  0  0  0  0  0  0  0  0  0  0
   -3.2125    4.0296    1.7397 H   0  0  0  0  0  0  0  0  0  0  0  0
   -4.0517    3.8625    0.1702 H   0  0  0  0  0  0  0  0  0  0  0  0
   -5.2227    1.8893   -0.1043 H   0  0  0  0  0  0  0  0  0  0  0  0
   -6.0993   -0.0104   -1.3921 H   0  0  0  0  0  0  0  0  0  0  0  0
   -4.1045   -2.8211   -2.4978 H   0  0  0  0  0  0  0  0  0  0  0  0
   -2.3035   -1.7606   -1.4527 H   0  0  0  0  0  0  0  0  0  0  0  0
   -0.7122    1.0399    0.5212 H   0  0  0  0  0  0  0  0  0  0  0  0
    1.1655   -1.0177   -0.1856 H   0  0  0  0  0  0  0  0  0  0  0  0
    3.8980   -2.7031    1.7092 H   0  0  0  0  0  0  0  0  0  0  0  0
    6.1524   -2.2708    2.4675 H   0  0  0  0  0  0  0  0  0  0  0  0
    6.1827    1.3620    0.0894 H   0  0  0  0  0  0  0  0  0  0  0  0
  1  2  1  0
  2  3  1  0
  3  4  2  0
  4  5  1  0
  5  6  2  0
  6  7  1  0
  6  8  1  0
  8  9  2  0
  9 10  1  0
 10 11  1  0
 11 12  2  0
 11 13  1  0
 13 14  1  0
 14 15  2  0
 14 16  1  0
 16 17  2  0
 17 18  1  0
 18 19  2  0
 19 20  1  0
 19 21  1  0
 21 22  2  0
 22 23  1  0
  9  3  1  0
 22 16  1  0
  1 24  1  0
  1 25  1  0
  1 26  1  0
  4 27  1  0
  5 28  1  0
  7 29  1  0
  8 30  1  0
 10 31  1  0
 13 32  1  0
 17 33  1  0
 18 34  1  0
 21 35  1  0
M  END
$$$$
