@<TRIPOS>MOLECULE
*****
 47 50 0 0 0
SMALL
GASTEIGER

@<TRIPOS>ATOM
      1 O          -3.5819   -2.0663    1.8756 O.2     1  UNL1       -0.2675
      2 C          -3.1721   -1.1528    1.0969 C.ar    1  UNL1        0.2561
      3 N          -1.8524   -1.0686    0.8545 N.ar    1  UNL1       -0.2947
      4 C          -1.3306   -0.1268    0.0389 C.ar    1  UNL1        0.1985
      5 N           0.0765   -0.1214   -0.1354 N.pl3   1  UNL1       -0.2986
      6 C           0.7663   -0.5431   -1.3344 C.3     1  UNL1        0.0276
      7 C           2.2369   -0.6664   -1.0844 C.3     1  UNL1        0.0151
      8 N           2.5009   -1.3698    0.1433 N.3     1  UNL1       -0.2952
      9 C           3.8912   -1.7403    0.2817 C.3     1  UNL1        0.0242
     10 C           4.7822   -0.5514    0.2298 C.ar    1  UNL1       -0.0305
     11 C           5.2524   -0.0375   -0.9609 C.ar    1  UNL1       -0.0392
     12 C           6.0815    1.0631   -1.0205 C.ar    1  UNL1        0.0278
     13 N           6.4467    1.6567    0.1179 N.ar    1  UNL1       -0.2632
     14 C           6.0159    1.1917    1.2804 C.ar    1  UNL1        0.0278
     15 C           5.1825    0.0900    1.3790 C.ar    1  UNL1       -0.0392
     16 C           1.8957   -0.8282    1.3064 C.3     1  UNL1        0.0151
     17 C           0.9378    0.3205    0.9711 C.3     1  UNL1        0.0276
     18 N          -2.1777    0.7386   -0.5360 N.ar    1  UNL1       -0.2204
     19 C          -3.5245    0.6869   -0.3162 C.ar    1  UNL1        0.0531
     20 C          -4.0559   -0.2740    0.5183 C.ar    1  UNL1        0.0383
     21 C          -5.4820   -0.4271    0.8498 C.3     1  UNL1       -0.0208
     22 C          -6.3782    0.5936    0.2506 C.3     1  UNL1       -0.0485
     23 C          -5.6969    1.8614   -0.1908 C.3     1  UNL1       -0.0473
     24 C          -4.4423    1.6377   -0.9656 C.3     1  UNL1       -0.0098
     25 H          -1.1752   -1.7560    1.3056 H       1  UNL1        0.1716
     26 H           0.4067   -1.5316   -1.6849 H       1  UNL1        0.0477
     27 H           0.5587    0.1999   -2.1400 H       1  UNL1        0.0477
     28 H           2.7681    0.3137   -1.1149 H       1  UNL1        0.0442
     29 H           2.6583   -1.2756   -1.9174 H       1  UNL1        0.0442
     30 H           3.9969   -2.2043    1.2890 H       1  UNL1        0.0476
     31 H           4.1608   -2.5181   -0.4589 H       1  UNL1        0.0476
     32 H           4.9559   -0.5228   -1.8785 H       1  UNL1        0.0636
     33 H           6.3895    1.3862   -2.0114 H       1  UNL1        0.0829
     34 H           6.3189    1.6825    2.2171 H       1  UNL1        0.0829
     35 H           4.8772   -0.2294    2.3822 H       1  UNL1        0.0636
     36 H           2.5624   -0.4593    2.0738 H       1  UNL1        0.0442
     37 H           1.3025   -1.6654    1.7830 H       1  UNL1        0.0442
     38 H           0.3517    0.4756    1.8986 H       1  UNL1        0.0477
     39 H           1.5444    1.2031    0.7118 H       1  UNL1        0.0477
     40 H          -5.8207   -1.4361    0.5279 H       1  UNL1        0.0315
     41 H          -5.6166   -0.4558    1.9746 H       1  UNL1        0.0315
     42 H          -7.1205    0.9149    1.0390 H       1  UNL1        0.0269
     43 H          -7.0153    0.2026   -0.5698 H       1  UNL1        0.0269
     44 H          -6.4043    2.3933   -0.8822 H       1  UNL1        0.0269
     45 H          -5.4943    2.5646    0.6248 H       1  UNL1        0.0269
     46 H          -4.6691    1.2321   -1.9755 H       1  UNL1        0.0328
     47 H          -3.9081    2.6193   -1.0340 H       1  UNL1        0.0328
@<TRIPOS>BOND
     1     1     2    2
     2     2     3   ar
     3     3     4   ar
     4     4     5    1
     5     5     6    1
     6     6     7    1
     7     7     8    1
     8     8     9    1
     9     9    10    1
    10    10    11   ar
    11    11    12   ar
    12    12    13   ar
    13    13    14   ar
    14    14    15   ar
    15     8    16    1
    16    16    17    1
    17     4    18   ar
    18    18    19   ar
    19    19    20   ar
    20    20    21    1
    21    21    22    1
    22    22    23    1
    23    23    24    1
    24    20     2   ar
    25    17     5    1
    26    24    19    1
    27    15    10   ar
    28     3    25    1
    29     6    26    1
    30     6    27    1
    31     7    28    1
    32     7    29    1
    33     9    30    1
    34     9    31    1
    35    11    32    1
    36    12    33    1
    37    14    34    1
    38    15    35    1
    39    16    36    1
    40    16    37    1
    41    17    38    1
    42    17    39    1
    43    21    40    1
    44    21    41    1
    45    22    42    1
    46    22    43    1
    47    23    44    1
    48    23    45    1
    49    24    46    1
    50    24    47    1
