
     RDKit          3D

 47 50  0  0  0  0  0  0  0  0999 V2000
   -3.5819   -2.0663    1.8756 O   0  0  0  0  0  0  0  0  0  0  0  0
   -3.1721   -1.1528    1.0969 C   0  0  0  0  0  0  0  0  0  0  0  0
   -1.8524   -1.0686    0.8545 N   0  0  0  0  0  0  0  0  0  0  0  0
   -1.3306   -0.1268    0.0389 C   0  0  0  0  0  0  0  0  0  0  0  0
    0.0765   -0.1214   -0.1354 N   0  0  0  0  0  0  0  0  0  0  0  0
    0.7663   -0.5431   -1.3344 C   0  0  0  0  0  0  0  0  0  0  0  0
    2.2369   -0.6664   -1.0844 C   0  0  0  0  0  0  0  0  0  0  0  0
    2.5009   -1.3698    0.1433 N   0  0  0  0  0  0  0  0  0  0  0  0
    3.8912   -1.7403    0.2817 C   0  0  0  0  0  0  0  0  0  0  0  0
    4.7822   -0.5514    0.2298 C   0  0  0  0  0  0  0  0  0  0  0  0
    5.2524   -0.0375   -0.9609 C   0  0  0  0  0  0  0  0  0  0  0  0
    6.0815    1.0631   -1.0205 C   0  0  0  0  0  0  0  0  0  0  0  0
    6.4467    1.6567    0.1179 N   0  0  0  0  0  0  0  0  0  0  0  0
    6.0159    1.1917    1.2804 C   0  0  0  0  0  0  0  0  0  0  0  0
    5.1825    0.0900    1.3790 C   0  0  0  0  0  0  0  0  0  0  0  0
    1.8957   -0.8282    1.3064 C   0  0  0  0  0  0  0  0  0  0  0  0
    0.9378    0.3205    0.9711 C   0  0  0  0  0  0  0  0  0  0  0  0
   -2.1777    0.7386   -0.5360 N   0  0  0  0  0  0  0  0  0  0  0  0
   -3.5245    0.6869   -0.3162 C   0  0  0  0  0  0  0  0  0  0  0  0
   -4.0559   -0.2740    0.5183 C   0  0  0  0  0  0  0  0  0  0  0  0
   -5.4820   -0.4271    0.8498 C   0  0  0  0  0  0  0  0  0  0  0  0
   -6.3782    0.5936    0.2506 C   0  0  0  0  0  0  0  0  0  0  0  0
   -5.6969    1.8614   -0.1908 C   0  0  0  0  0  0  0  0  0  0  0  0
   -4.4423    1.6377   -0.9656 C   0  0  0  0  0  0  0  0  0  0  0  0
   -1.1752   -1.7560    1.3056 H   0  0  0  0  0  0  0  0  0  0  0  0
    0.4067   -1.5316   -1.6849 H   0  0  0  0  0  0  0  0  0  0  0  0
    0.5587    0.1999   -2.1400 H   0  0  0  0  0  0  0  0  0  0  0  0
    2.7681    0.3137   -1.1149 H   0  0  0  0  0  0  0  0  0  0  0  0
    2.6583   -1.2756   -1.9174 H   0  0  0  0  0  0  0  0  0  0  0  0
    3.9969   -2.2043    1.2890 H   0  0  0  0  0  0  0  0  0  0  0  0
    4.1608   -2.5181   -0.4589 H   0  0  0  0  0  0  0  0  0  0  0  0
    4.9559   -0.5228   -1.8785 H   0  0  0  0  0  0  0  0  0  0  0  0
    6.3895    1.3862   -2.0114 H   0  0  0  0  0  0  0  0  0  0  0  0
    6.3189    1.6825    2.2171 H   0  0  0  0  0  0  0  0  0  0  0  0
    4.8772   -0.2294    2.3822 H   0  0  0  0  0  0  0  0  0  0  0  0
    2.5624   -0.4593    2.0738 H   0  0  0  0  0  0  0  0  0  0  0  0
    1.3025   -1.6654    1.7830 H   0  0  0  0  0  0  0  0  0  0  0  0
    0.3517    0.4756    1.8986 H   0  0  0  0  0  0  0  0  0  0  0  0
    1.5444    1.2031    0.7118 H   0  0  0  0  0  0  0  0  0  0  0  0
   -5.8207   -1.4361    0.5279 H   0  0  0  0  0  0  0  0  0  0  0  0
   -5.6166   -0.4558    1.9746 H   0  0  0  0  0  0  0  0  0  0  0  0
   -7.1205    0.9149    1.0390 H   0  0  0  0  0  0  0  0  0  0  0  0
   -7.0153    0.2026   -0.5698 H   0  0  0  0  0  0  0  0  0  0  0  0
   -6.4043    2.3933   -0.8822 H   0  0  0  0  0  0  0  0  0  0  0  0
   -5.4943    2.5646    0.6248 H   0  0  0  0  0  0  0  0  0  0  0  0
   -4.6691    1.2321   -1.9755 H   0  0  0  0  0  0  0  0  0  0  0  0
   -3.9081    2.6193   -1.0340 H   0  0  0  0  0  0  0  0  0  0  0  0
  1  2  2  0
  2  3  1  0
  3  4  1  0
  4  5  1  0
  5  6  1  0
  6  7  1  0
  7  8  1  0
  8  9  1  0
  9 10  1  0
 10 11  2  0
 11 12  1  0
 12 13  2  0
 13 14  1  0
 14 15  2  0
  8 16  1  0
 16 17  1  0
  4 18  2  0
 18 19  1  0
 19 20  2  0
 20 21  1  0
 21 22  1  0
 22 23  1  0
 23 24  1  0
 20  2  1  0
 17  5  1  0
 24 19  1  0
 15 10  1  0
  3 25  1  0
  6 26  1  0
  6 27  1  0
  7 28  1  0
  7 29  1  0
  9 30  1  0
  9 31  1  0
 11 32  1  0
 12 33  1  0
 14 34  1  0
 15 35  1  0
 16 36  1  0
 16 37  1  0
 17 38  1  0
 17 39  1  0
 21 40  1  0
 21 41  1  0
 22 42  1  0
 22 43  1  0
 23 44  1  0
 23 45  1  0
 24 46  1  0
 24 47  1  0
M  END
$$$$
