
     RDKit          3D

 31 31  0  0  0  0  0  0  0  0999 V2000
    3.0081   -0.1136    1.1230 C   0  0  0  0  0  0  0  0  0  0  0  0
    2.3593   -0.9710    0.0654 C   0  0  0  0  0  0  0  0  0  0  0  0
    1.8881   -0.1815   -1.1133 C   0  0  0  0  0  0  0  0  0  0  0  0
    0.8549    0.8354   -0.8831 C   0  0  0  0  0  0  0  0  0  0  0  0
   -0.4791    0.4650   -0.3930 C   0  0  0  0  0  0  0  0  0  0  0  0
   -1.2959    1.7927   -0.3106 C   0  0  0  0  0  0  0  0  0  0  0  0
   -2.6762    1.4952    0.1844 C   0  0  0  0  0  0  0  0  0  0  0  0
   -1.2238   -0.4826   -1.2266 C   0  0  0  0  0  0  0  0  0  0  0  0
   -1.2472   -0.0467   -2.4199 O   0  0  0  0  0  0  0  0  0  0  0  0
   -1.8434   -1.7035   -0.8359 N   0  0  0  0  0  0  0  0  0  0  0  0
   -1.7466   -2.0259    0.5272 C   0  0  0  0  0  0  0  0  0  0  0  0
   -2.3019   -3.1180    0.8709 O   0  0  0  0  0  0  0  0  0  0  0  0
   -1.0646   -1.1782    1.4736 N   0  0  0  0  0  0  0  0  0  0  0  0
   -0.4530    0.0484    1.0282 C   0  0  0  0  0  0  0  0  0  0  0  0
    0.0549    0.6311    2.0159 O   0  0  0  0  0  0  0  0  0  0  0  0
    2.8685    0.9478    0.8421 H   0  0  0  0  0  0  0  0  0  0  0  0
    4.0971   -0.3879    1.1459 H   0  0  0  0  0  0  0  0  0  0  0  0
    2.6051   -0.3449    2.1464 H   0  0  0  0  0  0  0  0  0  0  0  0
    1.4678   -1.4726    0.5218 H   0  0  0  0  0  0  0  0  0  0  0  0
    3.0546   -1.7914   -0.2528 H   0  0  0  0  0  0  0  0  0  0  0  0
    1.6096   -0.9391   -1.8939 H   0  0  0  0  0  0  0  0  0  0  0  0
    2.8365    0.2737   -1.5576 H   0  0  0  0  0  0  0  0  0  0  0  0
    1.3248    1.6346   -0.2260 H   0  0  0  0  0  0  0  0  0  0  0  0
    0.7635    1.4074   -1.8723 H   0  0  0  0  0  0  0  0  0  0  0  0
   -0.7732    2.3823    0.4719 H   0  0  0  0  0  0  0  0  0  0  0  0
   -1.2344    2.3508   -1.2469 H   0  0  0  0  0  0  0  0  0  0  0  0
   -3.2906    2.4034    0.0188 H   0  0  0  0  0  0  0  0  0  0  0  0
   -3.1251    0.6298   -0.3534 H   0  0  0  0  0  0  0  0  0  0  0  0
   -2.6191    1.3177    1.2720 H   0  0  0  0  0  0  0  0  0  0  0  0
   -2.3300   -2.2925   -1.5553 H   0  0  0  0  0  0  0  0  0  0  0  0
   -1.0887   -1.5659    2.4328 H   0  0  0  0  0  0  0  0  0  0  0  0
  1  2  1  0
  2  3  1  0
  3  4  1  0
  4  5  1  0
  5  6  1  0
  6  7  1  0
  5  8  1  0
  8  9  2  0
  8 10  1  0
 10 11  1  0
 11 12  2  0
 11 13  1  0
 13 14  1  0
 14 15  2  0
 14  5  1  0
  1 16  1  0
  1 17  1  0
  1 18  1  0
  2 19  1  0
  2 20  1  0
  3 21  1  0
  3 22  1  0
  4 23  1  0
  4 24  1  0
  6 25  1  0
  6 26  1  0
  7 27  1  0
  7 28  1  0
  7 29  1  0
 10 30  1  0
 13 31  1  0
M  END
$$$$
