@<TRIPOS>MOLECULE
*****
 31 31 0 0 0
SMALL
GASTEIGER

@<TRIPOS>ATOM
      1 C           3.0081   -0.1136    1.1230 C.3     1  UNL1       -0.0653
      2 C           2.3593   -0.9710    0.0654 C.3     1  UNL1       -0.0559
      3 C           1.8881   -0.1815   -1.1133 C.3     1  UNL1       -0.0519
      4 C           0.8549    0.8354   -0.8831 C.3     1  UNL1       -0.0306
      5 C          -0.4791    0.4650   -0.3930 C.3     1  UNL1        0.1232
      6 C          -1.2959    1.7927   -0.3106 C.3     1  UNL1       -0.0334
      7 C          -2.6762    1.4952    0.1844 C.3     1  UNL1       -0.0639
      8 C          -1.2238   -0.4826   -1.2266 C.2     1  UNL1        0.2354
      9 O          -1.2472   -0.0467   -2.4199 O.2     1  UNL1       -0.2742
     10 N          -1.8434   -1.7035   -0.8359 N.am    1  UNL1       -0.2390
     11 C          -1.7466   -2.0259    0.5272 C.2     1  UNL1        0.3122
     12 O          -2.3019   -3.1180    0.8709 O.2     1  UNL1       -0.2520
     13 N          -1.0646   -1.1782    1.4736 N.am    1  UNL1       -0.2390
     14 C          -0.4530    0.0484    1.0282 C.2     1  UNL1        0.2354
     15 O           0.0549    0.6311    2.0159 O.2     1  UNL1       -0.2742
     16 H           2.8685    0.9478    0.8421 H       1  UNL1        0.0230
     17 H           4.0971   -0.3879    1.1459 H       1  UNL1        0.0230
     18 H           2.6051   -0.3449    2.1464 H       1  UNL1        0.0230
     19 H           1.4678   -1.4726    0.5218 H       1  UNL1        0.0263
     20 H           3.0546   -1.7914   -0.2528 H       1  UNL1        0.0263
     21 H           1.6096   -0.9391   -1.8939 H       1  UNL1        0.0266
     22 H           2.8365    0.2737   -1.5576 H       1  UNL1        0.0266
     23 H           1.3248    1.6346   -0.2260 H       1  UNL1        0.0280
     24 H           0.7635    1.4074   -1.8723 H       1  UNL1        0.0280
     25 H          -0.7732    2.3823    0.4719 H       1  UNL1        0.0277
     26 H          -1.2344    2.3508   -1.2469 H       1  UNL1        0.0277
     27 H          -3.2906    2.4034    0.0188 H       1  UNL1        0.0230
     28 H          -3.1251    0.6298   -0.3534 H       1  UNL1        0.0230
     29 H          -2.6191    1.3177    1.2720 H       1  UNL1        0.0230
     30 H          -2.3300   -2.2925   -1.5553 H       1  UNL1        0.1591
     31 H          -1.0887   -1.5659    2.4328 H       1  UNL1        0.1591
@<TRIPOS>BOND
     1     1     2    1
     2     2     3    1
     3     3     4    1
     4     4     5    1
     5     5     6    1
     6     6     7    1
     7     5     8    1
     8     8     9    2
     9     8    10   am
    10    10    11   am
    11    11    12    2
    12    11    13   am
    13    13    14   am
    14    14    15    2
    15    14     5    1
    16     1    16    1
    17     1    17    1
    18     1    18    1
    19     2    19    1
    20     2    20    1
    21     3    21    1
    22     3    22    1
    23     4    23    1
    24     4    24    1
    25     6    25    1
    26     6    26    1
    27     7    27    1
    28     7    28    1
    29     7    29    1
    30    10    30    1
    31    13    31    1
