@<TRIPOS>MOLECULE
*****
 47 49 0 0 0
SMALL
GASTEIGER

@<TRIPOS>ATOM
      1 N           5.3153   -1.8352   -2.8428 N.1     1  UNL1       -0.1908
      2 C           5.9396   -1.5162   -1.9323 C.1     1  UNL1        0.1011
      3 C           6.7169   -1.0918   -0.7697 C.ar    1  UNL1        0.0762
      4 C           8.0647   -0.8474   -0.8733 C.ar    1  UNL1        0.0453
      5 N           8.7919   -0.4481    0.1884 N.ar    1  UNL1       -0.2620
      6 C           8.2498   -0.2651    1.4054 C.ar    1  UNL1        0.0280
      7 C           6.8995   -0.5008    1.5467 C.ar    1  UNL1       -0.0360
      8 C           6.1420   -0.9098    0.4695 C.ar    1  UNL1        0.0099
      9 C           4.6902   -1.1730    0.6022 C.3     1  UNL1        0.1161
     10 O           4.0140   -0.0867    0.0024 O.3     1  UNL1       -0.4843
     11 C           2.6391   -0.0682   -0.0147 C.ar    1  UNL1        0.1571
     12 C           1.9888    0.9896   -0.6054 C.ar    1  UNL1        0.0743
     13 N           0.6457    0.9875   -0.6104 N.ar    1  UNL1       -0.2191
     14 C          -0.0583   -0.0253   -0.0506 C.ar    1  UNL1        0.2180
     15 N          -1.4685   -0.0776   -0.0396 N.pl3   1  UNL1       -0.2967
     16 C          -2.1290   -1.0997    0.7007 C.3     1  UNL1        0.0308
     17 C          -3.5561   -1.3248    0.3437 C.3     1  UNL1        0.0337
     18 N          -4.1816   -0.2093   -0.3326 N.am    1  UNL1       -0.2644
     19 C          -5.4791    0.2718    0.0481 C.2     1  UNL1        0.4032
     20 O          -6.0945   -0.2729    0.9925 O.2     1  UNL1       -0.2263
     21 O          -6.0736    1.3275   -0.6050 O.3     1  UNL1       -0.4412
     22 C          -7.3107    1.9027   -0.3516 C.3     1  UNL1        0.1886
     23 C          -7.4997    2.5241    0.9884 C.3     1  UNL1        0.4237
     24 F          -6.5979    3.5441    1.2322 F       1  UNL1       -0.1671
     25 F          -7.4463    1.6181    1.9912 F       1  UNL1       -0.1671
     26 F          -8.7877    3.0917    1.0132 F       1  UNL1       -0.1671
     27 C          -3.4380    0.4031   -1.4152 C.3     1  UNL1        0.0337
     28 C          -2.1592    0.9393   -0.8147 C.3     1  UNL1        0.0308
     29 N           0.6158   -1.0373    0.5151 N.ar    1  UNL1       -0.2191
     30 C           1.9506   -1.1088    0.5608 C.ar    1  UNL1        0.0743
     31 H           8.5303   -0.9882   -1.8540 H       1  UNL1        0.0843
     32 H           8.8814    0.0613    2.2406 H       1  UNL1        0.0829
     33 H           6.4664   -0.3514    2.5377 H       1  UNL1        0.0637
     34 H           4.4039   -2.1214    0.1051 H       1  UNL1        0.0748
     35 H           4.4215   -1.2995    1.6880 H       1  UNL1        0.0748
     36 H           2.5287    1.8243   -1.0680 H       1  UNL1        0.0869
     37 H          -2.0830   -0.8625    1.7891 H       1  UNL1        0.0480
     38 H          -1.5228   -2.0412    0.5859 H       1  UNL1        0.0480
     39 H          -4.1727   -1.6879    1.1988 H       1  UNL1        0.0481
     40 H          -3.5752   -2.1723   -0.4033 H       1  UNL1        0.0481
     41 H          -8.1441    1.1862   -0.5307 H       1  UNL1        0.0789
     42 H          -7.4581    2.7177   -1.1171 H       1  UNL1        0.0789
     43 H          -3.1915   -0.3677   -2.1484 H       1  UNL1        0.0481
     44 H          -4.0162    1.2438   -1.8384 H       1  UNL1        0.0481
     45 H          -1.5253    1.3014   -1.6461 H       1  UNL1        0.0480
     46 H          -2.3907    1.8006   -0.1615 H       1  UNL1        0.0480
     47 H           2.4639   -1.9446    1.0263 H       1  UNL1        0.0869
@<TRIPOS>BOND
     1     1     2    3
     2     2     3    1
     3     3     4   ar
     4     4     5   ar
     5     5     6   ar
     6     6     7   ar
     7     7     8   ar
     8     8     9    1
     9     9    10    1
    10    10    11    1
    11    11    12   ar
    12    12    13   ar
    13    13    14   ar
    14    14    15    1
    15    15    16    1
    16    16    17    1
    17    17    18    1
    18    18    19   am
    19    19    20    2
    20    19    21    1
    21    21    22    1
    22    22    23    1
    23    23    24    1
    24    23    25    1
    25    23    26    1
    26    18    27    1
    27    27    28    1
    28    14    29   ar
    29    29    30   ar
    30     8     3   ar
    31    30    11   ar
    32    28    15    1
    33     4    31    1
    34     6    32    1
    35     7    33    1
    36     9    34    1
    37     9    35    1
    38    12    36    1
    39    16    37    1
    40    16    38    1
    41    17    39    1
    42    17    40    1
    43    22    41    1
    44    22    42    1
    45    27    43    1
    46    27    44    1
    47    28    45    1
    48    28    46    1
    49    30    47    1
