@<TRIPOS>MOLECULE
*****
 55 59 0 0 0
SMALL
GASTEIGER

@<TRIPOS>ATOM
      1 O           0.5763   -0.2096    1.2212 O.2     1  UNL1       -0.2699
      2 C          -0.4685   -0.7792    0.8109 C.2     1  UNL1        0.2491
      3 C          -1.7552   -0.6224    1.4630 C.ar    1  UNL1        0.0645
      4 C          -2.0569   -1.5003    2.5255 C.ar    1  UNL1       -0.0475
      5 C          -3.2389   -1.4327    3.2210 C.ar    1  UNL1       -0.0604
      6 C          -4.1448   -0.4639    2.8473 C.ar    1  UNL1       -0.0480
      7 C          -3.9123    0.4182    1.8248 C.ar    1  UNL1        0.0826
      8 C          -4.8978    1.4640    1.4262 C.3     1  UNL1        0.4194
      9 F          -5.9877    1.3249    2.2670 F       1  UNL1       -0.1658
     10 F          -4.4034    2.7372    1.6276 F       1  UNL1       -0.1658
     11 F          -5.3641    1.2728    0.1455 F       1  UNL1       -0.1658
     12 C          -2.6895    0.3076    1.1451 C.ar    1  UNL1        0.1098
     13 N          -2.4893    1.2280    0.0819 N.ar    1  UNL1       -0.1490
     14 N          -2.8711    1.1276   -1.1780 N.ar    1  UNL1       -0.1556
     15 C          -2.5242    2.2229   -1.8719 C.ar    1  UNL1        0.0697
     16 C          -1.8910    3.0449   -0.9857 C.ar    1  UNL1        0.0697
     17 N          -1.8929    2.3975    0.1909 N.ar    1  UNL1       -0.1556
     18 N          -0.3694   -1.6123   -0.3337 N.am    1  UNL1       -0.2897
     19 C          -1.6303   -2.2205   -0.8205 C.3     1  UNL1        0.0388
     20 C          -1.5210   -3.7269   -0.7100 C.3     1  UNL1        0.0635
     21 O          -0.2656   -4.1775   -1.1085 O.3     1  UNL1       -0.3764
     22 C           0.4176   -3.2459   -1.8632 C.3     1  UNL1        0.0666
     23 C           0.7915   -1.9936   -1.0426 C.3     1  UNL1        0.0537
     24 C           1.4207   -1.0565   -2.0007 C.3     1  UNL1       -0.0068
     25 C           1.9055    0.2208   -1.4432 C.ar    1  UNL1       -0.0435
     26 C           1.1379    1.3639   -1.4872 C.ar    1  UNL1       -0.0584
     27 C           1.5714    2.5687   -0.9710 C.ar    1  UNL1       -0.0594
     28 C           2.8360    2.6256   -0.3832 C.ar    1  UNL1       -0.0345
     29 C           3.6293    1.5020   -0.3223 C.ar    1  UNL1        0.0864
     30 N           4.9186    1.5496    0.2742 N.ar    1  UNL1       -0.1503
     31 N           6.0404    1.4223   -0.4356 N.ar    1  UNL1       -0.1556
     32 C           7.0940    1.5049    0.3702 C.ar    1  UNL1        0.0697
     33 C           6.6063    1.6930    1.6460 C.ar    1  UNL1        0.0697
     34 N           5.2467    1.7165    1.5533 N.ar    1  UNL1       -0.1556
     35 C           3.1722    0.3137   -0.8449 C.ar    1  UNL1       -0.0313
     36 H          -1.3133   -2.2545    2.7917 H       1  UNL1        0.0626
     37 H          -3.4683   -2.1144    4.0430 H       1  UNL1        0.0618
     38 H          -5.0954   -0.3977    3.3951 H       1  UNL1        0.0624
     39 H          -2.6907    2.4505   -2.9159 H       1  UNL1        0.0864
     40 H          -1.4527    4.0233   -1.1211 H       1  UNL1        0.0864
     41 H          -1.7477   -1.9697   -1.8874 H       1  UNL1        0.0487
     42 H          -2.4926   -1.9105   -0.2081 H       1  UNL1        0.0487
     43 H          -2.2821   -4.1649   -1.3766 H       1  UNL1        0.0575
     44 H          -1.6940   -4.0989    0.3068 H       1  UNL1        0.0575
     45 H           1.3611   -3.7229   -2.2009 H       1  UNL1        0.0578
     46 H          -0.1845   -2.9530   -2.7437 H       1  UNL1        0.0578
     47 H           1.5705   -2.3988   -0.3034 H       1  UNL1        0.0526
     48 H           2.3220   -1.5217   -2.5142 H       1  UNL1        0.0332
     49 H           0.7486   -0.8488   -2.8942 H       1  UNL1        0.0332
     50 H           0.1623    1.2614   -1.9606 H       1  UNL1        0.0620
     51 H           0.9470    3.4653   -1.0188 H       1  UNL1        0.0618
     52 H           3.1984    3.5409    0.0240 H       1  UNL1        0.0639
     53 H           8.1260    1.4351    0.0619 H       1  UNL1        0.0864
     54 H           7.2245    1.7973    2.5255 H       1  UNL1        0.0864
     55 H           3.7702   -0.6036   -0.8177 H       1  UNL1        0.0642
@<TRIPOS>BOND
     1     1     2    2
     2     2     3    1
     3     3     4   ar
     4     4     5   ar
     5     5     6   ar
     6     6     7   ar
     7     7     8    1
     8     8     9    1
     9     8    10    1
    10     8    11    1
    11     7    12   ar
    12    12    13    1
    13    13    14   ar
    14    14    15   ar
    15    15    16   ar
    16    16    17   ar
    17     2    18   am
    18    18    19    1
    19    19    20    1
    20    20    21    1
    21    21    22    1
    22    22    23    1
    23    23    24    1
    24    24    25    1
    25    25    26   ar
    26    26    27   ar
    27    27    28   ar
    28    28    29   ar
    29    29    30    1
    30    30    31   ar
    31    31    32   ar
    32    32    33   ar
    33    33    34   ar
    34    29    35   ar
    35    12     3   ar
    36    17    13   ar
    37    23    18    1
    38    35    25   ar
    39    34    30   ar
    40     4    36    1
    41     5    37    1
    42     6    38    1
    43    15    39    1
    44    16    40    1
    45    19    41    1
    46    19    42    1
    47    20    43    1
    48    20    44    1
    49    22    45    1
    50    22    46    1
    51    23    47    1
    52    24    48    1
    53    24    49    1
    54    26    50    1
    55    27    51    1
    56    28    52    1
    57    32    53    1
    58    33    54    1
    59    35    55    1
