
     RDKit          3D

 55 59  0  0  0  0  0  0  0  0999 V2000
    0.5763   -0.2096    1.2212 O   0  0  0  0  0  0  0  0  0  0  0  0
   -0.4685   -0.7792    0.8109 C   0  0  0  0  0  0  0  0  0  0  0  0
   -1.7552   -0.6224    1.4630 C   0  0  0  0  0  0  0  0  0  0  0  0
   -2.0569   -1.5003    2.5255 C   0  0  0  0  0  0  0  0  0  0  0  0
   -3.2389   -1.4327    3.2210 C   0  0  0  0  0  0  0  0  0  0  0  0
   -4.1448   -0.4639    2.8473 C   0  0  0  0  0  0  0  0  0  0  0  0
   -3.9123    0.4182    1.8248 C   0  0  0  0  0  0  0  0  0  0  0  0
   -4.8978    1.4640    1.4262 C   0  0  0  0  0  0  0  0  0  0  0  0
   -5.9877    1.3249    2.2670 F   0  0  0  0  0  0  0  0  0  0  0  0
   -4.4034    2.7372    1.6276 F   0  0  0  0  0  0  0  0  0  0  0  0
   -5.3641    1.2728    0.1455 F   0  0  0  0  0  0  0  0  0  0  0  0
   -2.6895    0.3076    1.1451 C   0  0  0  0  0  0  0  0  0  0  0  0
   -2.4893    1.2280    0.0819 N   0  0  0  0  0  0  0  0  0  0  0  0
   -2.8711    1.1276   -1.1780 N   0  0  0  0  0  0  0  0  0  0  0  0
   -2.5242    2.2229   -1.8719 C   0  0  0  0  0  0  0  0  0  0  0  0
   -1.8910    3.0449   -0.9857 C   0  0  0  0  0  0  0  0  0  0  0  0
   -1.8929    2.3975    0.1909 N   0  0  0  0  0  0  0  0  0  0  0  0
   -0.3694   -1.6123   -0.3337 N   0  0  0  0  0  0  0  0  0  0  0  0
   -1.6303   -2.2205   -0.8205 C   0  0  0  0  0  0  0  0  0  0  0  0
   -1.5210   -3.7269   -0.7100 C   0  0  0  0  0  0  0  0  0  0  0  0
   -0.2656   -4.1775   -1.1085 O   0  0  0  0  0  0  0  0  0  0  0  0
    0.4176   -3.2459   -1.8632 C   0  0  0  0  0  0  0  0  0  0  0  0
    0.7915   -1.9936   -1.0426 C   0  0  1  0  0  0  0  0  0  0  0  0
    1.4207   -1.0565   -2.0007 C   0  0  0  0  0  0  0  0  0  0  0  0
    1.9055    0.2208   -1.4432 C   0  0  0  0  0  0  0  0  0  0  0  0
    1.1379    1.3639   -1.4872 C   0  0  0  0  0  0  0  0  0  0  0  0
    1.5714    2.5687   -0.9710 C   0  0  0  0  0  0  0  0  0  0  0  0
    2.8360    2.6256   -0.3832 C   0  0  0  0  0  0  0  0  0  0  0  0
    3.6293    1.5020   -0.3223 C   0  0  0  0  0  0  0  0  0  0  0  0
    4.9186    1.5496    0.2742 N   0  0  0  0  0  0  0  0  0  0  0  0
    6.0404    1.4223   -0.4356 N   0  0  0  0  0  0  0  0  0  0  0  0
    7.0940    1.5049    0.3702 C   0  0  0  0  0  0  0  0  0  0  0  0
    6.6063    1.6930    1.6460 C   0  0  0  0  0  0  0  0  0  0  0  0
    5.2467    1.7165    1.5533 N   0  0  0  0  0  0  0  0  0  0  0  0
    3.1722    0.3137   -0.8449 C   0  0  0  0  0  0  0  0  0  0  0  0
   -1.3133   -2.2545    2.7917 H   0  0  0  0  0  0  0  0  0  0  0  0
   -3.4683   -2.1144    4.0430 H   0  0  0  0  0  0  0  0  0  0  0  0
   -5.0954   -0.3977    3.3951 H   0  0  0  0  0  0  0  0  0  0  0  0
   -2.6907    2.4505   -2.9159 H   0  0  0  0  0  0  0  0  0  0  0  0
   -1.4527    4.0233   -1.1211 H   0  0  0  0  0  0  0  0  0  0  0  0
   -1.7477   -1.9697   -1.8874 H   0  0  0  0  0  0  0  0  0  0  0  0
   -2.4926   -1.9105   -0.2081 H   0  0  0  0  0  0  0  0  0  0  0  0
   -2.2821   -4.1649   -1.3766 H   0  0  0  0  0  0  0  0  0  0  0  0
   -1.6940   -4.0989    0.3068 H   0  0  0  0  0  0  0  0  0  0  0  0
    1.3611   -3.7229   -2.2009 H   0  0  0  0  0  0  0  0  0  0  0  0
   -0.1845   -2.9530   -2.7437 H   0  0  0  0  0  0  0  0  0  0  0  0
    1.5705   -2.3988   -0.3034 H   0  0  0  0  0  0  0  0  0  0  0  0
    2.3220   -1.5217   -2.5142 H   0  0  0  0  0  0  0  0  0  0  0  0
    0.7486   -0.8488   -2.8942 H   0  0  0  0  0  0  0  0  0  0  0  0
    0.1623    1.2614   -1.9606 H   0  0  0  0  0  0  0  0  0  0  0  0
    0.9470    3.4653   -1.0188 H   0  0  0  0  0  0  0  0  0  0  0  0
    3.1984    3.5409    0.0240 H   0  0  0  0  0  0  0  0  0  0  0  0
    8.1260    1.4351    0.0619 H   0  0  0  0  0  0  0  0  0  0  0  0
    7.2245    1.7973    2.5255 H   0  0  0  0  0  0  0  0  0  0  0  0
    3.7702   -0.6036   -0.8177 H   0  0  0  0  0  0  0  0  0  0  0  0
  1  2  2  0
  2  3  1  0
  3  4  2  0
  4  5  1  0
  5  6  2  0
  6  7  1  0
  7  8  1  0
  8  9  1  0
  8 10  1  0
  8 11  1  0
  7 12  2  0
 12 13  1  0
 13 14  1  0
 14 15  2  0
 15 16  1  0
 16 17  2  0
  2 18  1  0
 18 19  1  0
 19 20  1  0
 20 21  1  0
 21 22  1  0
 22 23  1  0
 23 24  1  0
 24 25  1  0
 25 26  2  0
 26 27  1  0
 27 28  2  0
 28 29  1  0
 29 30  1  0
 30 31  1  0
 31 32  2  0
 32 33  1  0
 33 34  2  0
 29 35  2  0
 12  3  1  0
 17 13  1  0
 23 18  1  0
 35 25  1  0
 34 30  1  0
  4 36  1  0
  5 37  1  0
  6 38  1  0
 15 39  1  0
 16 40  1  0
 19 41  1  0
 19 42  1  0
 20 43  1  0
 20 44  1  0
 22 45  1  0
 22 46  1  0
 23 47  1  1
 24 48  1  0
 24 49  1  0
 26 50  1  0
 27 51  1  0
 28 52  1  0
 32 53  1  0
 33 54  1  0
 35 55  1  0
M  END
$$$$
