
     RDKit          3D

 65 66  0  0  0  0  0  0  0  0999 V2000
   -0.0129    3.3535   -1.1849 C   0  0  0  0  0  0  0  0  0  0  0  0
   -0.7430    2.2185   -0.4336 C   0  0  0  0  0  0  0  0  0  0  0  0
   -0.8367    1.0843   -1.3827 C   0  0  0  0  0  0  0  0  0  0  0  0
   -1.5139   -0.1511   -0.9360 C   0  0  2  0  0  0  0  0  0  0  0  0
   -2.9797    0.0951   -0.5322 C   0  0  0  0  0  0  0  0  0  0  0  0
   -3.7465   -1.1696   -0.6790 C   0  0  2  0  0  0  0  0  0  0  0  0
   -4.8638   -1.3718    0.1558 N   0  0  0  0  0  0  0  0  0  0  0  0
   -5.4870   -2.6440   -0.1590 C   0  0  0  0  0  0  0  0  0  0  0  0
   -5.8658   -0.3781    0.2337 C   0  0  0  0  0  0  0  0  0  0  0  0
   -5.4484    0.9398    0.8425 C   0  0  0  0  0  0  0  0  0  0  0  0
   -6.9727   -0.9245    1.1474 C   0  0  0  0  0  0  0  0  0  0  0  0
   -2.7907   -2.3506   -0.4446 C   0  0  0  0  0  0  0  0  0  0  0  0
   -1.7912   -1.9976    0.6241 C   0  0  0  0  0  0  0  0  0  0  0  0
   -0.7970   -1.0163    0.0483 C   0  0  2  0  0  0  0  0  0  0  0  0
   -0.0510   -0.3340    1.0532 N   0  0  0  0  0  0  0  0  0  0  0  0
    1.3584   -0.3656    1.1026 C   0  0  0  0  0  0  0  0  0  0  0  0
    1.9699   -1.0107    0.2384 O   0  0  0  0  0  0  0  0  0  0  0  0
    2.1199    0.3462    2.1514 C   0  0  0  0  0  0  0  0  0  0  0  0
    3.5510    0.1477    1.9639 N   0  0  0  0  0  0  0  0  0  0  0  0
    4.2192    0.5550    0.7848 C   0  0  0  0  0  0  0  0  0  0  0  0
    3.5435    1.1037   -0.1191 O   0  0  0  0  0  0  0  0  0  0  0  0
    5.6489    0.3771    0.5527 C   0  0  0  0  0  0  0  0  0  0  0  0
    6.4353   -0.2321    1.5056 C   0  0  0  0  0  0  0  0  0  0  0  0
    7.8038   -0.4006    1.2831 C   0  0  0  0  0  0  0  0  0  0  0  0
    8.3676    0.0422    0.1107 C   0  0  0  0  0  0  0  0  0  0  0  0
    7.5686    0.6441   -0.8219 C   0  0  0  0  0  0  0  0  0  0  0  0
    8.2073    1.1146   -2.0842 C   0  0  0  0  0  0  0  0  0  0  0  0
    9.5863    1.0162   -2.0181 F   0  0  0  0  0  0  0  0  0  0  0  0
    7.8731    2.4437   -2.3265 F   0  0  0  0  0  0  0  0  0  0  0  0
    7.7911    0.3732   -3.1618 F   0  0  0  0  0  0  0  0  0  0  0  0
    6.2424    0.8141   -0.6201 C   0  0  0  0  0  0  0  0  0  0  0  0
    1.0865    3.1278   -1.2136 H   0  0  0  0  0  0  0  0  0  0  0  0
   -0.1299    4.2782   -0.5969 H   0  0  0  0  0  0  0  0  0  0  0  0
   -0.4508    3.4341   -2.1967 H   0  0  0  0  0  0  0  0  0  0  0  0
   -0.0968    2.0450    0.4487 H   0  0  0  0  0  0  0  0  0  0  0  0
   -1.6981    2.6113   -0.0649 H   0  0  0  0  0  0  0  0  0  0  0  0
   -1.3364    1.4038   -2.3437 H   0  0  0  0  0  0  0  0  0  0  0  0
    0.2173    0.8100   -1.6622 H   0  0  0  0  0  0  0  0  0  0  0  0
   -1.6446   -0.7695   -1.8955 H   0  0  0  0  0  0  0  0  0  0  0  0
   -3.3431    0.8177   -1.3166 H   0  0  0  0  0  0  0  0  0  0  0  0
   -2.9277    0.5156    0.4654 H   0  0  0  0  0  0  0  0  0  0  0  0
   -4.0687   -1.2927   -1.7385 H   0  0  0  0  0  0  0  0  0  0  0  0
   -5.1323   -3.0636   -1.1359 H   0  0  0  0  0  0  0  0  0  0  0  0
   -6.5946   -2.5143   -0.3313 H   0  0  0  0  0  0  0  0  0  0  0  0
   -5.2911   -3.4011    0.6120 H   0  0  0  0  0  0  0  0  0  0  0  0
   -6.3742   -0.1949   -0.7410 H   0  0  0  0  0  0  0  0  0  0  0  0
   -5.0070    1.6534    0.1390 H   0  0  0  0  0  0  0  0  0  0  0  0
   -4.8742    0.7927    1.7873 H   0  0  0  0  0  0  0  0  0  0  0  0
   -6.3862    1.4719    1.2073 H   0  0  0  0  0  0  0  0  0  0  0  0
   -7.8771   -1.2178    0.5732 H   0  0  0  0  0  0  0  0  0  0  0  0
   -7.3180   -0.1685    1.8820 H   0  0  0  0  0  0  0  0  0  0  0  0
   -6.5810   -1.7724    1.7652 H   0  0  0  0  0  0  0  0  0  0  0  0
   -3.4004   -3.2444   -0.1024 H   0  0  0  0  0  0  0  0  0  0  0  0
   -2.2497   -2.5927   -1.3782 H   0  0  0  0  0  0  0  0  0  0  0  0
   -1.2849   -2.9492    0.9278 H   0  0  0  0  0  0  0  0  0  0  0  0
   -2.3583   -1.5731    1.4769 H   0  0  0  0  0  0  0  0  0  0  0  0
   -0.0501   -1.6447   -0.5336 H   0  0  0  0  0  0  0  0  0  0  0  0
   -0.5611    0.1959    1.7849 H   0  0  0  0  0  0  0  0  0  0  0  0
    1.8487    0.0343    3.1707 H   0  0  0  0  0  0  0  0  0  0  0  0
    1.9179    1.4516    2.1101 H   0  0  0  0  0  0  0  0  0  0  0  0
    4.0777   -0.3068    2.7259 H   0  0  0  0  0  0  0  0  0  0  0  0
    6.0396   -0.6004    2.4487 H   0  0  0  0  0  0  0  0  0  0  0  0
    8.4426   -0.8793    2.0234 H   0  0  0  0  0  0  0  0  0  0  0  0
    9.4244   -0.0758   -0.0864 H   0  0  0  0  0  0  0  0  0  0  0  0
    5.5956    1.2959   -1.3639 H   0  0  0  0  0  0  0  0  0  0  0  0
  1  2  1  0
  2  3  1  0
  3  4  1  0
  4  5  1  0
  5  6  1  0
  6  7  1  0
  7  8  1  0
  7  9  1  0
  9 10  1  0
  9 11  1  0
  6 12  1  0
 12 13  1  0
 13 14  1  0
 14 15  1  0
 15 16  1  0
 16 17  2  0
 16 18  1  0
 18 19  1  0
 19 20  1  0
 20 21  2  0
 20 22  1  0
 22 23  2  0
 23 24  1  0
 24 25  2  0
 25 26  1  0
 26 27  1  0
 27 28  1  0
 27 29  1  0
 27 30  1  0
 26 31  2  0
 14  4  1  0
 31 22  1  0
  1 32  1  0
  1 33  1  0
  1 34  1  0
  2 35  1  0
  2 36  1  0
  3 37  1  0
  3 38  1  0
  4 39  1  6
  5 40  1  0
  5 41  1  0
  6 42  1  6
  8 43  1  0
  8 44  1  0
  8 45  1  0
  9 46  1  0
 10 47  1  0
 10 48  1  0
 10 49  1  0
 11 50  1  0
 11 51  1  0
 11 52  1  0
 12 53  1  0
 12 54  1  0
 13 55  1  0
 13 56  1  0
 14 57  1  6
 15 58  1  0
 18 59  1  0
 18 60  1  0
 19 61  1  0
 23 62  1  0
 24 63  1  0
 25 64  1  0
 31 65  1  0
M  END
$$$$
