@<TRIPOS>MOLECULE
*****
 65 66 0 0 0
SMALL
GASTEIGER

@<TRIPOS>ATOM
      1 C          -0.0129    3.3535   -1.1849 C.3     1  UNL1       -0.0653
      2 C          -0.7430    2.2185   -0.4336 C.3     1  UNL1       -0.0556
      3 C          -0.8367    1.0843   -1.3827 C.3     1  UNL1       -0.0487
      4 C          -1.5139   -0.1511   -0.9360 C.3     1  UNL1       -0.0212
      5 C          -2.9797    0.0951   -0.5322 C.3     1  UNL1       -0.0328
      6 C          -3.7465   -1.1696   -0.6790 C.3     1  UNL1        0.0108
      7 N          -4.8638   -1.3718    0.1558 N.3     1  UNL1       -0.3000
      8 C          -5.4870   -2.6440   -0.1590 C.3     1  UNL1       -0.0122
      9 C          -5.8658   -0.3781    0.2337 C.3     1  UNL1        0.0048
     10 C          -5.4484    0.9398    0.8425 C.3     1  UNL1       -0.0497
     11 C          -6.9727   -0.9245    1.1474 C.3     1  UNL1       -0.0497
     12 C          -2.7907   -2.3506   -0.4446 C.3     1  UNL1       -0.0356
     13 C          -1.7912   -1.9976    0.6241 C.3     1  UNL1       -0.0328
     14 C          -0.7970   -1.0163    0.0483 C.3     1  UNL1        0.0261
     15 N          -0.0510   -0.3340    1.0532 N.am    1  UNL1       -0.3109
     16 C           1.3584   -0.3656    1.1026 C.2     1  UNL1        0.2304
     17 O           1.9699   -1.0107    0.2384 O.2     1  UNL1       -0.2741
     18 C           2.1199    0.3462    2.1514 C.3     1  UNL1        0.0884
     19 N           3.5510    0.1477    1.9639 N.am    1  UNL1       -0.3028
     20 C           4.2192    0.5550    0.7848 C.2     1  UNL1        0.2445
     21 O           3.5435    1.1037   -0.1191 O.2     1  UNL1       -0.2702
     22 C           5.6489    0.3771    0.5527 C.ar    1  UNL1        0.0372
     23 C           6.4353   -0.2321    1.5056 C.ar    1  UNL1       -0.0496
     24 C           7.8038   -0.4006    1.2831 C.ar    1  UNL1       -0.0605
     25 C           8.3676    0.0422    0.1107 C.ar    1  UNL1       -0.0501
     26 C           7.5686    0.6441   -0.8219 C.ar    1  UNL1        0.0555
     27 C           8.2073    1.1146   -2.0842 C.3     1  UNL1        0.4174
     28 F           9.5863    1.0162   -2.0181 F       1  UNL1       -0.1659
     29 F           7.8731    2.4437   -2.3265 F       1  UNL1       -0.1659
     30 F           7.7911    0.3732   -3.1618 F       1  UNL1       -0.1659
     31 C           6.2424    0.8141   -0.6201 C.ar    1  UNL1       -0.0380
     32 H           1.0865    3.1278   -1.2136 H       1  UNL1        0.0230
     33 H          -0.1299    4.2782   -0.5969 H       1  UNL1        0.0230
     34 H          -0.4508    3.4341   -2.1967 H       1  UNL1        0.0230
     35 H          -0.0968    2.0450    0.4487 H       1  UNL1        0.0263
     36 H          -1.6981    2.6113   -0.0649 H       1  UNL1        0.0263
     37 H          -1.3364    1.4038   -2.3437 H       1  UNL1        0.0268
     38 H           0.2173    0.8100   -1.6622 H       1  UNL1        0.0268
     39 H          -1.6446   -0.7695   -1.8955 H       1  UNL1        0.0319
     40 H          -3.3431    0.8177   -1.3166 H       1  UNL1        0.0284
     41 H          -2.9277    0.5156    0.4654 H       1  UNL1        0.0284
     42 H          -4.0687   -1.2927   -1.7385 H       1  UNL1        0.0463
     43 H          -5.1323   -3.0636   -1.1359 H       1  UNL1        0.0391
     44 H          -6.5946   -2.5143   -0.3313 H       1  UNL1        0.0391
     45 H          -5.2911   -3.4011    0.6120 H       1  UNL1        0.0391
     46 H          -6.3742   -0.1949   -0.7410 H       1  UNL1        0.0457
     47 H          -5.0070    1.6534    0.1390 H       1  UNL1        0.0245
     48 H          -4.8742    0.7927    1.7873 H       1  UNL1        0.0245
     49 H          -6.3862    1.4719    1.2073 H       1  UNL1        0.0245
     50 H          -7.8771   -1.2178    0.5732 H       1  UNL1        0.0245
     51 H          -7.3180   -0.1685    1.8820 H       1  UNL1        0.0245
     52 H          -6.5810   -1.7724    1.7652 H       1  UNL1        0.0245
     53 H          -3.4004   -3.2444   -0.1024 H       1  UNL1        0.0281
     54 H          -2.2497   -2.5927   -1.3782 H       1  UNL1        0.0281
     55 H          -1.2849   -2.9492    0.9278 H       1  UNL1        0.0284
     56 H          -2.3583   -1.5731    1.4769 H       1  UNL1        0.0284
     57 H          -0.0501   -1.6447   -0.5336 H       1  UNL1        0.0501
     58 H          -0.5611    0.1959    1.7849 H       1  UNL1        0.1490
     59 H           1.8487    0.0343    3.1707 H       1  UNL1        0.0558
     60 H           1.9179    1.4516    2.1101 H       1  UNL1        0.0558
     61 H           4.0777   -0.3068    2.7259 H       1  UNL1        0.1495
     62 H           6.0396   -0.6004    2.4487 H       1  UNL1        0.0625
     63 H           8.4426   -0.8793    2.0234 H       1  UNL1        0.0618
     64 H           9.4244   -0.0758   -0.0864 H       1  UNL1        0.0623
     65 H           5.5956    1.2959   -1.3639 H       1  UNL1        0.0631
@<TRIPOS>BOND
     1     1     2    1
     2     2     3    1
     3     3     4    1
     4     4     5    1
     5     5     6    1
     6     6     7    1
     7     7     8    1
     8     7     9    1
     9     9    10    1
    10     9    11    1
    11     6    12    1
    12    12    13    1
    13    13    14    1
    14    14    15    1
    15    15    16   am
    16    16    17    2
    17    16    18    1
    18    18    19    1
    19    19    20   am
    20    20    21    2
    21    20    22    1
    22    22    23   ar
    23    23    24   ar
    24    24    25   ar
    25    25    26   ar
    26    26    27    1
    27    27    28    1
    28    27    29    1
    29    27    30    1
    30    26    31   ar
    31    14     4    1
    32    31    22   ar
    33     1    32    1
    34     1    33    1
    35     1    34    1
    36     2    35    1
    37     2    36    1
    38     3    37    1
    39     3    38    1
    40     4    39    1
    41     5    40    1
    42     5    41    1
    43     6    42    1
    44     8    43    1
    45     8    44    1
    46     8    45    1
    47     9    46    1
    48    10    47    1
    49    10    48    1
    50    10    49    1
    51    11    50    1
    52    11    51    1
    53    11    52    1
    54    12    53    1
    55    12    54    1
    56    13    55    1
    57    13    56    1
    58    14    57    1
    59    15    58    1
    60    18    59    1
    61    18    60    1
    62    19    61    1
    63    23    62    1
    64    24    63    1
    65    25    64    1
    66    31    65    1
