@<TRIPOS>MOLECULE
*****
 47 50 0 0 0
SMALL
GASTEIGER

@<TRIPOS>ATOM
      1 C          -7.2271    0.1221   -0.2761 C.3     1  UNL1       -0.0397
      2 C          -6.0448    0.5653   -1.0664 C.ar    1  UNL1       -0.0487
      3 C          -6.2227    1.2866   -2.2258 C.ar    1  UNL1       -0.0587
      4 C          -5.1131    1.6904   -2.9478 C.ar    1  UNL1       -0.0598
      5 C          -3.8524    1.3827   -2.5254 C.ar    1  UNL1       -0.0405
      6 C          -3.6641    0.6486   -1.3463 C.ar    1  UNL1        0.0338
      7 N          -2.3506    0.3703   -0.9448 N.pl3   1  UNL1       -0.2836
      8 C          -1.9513   -0.5687    0.0416 C.ar    1  UNL1        0.2200
      9 N          -2.8064   -1.3556    0.6763 N.ar    1  UNL1       -0.2226
     10 C          -2.3829   -2.2309    1.6044 C.ar    1  UNL1        0.0332
     11 C          -1.0284   -2.3089    1.8997 C.ar    1  UNL1       -0.0174
     12 C          -0.1523   -1.4968    1.2435 C.ar    1  UNL1        0.0762
     13 C           1.2782   -1.5743    1.5509 C.ar    1  UNL1        0.0052
     14 C           1.8281   -2.4246    2.4748 C.ar    1  UNL1       -0.0343
     15 C           3.2152   -2.4126    2.6887 C.ar    1  UNL1        0.0303
     16 N           3.9835   -1.5680    1.9846 N.ar    1  UNL1       -0.2403
     17 C           3.4871   -0.7198    1.0714 C.ar    1  UNL1        0.1220
     18 N           4.3446    0.1334    0.3739 N.pl3   1  UNL1       -0.3108
     19 C           3.9122    1.0831   -0.6352 C.3     1  UNL1        0.0370
     20 C           4.9471    2.1951   -0.6754 C.3     1  UNL1        0.0634
     21 O           6.1623    1.7196   -1.1025 O.3     1  UNL1       -0.3767
     22 C           6.4366    0.4315   -0.7162 C.3     1  UNL1        0.0634
     23 C           5.7941    0.1213    0.6297 C.3     1  UNL1        0.0370
     24 C           2.1338   -0.7277    0.8592 C.ar    1  UNL1       -0.0125
     25 N          -0.6139   -0.6346    0.3222 N.ar    1  UNL1       -0.2142
     26 C          -4.7675    0.2508   -0.6334 C.ar    1  UNL1       -0.0376
     27 H          -7.0072    0.2527    0.8085 H       1  UNL1        0.0278
     28 H          -7.4628   -0.9369   -0.4532 H       1  UNL1        0.0278
     29 H          -8.0661    0.7905   -0.5249 H       1  UNL1        0.0278
     30 H          -7.2280    1.5155   -2.5367 H       1  UNL1        0.0620
     31 H          -5.2865    2.2576   -3.8571 H       1  UNL1        0.0618
     32 H          -2.9937    1.7059   -3.1029 H       1  UNL1        0.0636
     33 H          -1.5844    0.9357   -1.4399 H       1  UNL1        0.1550
     34 H          -3.1202   -2.8451    2.0887 H       1  UNL1        0.0831
     35 H          -0.7245   -3.0144    2.6417 H       1  UNL1        0.0654
     36 H           1.1974   -3.1018    3.0370 H       1  UNL1        0.0639
     37 H           3.6093   -3.0982    3.4253 H       1  UNL1        0.0830
     38 H           2.9051    1.4879   -0.4552 H       1  UNL1        0.0487
     39 H           3.8935    0.5551   -1.6214 H       1  UNL1        0.0487
     40 H           4.5688    3.0267   -1.3044 H       1  UNL1        0.0575
     41 H           5.0673    2.5594    0.3659 H       1  UNL1        0.0575
     42 H           7.5496    0.3634   -0.5792 H       1  UNL1        0.0575
     43 H           6.1795   -0.3250   -1.4710 H       1  UNL1        0.0575
     44 H           6.0862    0.8655    1.3683 H       1  UNL1        0.0487
     45 H           6.0669   -0.9195    0.8731 H       1  UNL1        0.0487
     46 H           1.7181   -0.0568    0.1330 H       1  UNL1        0.0658
     47 H          -4.7138   -0.3023    0.2790 H       1  UNL1        0.0639
@<TRIPOS>BOND
     1     1     2    1
     2     2     3   ar
     3     3     4   ar
     4     4     5   ar
     5     5     6   ar
     6     6     7    1
     7     7     8    1
     8     8     9   ar
     9     9    10   ar
    10    10    11   ar
    11    11    12   ar
    12    12    13    1
    13    13    14   ar
    14    14    15   ar
    15    15    16   ar
    16    16    17   ar
    17    17    18    1
    18    18    19    1
    19    19    20    1
    20    20    21    1
    21    21    22    1
    22    22    23    1
    23    17    24   ar
    24    12    25   ar
    25     6    26   ar
    26    26     2   ar
    27    25     8   ar
    28    24    13   ar
    29    23    18    1
    30     1    27    1
    31     1    28    1
    32     1    29    1
    33     3    30    1
    34     4    31    1
    35     5    32    1
    36     7    33    1
    37    10    34    1
    38    11    35    1
    39    14    36    1
    40    15    37    1
    41    19    38    1
    42    19    39    1
    43    20    40    1
    44    20    41    1
    45    22    42    1
    46    22    43    1
    47    23    44    1
    48    23    45    1
    49    24    46    1
    50    26    47    1
