@<TRIPOS>MOLECULE
*****
 120 127 0 0 0
SMALL
GASTEIGER

@<TRIPOS>ATOM
      1 C           7.8221    2.2492    3.8731 C.3     1  UNL1       -0.0437
      2 C           8.2334    1.9669    2.4526 C.2     1  UNL1       -0.0739
      3 C           9.4281    2.3243    2.0712 C.2     1  UNL1       -0.0812
      4 C           9.7890    2.5366    0.6253 C.3     1  UNL1       -0.0122
      5 C          10.7946    1.4905    0.2249 C.3     1  UNL1       -0.0055
      6 C          10.1813    0.1306    0.3582 C.ar    1  UNL1        0.0248
      7 N          11.0241   -0.9062    0.4744 N.ar    1  UNL1       -0.3259
      8 C          10.5470   -2.1756    0.5934 C.ar    1  UNL1        0.2489
      9 O          11.3457   -3.1553    0.7032 O.2     1  UNL1       -0.2679
     10 C           9.1794   -2.3471    0.5897 C.ar    1  UNL1        0.0031
     11 C           8.3132   -1.2795    0.4709 C.ar    1  UNL1       -0.0498
     12 C           8.8348   -0.0184    0.3528 C.ar    1  UNL1       -0.0039
     13 C           7.8462    1.1097    0.2129 C.3     1  UNL1        0.0711
     14 C           7.2082    1.2890    1.5852 C.3     1  UNL1       -0.0059
     15 C           8.4778    2.4082   -0.1319 C.3     1  UNL1       -0.0083
     16 C           8.6580    2.6917   -1.5964 C.3     1  UNL1       -0.0460
     17 C           8.5805    1.4404   -2.4375 C.3     1  UNL1       -0.0368
     18 C           7.3065    0.6726   -2.1637 C.3     1  UNL1        0.0156
     19 N           6.8767    0.7419   -0.7873 N.am    1  UNL1       -0.2900
     20 C           5.5194    0.4130   -0.5312 C.2     1  UNL1        0.2303
     21 O           5.0384    0.4401    0.6296 O.2     1  UNL1       -0.2742
     22 C           4.5919    0.0171   -1.6125 C.3     1  UNL1        0.0757
     23 N           3.2498   -0.2860   -1.0527 N.3     1  UNL1       -0.2971
     24 C           2.6742    0.9709   -0.5864 C.3     1  UNL1       -0.0123
     25 C           2.4831   -0.9784   -2.0274 C.3     1  UNL1       -0.0009
     26 C           1.2434   -1.6641   -1.6409 C.3     1  UNL1       -0.0402
     27 C           0.2097   -0.7818   -1.0618 C.3     1  UNL1       -0.0519
     28 C          -1.0907   -1.5980   -0.7529 C.3     1  UNL1       -0.0530
     29 C          -0.8212   -2.6643    0.2147 C.3     1  UNL1       -0.0530
     30 C          -1.9678   -3.4851    0.6294 C.3     1  UNL1       -0.0519
     31 C          -2.7210   -4.3184   -0.3195 C.3     1  UNL1       -0.0402
     32 C          -3.4521   -3.5848   -1.3720 C.3     1  UNL1       -0.0009
     33 N          -4.4192   -2.6306   -0.8064 N.3     1  UNL1       -0.2971
     34 C          -5.4535   -3.5032   -0.1992 C.3     1  UNL1       -0.0123
     35 C          -4.9598   -1.8463   -1.8480 C.3     1  UNL1        0.0757
     36 C          -5.7938   -0.7122   -1.5473 C.2     1  UNL1        0.2303
     37 O          -6.3159   -0.0951   -2.5743 O.2     1  UNL1       -0.2742
     38 N          -6.1440   -0.1533   -0.3105 N.am    1  UNL1       -0.2900
     39 C          -5.5414   -0.6151    0.9431 C.3     1  UNL1        0.0156
     40 C          -5.4798    0.4839    1.9917 C.3     1  UNL1       -0.0368
     41 C          -5.4397    1.8570    1.4123 C.3     1  UNL1       -0.0460
     42 C          -6.5551    2.1045    0.4418 C.3     1  UNL1       -0.0083
     43 C          -7.6521    2.9640    1.0468 C.3     1  UNL1       -0.0122
     44 C          -8.6616    3.2004   -0.0334 C.2     1  UNL1       -0.0812
     45 C          -8.8871    2.3213   -0.9873 C.2     1  UNL1       -0.0739
     46 C         -10.1860    2.3249   -1.6947 C.3     1  UNL1       -0.0437
     47 C          -7.8682    1.2883   -1.4034 C.3     1  UNL1       -0.0059
     48 C          -7.1665    0.8729   -0.1225 C.3     1  UNL1        0.0711
     49 C          -8.2608    0.2953    0.7319 C.ar    1  UNL1       -0.0039
     50 C          -8.6845   -0.9609    0.3779 C.ar    1  UNL1       -0.0498
     51 C          -9.6827   -1.5569    1.1066 C.ar    1  UNL1        0.0031
     52 C         -10.2432   -0.8727    2.1900 C.ar    1  UNL1        0.2489
     53 O         -11.1625   -1.4519    2.8422 O.2     1  UNL1       -0.2679
     54 N          -9.8047    0.3604    2.5116 N.ar    1  UNL1       -0.3259
     55 C          -8.8327    0.9267    1.7923 C.ar    1  UNL1        0.0248
     56 C          -8.3751    2.2890    2.1794 C.3     1  UNL1       -0.0055
     57 H           7.5300    3.3176    3.9862 H       1  UNL1        0.0274
     58 H           8.6208    2.0271    4.6012 H       1  UNL1        0.0274
     59 H           6.9359    1.6472    4.1738 H       1  UNL1        0.0274
     60 H          10.1850    2.4692    2.8405 H       1  UNL1        0.0575
     61 H          10.2138    3.5322    0.5113 H       1  UNL1        0.0350
     62 H          11.6162    1.5273    0.9800 H       1  UNL1        0.0333
     63 H          11.1778    1.6704   -0.7772 H       1  UNL1        0.0333
     64 H          12.0741   -0.7823    0.4766 H       1  UNL1        0.1686
     65 H           8.7680   -3.3577    0.6788 H       1  UNL1        0.0672
     66 H           7.2425   -1.4272    0.4701 H       1  UNL1        0.0623
     67 H           6.3677    2.0422    1.5244 H       1  UNL1        0.0334
     68 H           6.8579    0.3616    2.0272 H       1  UNL1        0.0334
     69 H           7.8276    3.2260    0.2784 H       1  UNL1        0.0331
     70 H           9.6521    3.1448   -1.7533 H       1  UNL1        0.0269
     71 H           7.8950    3.3881   -1.9975 H       1  UNL1        0.0269
     72 H           9.4775    0.7946   -2.3659 H       1  UNL1        0.0280
     73 H           8.5331    1.7678   -3.4972 H       1  UNL1        0.0280
     74 H           6.4952    0.9740   -2.8673 H       1  UNL1        0.0465
     75 H           7.4976   -0.3951   -2.4006 H       1  UNL1        0.0465
     76 H           4.8893   -0.8739   -2.1729 H       1  UNL1        0.0522
     77 H           4.4720    0.8701   -2.2973 H       1  UNL1        0.0522
     78 H           3.4835    1.7539   -0.6501 H       1  UNL1        0.0391
     79 H           1.8119    1.2439   -1.1944 H       1  UNL1        0.0391
     80 H           2.4434    0.8607    0.4856 H       1  UNL1        0.0391
     81 H           3.1629   -1.7536   -2.4976 H       1  UNL1        0.0427
     82 H           2.2705   -0.2933   -2.8958 H       1  UNL1        0.0427
     83 H           1.5364   -2.5019   -0.9484 H       1  UNL1        0.0278
     84 H           0.8614   -2.2331   -2.5503 H       1  UNL1        0.0278
     85 H           0.5584   -0.3616   -0.1029 H       1  UNL1        0.0266
     86 H          -0.1162   -0.0187   -1.7730 H       1  UNL1        0.0266
     87 H          -1.7674   -0.8335   -0.3150 H       1  UNL1        0.0265
     88 H          -1.4327   -1.8528   -1.7489 H       1  UNL1        0.0265
     89 H           0.0037   -3.3674   -0.1178 H       1  UNL1        0.0265
     90 H          -0.4437   -2.1462    1.1652 H       1  UNL1        0.0265
     91 H          -2.6828   -2.7409    1.1651 H       1  UNL1        0.0266
     92 H          -1.6662   -4.1229    1.5382 H       1  UNL1        0.0266
     93 H          -1.9593   -5.0223   -0.8092 H       1  UNL1        0.0278
     94 H          -3.3860   -5.0655    0.2098 H       1  UNL1        0.0278
     95 H          -2.9138   -3.2319   -2.2292 H       1  UNL1        0.0427
     96 H          -4.1754   -4.3787   -1.8518 H       1  UNL1        0.0427
     97 H          -5.4568   -4.4408   -0.7813 H       1  UNL1        0.0391
     98 H          -6.4345   -3.0343   -0.3676 H       1  UNL1        0.0391
     99 H          -5.2387   -3.7344    0.8434 H       1  UNL1        0.0391
    100 H          -5.5858   -2.5582   -2.4790 H       1  UNL1        0.0522
    101 H          -4.1662   -1.5000   -2.5726 H       1  UNL1        0.0522
    102 H          -6.2310   -1.3703    1.3648 H       1  UNL1        0.0465
    103 H          -4.5536   -1.0623    0.7981 H       1  UNL1        0.0465
    104 H          -4.4853    0.3458    2.5193 H       1  UNL1        0.0280
    105 H          -6.2209    0.3393    2.8125 H       1  UNL1        0.0280
    106 H          -5.5505    2.5862    2.2450 H       1  UNL1        0.0269
    107 H          -4.4297    2.0251    0.9754 H       1  UNL1        0.0269
    108 H          -6.1281    2.6990   -0.3974 H       1  UNL1        0.0331
    109 H          -7.1883    3.8780    1.4211 H       1  UNL1        0.0350
    110 H          -9.2097    4.1373    0.0005 H       1  UNL1        0.0575
    111 H         -10.0696    2.3752   -2.7983 H       1  UNL1        0.0274
    112 H         -10.8115    3.1906   -1.3963 H       1  UNL1        0.0274
    113 H         -10.7767    1.4180   -1.4070 H       1  UNL1        0.0274
    114 H          -8.3616    0.4795   -1.9280 H       1  UNL1        0.0334
    115 H          -7.1681    1.8542   -2.0447 H       1  UNL1        0.0334
    116 H          -8.2668   -1.5105   -0.4590 H       1  UNL1        0.0623
    117 H         -10.0567   -2.5525    0.8671 H       1  UNL1        0.0672
    118 H         -10.2683    0.8218    3.3404 H       1  UNL1        0.1686
    119 H          -9.2972    2.8959    2.3671 H       1  UNL1        0.0333
    120 H          -7.7962    2.3186    3.1053 H       1  UNL1        0.0333
@<TRIPOS>BOND
     1     1     2    1
     2     2     3    2
     3     3     4    1
     4     4     5    1
     5     5     6    1
     6     6     7   ar
     7     7     8   ar
     8     8     9    2
     9     8    10   ar
    10    10    11   ar
    11    11    12   ar
    12    12    13    1
    13    13    14    1
    14    13    15    1
    15    15    16    1
    16    16    17    1
    17    17    18    1
    18    18    19    1
    19    19    20   am
    20    20    21    2
    21    20    22    1
    22    22    23    1
    23    23    24    1
    24    23    25    1
    25    25    26    1
    26    26    27    1
    27    27    28    1
    28    28    29    1
    29    29    30    1
    30    30    31    1
    31    31    32    1
    32    32    33    1
    33    33    34    1
    34    33    35    1
    35    35    36    1
    36    36    37    2
    37    36    38   am
    38    38    39    1
    39    39    40    1
    40    40    41    1
    41    41    42    1
    42    42    43    1
    43    43    44    1
    44    44    45    2
    45    45    46    1
    46    45    47    1
    47    47    48    1
    48    48    49    1
    49    49    50   ar
    50    50    51   ar
    51    51    52   ar
    52    52    53    2
    53    52    54   ar
    54    54    55   ar
    55    55    56    1
    56    14     2    1
    57    48    38    1
    58    55    49   ar
    59    15     4    1
    60    48    42    1
    61    12     6   ar
    62    13    19    1
    63    56    43    1
    64     1    57    1
    65     1    58    1
    66     1    59    1
    67     3    60    1
    68     4    61    1
    69     5    62    1
    70     5    63    1
    71     7    64    1
    72    10    65    1
    73    11    66    1
    74    14    67    1
    75    14    68    1
    76    15    69    1
    77    16    70    1
    78    16    71    1
    79    17    72    1
    80    17    73    1
    81    18    74    1
    82    18    75    1
    83    22    76    1
    84    22    77    1
    85    24    78    1
    86    24    79    1
    87    24    80    1
    88    25    81    1
    89    25    82    1
    90    26    83    1
    91    26    84    1
    92    27    85    1
    93    27    86    1
    94    28    87    1
    95    28    88    1
    96    29    89    1
    97    29    90    1
    98    30    91    1
    99    30    92    1
   100    31    93    1
   101    31    94    1
   102    32    95    1
   103    32    96    1
   104    34    97    1
   105    34    98    1
   106    34    99    1
   107    35   100    1
   108    35   101    1
   109    39   102    1
   110    39   103    1
   111    40   104    1
   112    40   105    1
   113    41   106    1
   114    41   107    1
   115    42   108    1
   116    43   109    1
   117    44   110    1
   118    46   111    1
   119    46   112    1
   120    46   113    1
   121    47   114    1
   122    47   115    1
   123    50   116    1
   124    51   117    1
   125    54   118    1
   126    56   119    1
   127    56   120    1
