
     RDKit          3D

 82 84  0  0  0  0  0  0  0  0999 V2000
   -2.8035    1.5744   -4.6379 C   0  0  0  0  0  0  0  0  0  0  0  0
   -2.8296    1.5885   -3.1310 C   0  0  0  0  0  0  0  0  0  0  0  0
   -4.0501    2.2872   -2.5879 C   0  0  0  0  0  0  0  0  0  0  0  0
   -1.6290    2.4262   -2.6700 C   0  0  0  0  0  0  0  0  0  0  0  0
   -2.6474    0.2739   -2.5670 N   0  0  0  0  0  0  0  0  0  0  0  0
   -2.6501    0.1054   -1.1727 C   0  0  0  0  0  0  0  0  0  0  0  0
   -2.8117    1.0759   -0.4244 O   0  0  0  0  0  0  0  0  0  0  0  0
   -2.4691   -1.1771   -0.5397 N   0  0  0  0  0  0  0  0  0  0  0  0
   -2.4754   -1.3442    0.8824 C   0  0  2  0  0  0  0  0  0  0  0  0
   -1.1386   -1.4917    1.4080 C   0  0  0  0  0  0  0  0  0  0  0  0
   -1.1296   -1.7217    2.6832 O   0  0  0  0  0  0  0  0  0  0  0  0
    0.1387   -1.4331    0.8155 N   0  0  0  0  0  0  0  0  0  0  0  0
    0.5941   -1.2092   -0.5118 C   0  0  0  0  0  0  0  0  0  0  0  0
    1.7438   -2.1776   -0.6787 C   0  0  1  0  0  0  0  0  0  0  0  0
    2.2176   -2.4641    0.7542 C   0  0  1  0  0  0  0  0  0  0  0  0
    1.3586   -1.6029    1.5897 C   0  0  1  0  0  0  0  0  0  0  0  0
    2.0779   -0.3319    1.8496 C   0  0  0  0  0  0  0  0  0  0  0  0
    3.2773   -0.3821    2.2983 O   0  0  0  0  0  0  0  0  0  0  0  0
    1.5764    0.9630    1.6558 N   0  0  0  0  0  0  0  0  0  0  0  0
    2.3713    2.1578    1.9441 C   0  0  0  0  0  0  0  0  0  0  0  0
    2.6636    2.9300    0.6783 C   0  0  0  0  0  0  0  0  0  0  0  0
    3.4388    2.1062   -0.3199 C   0  0  0  0  0  0  0  0  0  0  0  0
    4.7824    1.6076    0.1365 C   0  0  0  0  0  0  0  0  0  0  0  0
    5.4435    2.7685   -0.6038 C   0  0  0  0  0  0  0  0  0  0  0  0
    4.1625    2.9362   -1.3705 C   0  0  0  0  0  0  0  0  0  0  0  0
    1.6734    2.9983    2.9350 C   0  0  0  0  0  0  0  0  0  0  0  0
    0.5462    2.5884    3.3578 O   0  0  0  0  0  0  0  0  0  0  0  0
    2.1847    4.2422    3.4484 C   0  0  0  0  0  0  0  0  0  0  0  0
    1.4423    4.9822    4.3945 N   0  0  0  0  0  0  0  0  0  0  0  0
    3.2886    4.6831    3.0657 O   0  0  0  0  0  0  0  0  0  0  0  0
    1.7134   -3.5477   -0.1074 C   0  0  0  0  0  0  0  0  0  0  0  0
    0.4026   -4.2451    0.1585 C   0  0  0  0  0  0  0  0  0  0  0  0
    2.7919   -4.4827   -0.6338 C   0  0  0  0  0  0  0  0  0  0  0  0
   -3.5095   -2.2985    1.3873 C   0  0  0  0  0  0  0  0  0  0  0  0
   -3.2513   -3.6541    0.7742 C   0  0  0  0  0  0  0  0  0  0  0  0
   -4.8938   -1.8698    0.9328 C   0  0  0  0  0  0  0  0  0  0  0  0
   -3.5501   -2.4182    2.8816 C   0  0  0  0  0  0  0  0  0  0  0  0
   -3.7941    1.9820   -4.9802 H   0  0  0  0  0  0  0  0  0  0  0  0
   -2.7375    0.5537   -5.0484 H   0  0  0  0  0  0  0  0  0  0  0  0
   -2.0364    2.2700   -5.0305 H   0  0  0  0  0  0  0  0  0  0  0  0
   -4.9404    1.6046   -2.5763 H   0  0  0  0  0  0  0  0  0  0  0  0
   -3.8788    2.7791   -1.6105 H   0  0  0  0  0  0  0  0  0  0  0  0
   -4.2622    3.1415   -3.2958 H   0  0  0  0  0  0  0  0  0  0  0  0
   -1.5093    3.2724   -3.3870 H   0  0  0  0  0  0  0  0  0  0  0  0
   -0.7447    1.7649   -2.7796 H   0  0  0  0  0  0  0  0  0  0  0  0
   -1.7554    2.7803   -1.6303 H   0  0  0  0  0  0  0  0  0  0  0  0
   -2.5155   -0.5372   -3.1927 H   0  0  0  0  0  0  0  0  0  0  0  0
   -2.3508   -1.9733   -1.2370 H   0  0  0  0  0  0  0  0  0  0  0  0
   -2.8373   -0.3300    1.2866 H   0  0  0  0  0  0  0  0  0  0  0  0
    0.9954   -0.1575   -0.6193 H   0  0  0  0  0  0  0  0  0  0  0  0
   -0.1511   -1.3172   -1.3191 H   0  0  0  0  0  0  0  0  0  0  0  0
    2.5461   -1.9227   -1.4077 H   0  0  0  0  0  0  0  0  0  0  0  0
    3.3150   -2.3647    0.9425 H   0  0  0  0  0  0  0  0  0  0  0  0
    1.1119   -2.1073    2.5760 H   0  0  0  0  0  0  0  0  0  0  0  0
    0.6007    1.0747    1.3067 H   0  0  0  0  0  0  0  0  0  0  0  0
    3.3519    1.8610    2.3596 H   0  0  0  0  0  0  0  0  0  0  0  0
    1.7553    3.2919    0.1709 H   0  0  0  0  0  0  0  0  0  0  0  0
    3.2947    3.8069    0.9132 H   0  0  0  0  0  0  0  0  0  0  0  0
    2.8611    1.3185   -0.8417 H   0  0  0  0  0  0  0  0  0  0  0  0
    5.1008    0.6378   -0.3158 H   0  0  0  0  0  0  0  0  0  0  0  0
    5.0101    1.6724    1.2028 H   0  0  0  0  0  0  0  0  0  0  0  0
    6.3284    2.5034   -1.1926 H   0  0  0  0  0  0  0  0  0  0  0  0
    5.6567    3.6540    0.0573 H   0  0  0  0  0  0  0  0  0  0  0  0
    3.7950    3.9702   -1.4807 H   0  0  0  0  0  0  0  0  0  0  0  0
    4.2651    2.4152   -2.3625 H   0  0  0  0  0  0  0  0  0  0  0  0
    0.3901    5.0059    4.2675 H   0  0  0  0  0  0  0  0  0  0  0  0
    1.8703    5.4967    5.1951 H   0  0  0  0  0  0  0  0  0  0  0  0
   -0.3263   -3.8206   -0.5607 H   0  0  0  0  0  0  0  0  0  0  0  0
    0.4409   -5.3379   -0.0735 H   0  0  0  0  0  0  0  0  0  0  0  0
    0.0725   -4.1763    1.2147 H   0  0  0  0  0  0  0  0  0  0  0  0
    2.8187   -5.3591    0.0482 H   0  0  0  0  0  0  0  0  0  0  0  0
    3.7839   -4.0248   -0.6023 H   0  0  0  0  0  0  0  0  0  0  0  0
    2.5618   -4.8397   -1.6581 H   0  0  0  0  0  0  0  0  0  0  0  0
   -2.6777   -3.6421   -0.1536 H   0  0  0  0  0  0  0  0  0  0  0  0
   -4.1884   -4.2112    0.5698 H   0  0  0  0  0  0  0  0  0  0  0  0
   -2.6728   -4.3030    1.4895 H   0  0  0  0  0  0  0  0  0  0  0  0
   -4.8977   -1.3766   -0.0431 H   0  0  0  0  0  0  0  0  0  0  0  0
   -5.3934   -1.2536    1.7357 H   0  0  0  0  0  0  0  0  0  0  0  0
   -5.5799   -2.7616    0.8271 H   0  0  0  0  0  0  0  0  0  0  0  0
   -4.5452   -2.7633    3.2366 H   0  0  0  0  0  0  0  0  0  0  0  0
   -3.3389   -1.4789    3.4126 H   0  0  0  0  0  0  0  0  0  0  0  0
   -2.8433   -3.2419    3.1922 H   0  0  0  0  0  0  0  0  0  0  0  0
  1  2  1  0
  2  3  1  0
  2  4  1  0
  2  5  1  0
  5  6  1  0
  6  7  2  0
  6  8  1  0
  8  9  1  0
  9 10  1  0
 10 11  2  0
 10 12  1  0
 12 13  1  0
 13 14  1  0
 14 15  1  0
 15 16  1  0
 16 17  1  0
 17 18  2  0
 17 19  1  0
 19 20  1  0
 20 21  1  0
 21 22  1  0
 22 23  1  0
 23 24  1  0
 24 25  1  0
 20 26  1  0
 26 27  2  0
 26 28  1  0
 28 29  1  0
 28 30  2  0
 15 31  1  0
 31 32  1  0
 31 33  1  0
  9 34  1  0
 34 35  1  0
 34 36  1  0
 34 37  1  0
 16 12  1  0
 25 22  1  0
 31 14  1  0
  1 38  1  0
  1 39  1  0
  1 40  1  0
  3 41  1  0
  3 42  1  0
  3 43  1  0
  4 44  1  0
  4 45  1  0
  4 46  1  0
  5 47  1  0
  8 48  1  0
  9 49  1  1
 13 50  1  0
 13 51  1  0
 14 52  1  6
 15 53  1  6
 16 54  1  1
 19 55  1  0
 20 56  1  0
 21 57  1  0
 21 58  1  0
 22 59  1  0
 23 60  1  0
 23 61  1  0
 24 62  1  0
 24 63  1  0
 25 64  1  0
 25 65  1  0
 29 66  1  0
 29 67  1  0
 32 68  1  0
 32 69  1  0
 32 70  1  0
 33 71  1  0
 33 72  1  0
 33 73  1  0
 35 74  1  0
 35 75  1  0
 35 76  1  0
 36 77  1  0
 36 78  1  0
 36 79  1  0
 37 80  1  0
 37 81  1  0
 37 82  1  0
M  END
$$$$
