@<TRIPOS>MOLECULE
*****
 82 84 0 0 0
SMALL
GASTEIGER

@<TRIPOS>ATOM
      1 C          -2.8035    1.5744   -4.6379 C.3     1  UNL1       -0.0442
      2 C          -2.8296    1.5885   -3.1310 C.3     1  UNL1        0.0276
      3 C          -4.0501    2.2872   -2.5879 C.3     1  UNL1       -0.0442
      4 C          -1.6290    2.4262   -2.6700 C.3     1  UNL1       -0.0442
      5 N          -2.6474    0.2739   -2.5670 N.am    1  UNL1       -0.2947
      6 C          -2.6501    0.1054   -1.1727 C.2     1  UNL1        0.3006
      7 O          -2.8117    1.0759   -0.4244 O.2     1  UNL1       -0.2528
      8 N          -2.4691   -1.1771   -0.5397 N.am    1  UNL1       -0.2876
      9 C          -2.4754   -1.3442    0.8824 C.3     1  UNL1        0.1058
     10 C          -1.1386   -1.4917    1.4080 C.2     1  UNL1        0.2371
     11 O          -1.1296   -1.7217    2.6832 O.2     1  UNL1       -0.2735
     12 N           0.1387   -1.4331    0.8155 N.am    1  UNL1       -0.2878
     13 C           0.5941   -1.2092   -0.5118 C.3     1  UNL1        0.0192
     14 C           1.7438   -2.1776   -0.6787 C.3     1  UNL1       -0.0142
     15 C           2.2176   -2.4641    0.7542 C.3     1  UNL1       -0.0037
     16 C           1.3586   -1.6029    1.5897 C.3     1  UNL1        0.1058
     17 C           2.0779   -0.3319    1.8496 C.2     1  UNL1        0.2344
     18 O           3.2773   -0.3821    2.2983 O.2     1  UNL1       -0.2737
     19 N           1.5764    0.9630    1.6558 N.am    1  UNL1       -0.3036
     20 C           2.3713    2.1578    1.9441 C.3     1  UNL1        0.0909
     21 C           2.6636    2.9300    0.6783 C.3     1  UNL1       -0.0242
     22 C           3.4388    2.1062   -0.3199 C.3     1  UNL1       -0.0390
     23 C           4.7824    1.6076    0.1365 C.3     1  UNL1       -0.0501
     24 C           5.4435    2.7685   -0.6038 C.3     1  UNL1       -0.0526
     25 C           4.1625    2.9362   -1.3705 C.3     1  UNL1       -0.0501
     26 C           1.6734    2.9983    2.9350 C.2     1  UNL1        0.2369
     27 O           0.5462    2.5884    3.3578 O.2     1  UNL1       -0.2852
     28 C           2.1847    4.2422    3.4484 C.2     1  UNL1        0.2789
     29 N           1.4423    4.9822    4.3945 N.am    1  UNL1       -0.3229
     30 O           3.2886    4.6831    3.0657 O.2     1  UNL1       -0.2672
     31 C           1.7134   -3.5477   -0.1074 C.3     1  UNL1       -0.0250
     32 C           0.4026   -4.2451    0.1585 C.3     1  UNL1       -0.0592
     33 C           2.7919   -4.4827   -0.6338 C.3     1  UNL1       -0.0592
     34 C          -3.5095   -2.2985    1.3873 C.3     1  UNL1       -0.0108
     35 C          -3.2513   -3.6541    0.7742 C.3     1  UNL1       -0.0579
     36 C          -4.8938   -1.8698    0.9328 C.3     1  UNL1       -0.0579
     37 C          -3.5501   -2.4182    2.8816 C.3     1  UNL1       -0.0579
     38 H          -3.7941    1.9820   -4.9802 H       1  UNL1        0.0250
     39 H          -2.7375    0.5537   -5.0484 H       1  UNL1        0.0250
     40 H          -2.0364    2.2700   -5.0305 H       1  UNL1        0.0250
     41 H          -4.9404    1.6046   -2.5763 H       1  UNL1        0.0250
     42 H          -3.8788    2.7791   -1.6105 H       1  UNL1        0.0250
     43 H          -4.2622    3.1415   -3.2958 H       1  UNL1        0.0250
     44 H          -1.5093    3.2724   -3.3870 H       1  UNL1        0.0250
     45 H          -0.7447    1.7649   -2.7796 H       1  UNL1        0.0250
     46 H          -1.7554    2.7803   -1.6303 H       1  UNL1        0.0250
     47 H          -2.5155   -0.5372   -3.1927 H       1  UNL1        0.1507
     48 H          -2.3508   -1.9733   -1.2370 H       1  UNL1        0.1510
     49 H          -2.8373   -0.3300    1.2866 H       1  UNL1        0.0600
     50 H           0.9954   -0.1575   -0.6193 H       1  UNL1        0.0468
     51 H          -0.1511   -1.3172   -1.3191 H       1  UNL1        0.0468
     52 H           2.5461   -1.9227   -1.4077 H       1  UNL1        0.0325
     53 H           3.3150   -2.3647    0.9425 H       1  UNL1        0.0332
     54 H           1.1119   -2.1073    2.5760 H       1  UNL1        0.0600
     55 H           0.6007    1.0747    1.3067 H       1  UNL1        0.1495
     56 H           3.3519    1.8610    2.3596 H       1  UNL1        0.0582
     57 H           1.7553    3.2919    0.1709 H       1  UNL1        0.0290
     58 H           3.2947    3.8069    0.9132 H       1  UNL1        0.0290
     59 H           2.8611    1.3185   -0.8417 H       1  UNL1        0.0301
     60 H           5.1008    0.6378   -0.3158 H       1  UNL1        0.0268
     61 H           5.0101    1.6724    1.2028 H       1  UNL1        0.0268
     62 H           6.3284    2.5034   -1.1926 H       1  UNL1        0.0265
     63 H           5.6567    3.6540    0.0573 H       1  UNL1        0.0265
     64 H           3.7950    3.9702   -1.4807 H       1  UNL1        0.0268
     65 H           4.2651    2.4152   -2.3625 H       1  UNL1        0.0268
     66 H           0.3901    5.0059    4.2675 H       1  UNL1        0.1453
     67 H           1.8703    5.4967    5.1951 H       1  UNL1        0.1453
     68 H          -0.3263   -3.8206   -0.5607 H       1  UNL1        0.0235
     69 H           0.4409   -5.3379   -0.0735 H       1  UNL1        0.0235
     70 H           0.0725   -4.1763    1.2147 H       1  UNL1        0.0235
     71 H           2.8187   -5.3591    0.0482 H       1  UNL1        0.0235
     72 H           3.7839   -4.0248   -0.6023 H       1  UNL1        0.0235
     73 H           2.5618   -4.8397   -1.6581 H       1  UNL1        0.0235
     74 H          -2.6777   -3.6421   -0.1536 H       1  UNL1        0.0236
     75 H          -4.1884   -4.2112    0.5698 H       1  UNL1        0.0236
     76 H          -2.6728   -4.3030    1.4895 H       1  UNL1        0.0236
     77 H          -4.8977   -1.3766   -0.0431 H       1  UNL1        0.0236
     78 H          -5.3934   -1.2536    1.7357 H       1  UNL1        0.0236
     79 H          -5.5799   -2.7616    0.8271 H       1  UNL1        0.0236
     80 H          -4.5452   -2.7633    3.2366 H       1  UNL1        0.0236
     81 H          -3.3389   -1.4789    3.4126 H       1  UNL1        0.0236
     82 H          -2.8433   -3.2419    3.1922 H       1  UNL1        0.0236
@<TRIPOS>BOND
     1     1     2    1
     2     2     3    1
     3     2     4    1
     4     2     5    1
     5     5     6   am
     6     6     7    2
     7     6     8   am
     8     8     9    1
     9     9    10    1
    10    10    11    2
    11    10    12   am
    12    12    13    1
    13    13    14    1
    14    14    15    1
    15    15    16    1
    16    16    17    1
    17    17    18    2
    18    17    19   am
    19    19    20    1
    20    20    21    1
    21    21    22    1
    22    22    23    1
    23    23    24    1
    24    24    25    1
    25    20    26    1
    26    26    27    2
    27    26    28    1
    28    28    29   am
    29    28    30    2
    30    15    31    1
    31    31    32    1
    32    31    33    1
    33     9    34    1
    34    34    35    1
    35    34    36    1
    36    34    37    1
    37    16    12    1
    38    25    22    1
    39    31    14    1
    40     1    38    1
    41     1    39    1
    42     1    40    1
    43     3    41    1
    44     3    42    1
    45     3    43    1
    46     4    44    1
    47     4    45    1
    48     4    46    1
    49     5    47    1
    50     8    48    1
    51     9    49    1
    52    13    50    1
    53    13    51    1
    54    14    52    1
    55    15    53    1
    56    16    54    1
    57    19    55    1
    58    20    56    1
    59    21    57    1
    60    21    58    1
    61    22    59    1
    62    23    60    1
    63    23    61    1
    64    24    62    1
    65    24    63    1
    66    25    64    1
    67    25    65    1
    68    29    66    1
    69    29    67    1
    70    32    68    1
    71    32    69    1
    72    32    70    1
    73    33    71    1
    74    33    72    1
    75    33    73    1
    76    35    74    1
    77    35    75    1
    78    35    76    1
    79    36    77    1
    80    36    78    1
    81    36    79    1
    82    37    80    1
    83    37    81    1
    84    37    82    1
