
     RDKit          3D

 48 50  0  0  0  0  0  0  0  0999 V2000
   -5.3210    2.1857    1.3343 N   0  0  0  0  0  0  0  0  0  0  0  0
   -5.9389    0.9241    1.3827 C   0  0  0  0  0  0  0  0  0  0  0  0
   -7.1166    0.7948    2.0501 C   0  0  0  0  0  0  0  0  0  0  0  0
   -7.7853   -0.4013    2.1452 C   0  0  0  0  0  0  0  0  0  0  0  0
   -7.2216   -1.4840    1.5362 C   0  0  0  0  0  0  0  0  0  0  0  0
   -6.0013   -1.3507    0.8445 C   0  0  0  0  0  0  0  0  0  0  0  0
   -5.3357   -0.1597    0.7501 C   0  0  0  0  0  0  0  0  0  0  0  0
   -4.1059    0.0248    0.0681 N   0  0  0  0  0  0  0  0  0  0  0  0
   -3.3987   -0.9574   -0.5930 C   0  0  0  0  0  0  0  0  0  0  0  0
   -3.8188   -2.1510   -0.6400 O   0  0  0  0  0  0  0  0  0  0  0  0
   -2.1117   -0.6608   -1.2806 C   0  0  0  0  0  0  0  0  0  0  0  0
   -1.4516   -1.6961   -1.9378 C   0  0  0  0  0  0  0  0  0  0  0  0
   -0.2595   -1.4964   -2.5923 C   0  0  0  0  0  0  0  0  0  0  0  0
    0.3368   -0.2300   -2.6195 C   0  0  0  0  0  0  0  0  0  0  0  0
    1.6208   -0.0506   -3.3453 C   0  0  0  0  0  0  0  0  0  0  0  0
    2.7655   -0.3505   -2.5284 N   0  0  0  0  0  0  0  0  0  0  0  0
    3.2097    0.5776   -1.5719 C   0  0  0  0  0  0  0  0  0  0  0  0
    2.7076    1.6934   -1.3326 O   0  0  0  0  0  0  0  0  0  0  0  0
    4.3333    0.2201   -0.8023 O   0  0  0  0  0  0  0  0  0  0  0  0
    4.8231    1.1179    0.1751 C   0  0  0  0  0  0  0  0  0  0  0  0
    5.9922    0.4631    0.8120 C   0  0  0  0  0  0  0  0  0  0  0  0
    7.2870    0.6117    0.3405 C   0  0  0  0  0  0  0  0  0  0  0  0
    8.3496   -0.0079    0.9528 C   0  0  0  0  0  0  0  0  0  0  0  0
    8.1401   -0.7948    2.0566 C   0  0  0  0  0  0  0  0  0  0  0  0
    6.8802   -0.9420    2.5189 N   0  0  0  0  0  0  0  0  0  0  0  0
    5.8535   -0.3439    1.9282 C   0  0  0  0  0  0  0  0  0  0  0  0
   -0.3222    0.7838   -1.9689 C   0  0  0  0  0  0  0  0  0  0  0  0
   -1.5396    0.5745   -1.3017 C   0  0  0  0  0  0  0  0  0  0  0  0
   -5.0839    2.7306    2.1899 H   0  0  0  0  0  0  0  0  0  0  0  0
   -5.0734    2.6282    0.4166 H   0  0  0  0  0  0  0  0  0  0  0  0
   -7.5988    1.6495    2.5530 H   0  0  0  0  0  0  0  0  0  0  0  0
   -8.7170   -0.5353    2.6651 H   0  0  0  0  0  0  0  0  0  0  0  0
   -7.6695   -2.4643    1.5544 H   0  0  0  0  0  0  0  0  0  0  0  0
   -5.6259   -2.2496    0.3935 H   0  0  0  0  0  0  0  0  0  0  0  0
   -3.7027    1.0267    0.0767 H   0  0  0  0  0  0  0  0  0  0  0  0
   -1.8874   -2.6876   -1.9349 H   0  0  0  0  0  0  0  0  0  0  0  0
    0.2723   -2.2805   -3.1089 H   0  0  0  0  0  0  0  0  0  0  0  0
    1.7040    1.0319   -3.6224 H   0  0  0  0  0  0  0  0  0  0  0  0
    1.6351   -0.6284   -4.3026 H   0  0  0  0  0  0  0  0  0  0  0  0
    3.2424   -1.2864   -2.6845 H   0  0  0  0  0  0  0  0  0  0  0  0
    5.2150    2.0566   -0.2919 H   0  0  0  0  0  0  0  0  0  0  0  0
    4.0662    1.3216    0.9471 H   0  0  0  0  0  0  0  0  0  0  0  0
    7.4301    1.2402   -0.5362 H   0  0  0  0  0  0  0  0  0  0  0  0
    9.3448    0.1149    0.5789 H   0  0  0  0  0  0  0  0  0  0  0  0
    8.9730   -1.2962    2.5578 H   0  0  0  0  0  0  0  0  0  0  0  0
    4.8291   -0.4555    2.2929 H   0  0  0  0  0  0  0  0  0  0  0  0
    0.0829    1.7842   -1.9598 H   0  0  0  0  0  0  0  0  0  0  0  0
   -2.0072    1.4051   -0.8105 H   0  0  0  0  0  0  0  0  0  0  0  0
  1  2  1  0
  2  3  2  0
  3  4  1  0
  4  5  2  0
  5  6  1  0
  6  7  2  0
  7  8  1  0
  8  9  1  0
  9 10  2  0
  9 11  1  0
 11 12  2  0
 12 13  1  0
 13 14  2  0
 14 15  1  0
 15 16  1  0
 16 17  1  0
 17 18  2  0
 17 19  1  0
 19 20  1  0
 20 21  1  0
 21 22  2  0
 22 23  1  0
 23 24  2  0
 24 25  1  0
 25 26  2  0
 14 27  1  0
 27 28  2  0
  7  2  1  0
 28 11  1  0
 26 21  1  0
  1 29  1  0
  1 30  1  0
  3 31  1  0
  4 32  1  0
  5 33  1  0
  6 34  1  0
  8 35  1  0
 12 36  1  0
 13 37  1  0
 15 38  1  0
 15 39  1  0
 16 40  1  0
 20 41  1  0
 20 42  1  0
 22 43  1  0
 23 44  1  0
 24 45  1  0
 26 46  1  0
 27 47  1  0
 28 48  1  0
M  END
$$$$
