@<TRIPOS>MOLECULE
*****
 48 50 0 0 0
SMALL
GASTEIGER

@<TRIPOS>ATOM
      1 N          -5.3210    2.1857    1.3343 N.pl3   1  UNL1       -0.3565
      2 C          -5.9389    0.9241    1.3827 C.ar    1  UNL1        0.0461
      3 C          -7.1166    0.7948    2.0501 C.ar    1  UNL1       -0.0392
      4 C          -7.7853   -0.4013    2.1452 C.ar    1  UNL1       -0.0599
      5 C          -7.2216   -1.4840    1.5362 C.ar    1  UNL1       -0.0599
      6 C          -6.0013   -1.3507    0.8445 C.ar    1  UNL1       -0.0387
      7 C          -5.3357   -0.1597    0.7501 C.ar    1  UNL1        0.0545
      8 N          -4.1059    0.0248    0.0681 N.am    1  UNL1       -0.2800
      9 C          -3.3987   -0.9574   -0.5930 C.2     1  UNL1        0.2483
     10 O          -3.8188   -2.1510   -0.6400 O.2     1  UNL1       -0.2699
     11 C          -2.1117   -0.6608   -1.2806 C.ar    1  UNL1        0.0370
     12 C          -1.4516   -1.6961   -1.9378 C.ar    1  UNL1       -0.0493
     13 C          -0.2595   -1.4964   -2.5923 C.ar    1  UNL1       -0.0564
     14 C           0.3368   -0.2300   -2.6195 C.ar    1  UNL1       -0.0302
     15 C           1.6208   -0.0506   -3.3453 C.3     1  UNL1        0.0400
     16 N           2.7655   -0.3505   -2.5284 N.am    1  UNL1       -0.2770
     17 C           3.2097    0.5776   -1.5719 C.2     1  UNL1        0.4008
     18 O           2.7076    1.6934   -1.3326 O.2     1  UNL1       -0.2265
     19 O           4.3333    0.2201   -0.8023 O.3     1  UNL1       -0.4456
     20 C           4.8231    1.1179    0.1751 C.3     1  UNL1        0.1205
     21 C           5.9922    0.4631    0.8120 C.ar    1  UNL1        0.0078
     22 C           7.2870    0.6117    0.3405 C.ar    1  UNL1       -0.0525
     23 C           8.3496   -0.0079    0.9528 C.ar    1  UNL1       -0.0432
     24 C           8.1401   -0.7948    2.0566 C.ar    1  UNL1        0.0276
     25 N           6.8802   -0.9420    2.5189 N.ar    1  UNL1       -0.2629
     26 C           5.8535   -0.3439    1.9282 C.ar    1  UNL1        0.0339
     27 C          -0.3222    0.7838   -1.9689 C.ar    1  UNL1       -0.0564
     28 C          -1.5396    0.5745   -1.3017 C.ar    1  UNL1       -0.0493
     29 H          -5.0839    2.7306    2.1899 H       1  UNL1        0.1424
     30 H          -5.0734    2.6282    0.4166 H       1  UNL1        0.1424
     31 H          -7.5988    1.6495    2.5530 H       1  UNL1        0.0636
     32 H          -8.7170   -0.5353    2.6651 H       1  UNL1        0.0618
     33 H          -7.6695   -2.4643    1.5544 H       1  UNL1        0.0618
     34 H          -5.6259   -2.2496    0.3935 H       1  UNL1        0.0637
     35 H          -3.7027    1.0267    0.0767 H       1  UNL1        0.1552
     36 H          -1.8874   -2.6876   -1.9349 H       1  UNL1        0.0625
     37 H           0.2723   -2.2805   -3.1089 H       1  UNL1        0.0621
     38 H           1.7040    1.0319   -3.6224 H       1  UNL1        0.0513
     39 H           1.6351   -0.6284   -4.3026 H       1  UNL1        0.0513
     40 H           3.2424   -1.2864   -2.6845 H       1  UNL1        0.1523
     41 H           5.2150    2.0566   -0.2919 H       1  UNL1        0.0750
     42 H           4.0662    1.3216    0.9471 H       1  UNL1        0.0750
     43 H           7.4301    1.2402   -0.5362 H       1  UNL1        0.0622
     44 H           9.3448    0.1149    0.5789 H       1  UNL1        0.0633
     45 H           8.9730   -1.2962    2.5578 H       1  UNL1        0.0829
     46 H           4.8291   -0.4555    2.2929 H       1  UNL1        0.0833
     47 H           0.0829    1.7842   -1.9598 H       1  UNL1        0.0621
     48 H          -2.0072    1.4051   -0.8105 H       1  UNL1        0.0625
@<TRIPOS>BOND
     1     1     2    1
     2     2     3   ar
     3     3     4   ar
     4     4     5   ar
     5     5     6   ar
     6     6     7   ar
     7     7     8    1
     8     8     9   am
     9     9    10    2
    10     9    11    1
    11    11    12   ar
    12    12    13   ar
    13    13    14   ar
    14    14    15    1
    15    15    16    1
    16    16    17   am
    17    17    18    2
    18    17    19    1
    19    19    20    1
    20    20    21    1
    21    21    22   ar
    22    22    23   ar
    23    23    24   ar
    24    24    25   ar
    25    25    26   ar
    26    14    27   ar
    27    27    28   ar
    28     7     2   ar
    29    28    11   ar
    30    26    21   ar
    31     1    29    1
    32     1    30    1
    33     3    31    1
    34     4    32    1
    35     5    33    1
    36     6    34    1
    37     8    35    1
    38    12    36    1
    39    13    37    1
    40    15    38    1
    41    15    39    1
    42    16    40    1
    43    20    41    1
    44    20    42    1
    45    22    43    1
    46    23    44    1
    47    24    45    1
    48    26    46    1
    49    27    47    1
    50    28    48    1
