
     RDKit          3D

 52 55  0  0  0  0  0  0  0  0999 V2000
   -1.8064    1.0532   -2.0946 C   0  0  0  0  0  0  0  0  0  0  0  0
   -1.2863    0.1503   -0.9807 C   0  0  0  0  0  0  0  0  0  0  0  0
   -0.1194   -0.5684   -1.4796 C   0  0  0  0  0  0  0  0  0  0  0  0
    1.1246   -0.3223   -0.8785 C   0  0  0  0  0  0  0  0  0  0  0  0
    2.2859   -0.9398   -1.2657 C   0  0  0  0  0  0  0  0  0  0  0  0
    3.5626   -0.7357   -0.7029 N   0  0  0  0  0  0  0  0  0  0  0  0
    3.9167    0.1172    0.3445 C   0  0  0  0  0  0  0  0  0  0  0  0
    3.0464    0.8152    0.8980 O   0  0  0  0  0  0  0  0  0  0  0  0
    5.3080    0.2331    0.8384 C   0  0  0  0  0  0  0  0  0  0  0  0
    5.6208    1.0848    1.8737 C   0  0  0  0  0  0  0  0  0  0  0  0
    6.9252    1.2044    2.3490 C   0  0  0  0  0  0  0  0  0  0  0  0
    7.9370    0.4591    1.7796 C   0  0  0  0  0  0  0  0  0  0  0  0
    9.6063    0.5700    2.3406 Cl  0  0  0  0  0  0  0  0  0  0  0  0
    7.5859   -0.3836    0.7443 C   0  0  0  0  0  0  0  0  0  0  0  0
    6.3091   -0.4836    0.2982 N   0  0  0  0  0  0  0  0  0  0  0  0
    2.1690   -1.8546   -2.3201 C   0  0  0  0  0  0  0  0  0  0  0  0
    0.9852   -2.1372   -2.9463 C   0  0  0  0  0  0  0  0  0  0  0  0
   -0.1367   -1.4780   -2.5022 C   0  0  0  0  0  0  0  0  0  0  0  0
   -1.3105   -1.7430   -3.1061 F   0  0  0  0  0  0  0  0  0  0  0  0
   -2.3633   -0.7954   -0.5041 C   0  0  0  0  0  0  0  0  0  0  0  0
   -3.4651   -0.0683    0.2312 C   0  0  0  0  0  0  0  0  0  0  0  0
   -4.6327    0.1666   -0.7375 C   0  0  0  0  0  0  0  0  0  0  0  0
   -5.8727    0.5989    0.0112 C   0  0  0  0  0  0  0  0  0  0  0  0
   -6.2957   -0.4618    0.8092 O   0  0  0  0  0  0  0  0  0  0  0  0
   -5.3290   -0.5935    1.8232 C   0  0  0  0  0  0  0  0  0  0  0  0
   -4.0020   -1.0446    1.2689 C   0  0  0  0  0  0  0  0  0  0  0  0
   -3.0546    1.1233    0.8256 O   0  0  0  0  0  0  0  0  0  0  0  0
   -1.7256    1.4884    0.9615 C   0  0  0  0  0  0  0  0  0  0  0  0
   -1.3588    2.3466    2.0310 N   0  0  0  0  0  0  0  0  0  0  0  0
   -0.8893    1.0225    0.0994 N   0  0  0  0  0  0  0  0  0  0  0  0
   -2.4582    0.5237   -2.7984 H   0  0  0  0  0  0  0  0  0  0  0  0
   -0.9178    1.3936   -2.7031 H   0  0  0  0  0  0  0  0  0  0  0  0
   -2.2426    1.9896   -1.6888 H   0  0  0  0  0  0  0  0  0  0  0  0
    1.1588    0.3921   -0.0700 H   0  0  0  0  0  0  0  0  0  0  0  0
    4.3765   -1.2924   -1.1130 H   0  0  0  0  0  0  0  0  0  0  0  0
    4.8222    1.6722    2.3221 H   0  0  0  0  0  0  0  0  0  0  0  0
    7.1817    1.8678    3.1587 H   0  0  0  0  0  0  0  0  0  0  0  0
    8.3960   -0.9687    0.3014 H   0  0  0  0  0  0  0  0  0  0  0  0
    3.0666   -2.3710   -2.6631 H   0  0  0  0  0  0  0  0  0  0  0  0
    0.9404   -2.8534   -3.7596 H   0  0  0  0  0  0  0  0  0  0  0  0
   -1.8775   -1.4717    0.2264 H   0  0  0  0  0  0  0  0  0  0  0  0
   -2.8246   -1.3220   -1.3492 H   0  0  0  0  0  0  0  0  0  0  0  0
   -4.8445   -0.8108   -1.2210 H   0  0  0  0  0  0  0  0  0  0  0  0
   -4.4018    0.9672   -1.4627 H   0  0  0  0  0  0  0  0  0  0  0  0
   -6.6302    0.8626   -0.7375 H   0  0  0  0  0  0  0  0  0  0  0  0
   -5.6173    1.4580    0.6684 H   0  0  0  0  0  0  0  0  0  0  0  0
   -5.2322    0.3192    2.4305 H   0  0  0  0  0  0  0  0  0  0  0  0
   -5.6971   -1.4079    2.4796 H   0  0  0  0  0  0  0  0  0  0  0  0
   -3.3148   -1.1732    2.1110 H   0  0  0  0  0  0  0  0  0  0  0  0
   -4.1846   -2.0032    0.7089 H   0  0  0  0  0  0  0  0  0  0  0  0
   -0.8506    2.0244    2.8886 H   0  0  0  0  0  0  0  0  0  0  0  0
   -1.5831    3.3800    2.0208 H   0  0  0  0  0  0  0  0  0  0  0  0
  1  2  1  0
  2  3  1  0
  3  4  2  0
  4  5  1  0
  5  6  1  0
  6  7  1  0
  7  8  2  0
  7  9  1  0
  9 10  2  0
 10 11  1  0
 11 12  2  0
 12 13  1  0
 12 14  1  0
 14 15  2  0
  5 16  2  0
 16 17  1  0
 17 18  2  0
 18 19  1  0
  2 20  1  0
 20 21  1  0
 21 22  1  0
 22 23  1  0
 23 24  1  0
 24 25  1  0
 25 26  1  0
 21 27  1  0
 27 28  1  0
 28 29  1  0
 28 30  2  0
 30  2  1  0
 18  3  1  0
 26 21  1  0
 15  9  1  0
  1 31  1  0
  1 32  1  0
  1 33  1  0
  4 34  1  0
  6 35  1  0
 10 36  1  0
 11 37  1  0
 14 38  1  0
 16 39  1  0
 17 40  1  0
 20 41  1  0
 20 42  1  0
 22 43  1  0
 22 44  1  0
 23 45  1  0
 23 46  1  0
 25 47  1  0
 25 48  1  0
 26 49  1  0
 26 50  1  0
 29 51  1  0
 29 52  1  0
M  END
$$$$
