@<TRIPOS>MOLECULE
*****
 52 55 0 0 0
SMALL
GASTEIGER

@<TRIPOS>ATOM
      1 C          -1.8064    1.0532   -2.0946 C.3     1  UNL1       -0.0352
      2 C          -1.2863    0.1503   -0.9807 C.3     1  UNL1        0.0951
      3 C          -0.1194   -0.5684   -1.4796 C.ar    1  UNL1        0.0168
      4 C           1.1246   -0.3223   -0.8785 C.ar    1  UNL1       -0.0323
      5 C           2.2859   -0.9398   -1.2657 C.ar    1  UNL1        0.0342
      6 N           3.5626   -0.7357   -0.7029 N.am    1  UNL1       -0.2802
      7 C           3.9167    0.1172    0.3445 C.2     1  UNL1        0.2666
      8 O           3.0464    0.8152    0.8980 O.2     1  UNL1       -0.2682
      9 C           5.3080    0.2331    0.8384 C.ar    1  UNL1        0.1257
     10 C           5.6208    1.0848    1.8737 C.ar    1  UNL1       -0.0298
     11 C           6.9252    1.2044    2.3490 C.ar    1  UNL1       -0.0397
     12 C           7.9370    0.4591    1.7796 C.ar    1  UNL1        0.0591
     13 CL          9.6063    0.5700    2.3406 Cl      1  UNL1       -0.0820
     14 C           7.5859   -0.3836    0.7443 C.ar    1  UNL1        0.0467
     15 N           6.3091   -0.4836    0.2982 N.ar    1  UNL1       -0.2489
     16 C           2.1690   -1.8546   -2.3201 C.ar    1  UNL1       -0.0377
     17 C           0.9852   -2.1372   -2.9463 C.ar    1  UNL1       -0.0243
     18 C          -0.1367   -1.4780   -2.5022 C.ar    1  UNL1        0.1290
     19 F          -1.3105   -1.7430   -3.1061 F       1  UNL1       -0.2051
     20 C          -2.3633   -0.7954   -0.5041 C.3     1  UNL1        0.0167
     21 C          -3.4651   -0.0683    0.2312 C.3     1  UNL1        0.1202
     22 C          -4.6327    0.1666   -0.7375 C.3     1  UNL1        0.0108
     23 C          -5.8727    0.5989    0.0112 C.3     1  UNL1        0.0513
     24 O          -6.2957   -0.4618    0.8092 O.3     1  UNL1       -0.3795
     25 C          -5.3290   -0.5935    1.8232 C.3     1  UNL1        0.0513
     26 C          -4.0020   -1.0446    1.2689 C.3     1  UNL1        0.0108
     27 O          -3.0546    1.1233    0.8256 O.2     1  UNL1       -0.4591
     28 C          -1.7256    1.4884    0.9615 C.2     1  UNL1        0.2765
     29 N          -1.3588    2.3466    2.0310 N.pl3   1  UNL1       -0.3133
     30 N          -0.8893    1.0225    0.0994 N.2     1  UNL1       -0.2257
     31 H          -2.4582    0.5237   -2.7984 H       1  UNL1        0.0256
     32 H          -0.9178    1.3936   -2.7031 H       1  UNL1        0.0256
     33 H          -2.2426    1.9896   -1.6888 H       1  UNL1        0.0256
     34 H           1.1588    0.3921   -0.0700 H       1  UNL1        0.0640
     35 H           4.3765   -1.2924   -1.1130 H       1  UNL1        0.1552
     36 H           4.8222    1.6722    2.3221 H       1  UNL1        0.0641
     37 H           7.1817    1.8678    3.1587 H       1  UNL1        0.0633
     38 H           8.3960   -0.9687    0.3014 H       1  UNL1        0.0844
     39 H           3.0666   -2.3710   -2.6631 H       1  UNL1        0.0637
     40 H           0.9404   -2.8534   -3.7596 H       1  UNL1        0.0647
     41 H          -1.8775   -1.4717    0.2264 H       1  UNL1        0.0330
     42 H          -2.8246   -1.3220   -1.3492 H       1  UNL1        0.0330
     43 H          -4.8445   -0.8108   -1.2210 H       1  UNL1        0.0326
     44 H          -4.4018    0.9672   -1.4627 H       1  UNL1        0.0326
     45 H          -6.6302    0.8626   -0.7375 H       1  UNL1        0.0561
     46 H          -5.6173    1.4580    0.6684 H       1  UNL1        0.0561
     47 H          -5.2322    0.3192    2.4305 H       1  UNL1        0.0561
     48 H          -5.6971   -1.4079    2.4796 H       1  UNL1        0.0561
     49 H          -3.3148   -1.1732    2.1110 H       1  UNL1        0.0326
     50 H          -4.1846   -2.0032    0.7089 H       1  UNL1        0.0326
     51 H          -0.8506    2.0244    2.8886 H       1  UNL1        0.1466
     52 H          -1.5831    3.3800    2.0208 H       1  UNL1        0.1466
@<TRIPOS>BOND
     1     1     2    1
     2     2     3    1
     3     3     4   ar
     4     4     5   ar
     5     5     6    1
     6     6     7   am
     7     7     8    2
     8     7     9    1
     9     9    10   ar
    10    10    11   ar
    11    11    12   ar
    12    12    13    1
    13    12    14   ar
    14    14    15   ar
    15     5    16   ar
    16    16    17   ar
    17    17    18   ar
    18    18    19    1
    19     2    20    1
    20    20    21    1
    21    21    22    1
    22    22    23    1
    23    23    24    1
    24    24    25    1
    25    25    26    1
    26    21    27    1
    27    27    28    1
    28    28    29    1
    29    28    30    2
    30    30     2    1
    31    18     3   ar
    32    26    21    1
    33    15     9   ar
    34     1    31    1
    35     1    32    1
    36     1    33    1
    37     4    34    1
    38     6    35    1
    39    10    36    1
    40    11    37    1
    41    14    38    1
    42    16    39    1
    43    17    40    1
    44    20    41    1
    45    20    42    1
    46    22    43    1
    47    22    44    1
    48    23    45    1
    49    23    46    1
    50    25    47    1
    51    25    48    1
    52    26    49    1
    53    26    50    1
    54    29    51    1
    55    29    52    1
