@<TRIPOS>MOLECULE
*****
 57 58 0 0 0
SMALL
GASTEIGER

@<TRIPOS>ATOM
      1 C          10.4740    1.7380    0.2314 C.3     1  UNL1       -0.0025
      2 C           9.4174    1.2656    0.2761 C.1     1  UNL1       -0.1040
      3 C           8.1682    0.7281    0.3425 C.1     1  UNL1       -0.0836
      4 C           6.8796    0.1924    0.4247 C.3     1  UNL1        0.0710
      5 N           6.0523    0.2096    1.5665 N.pl3   1  UNL1       -0.3330
      6 C           4.6372    0.5011    1.4614 C.ar    1  UNL1        0.0279
      7 C           4.1765    1.2303    0.4138 C.ar    1  UNL1       -0.0390
      8 C           2.8097    1.4850    0.1212 C.ar    1  UNL1       -0.0351
      9 C           1.9465    0.8496    1.1219 C.ar    1  UNL1        0.0883
     10 S           0.1970    1.1252    0.8267 S.O2    1  UNL1       -0.0020
     11 O          -0.2765    1.9484    1.9820 O.2     1  UNL1       -0.1693
     12 O           0.0277    1.8645   -0.4437 O.2     1  UNL1       -0.1693
     13 C          -0.5667   -0.4781    0.6938 C.3     1  UNL1        0.0863
     14 C          -2.0223   -0.3647    0.3042 C.3     1  UNL1        0.0843
     15 C          -2.0764    0.3707   -1.0144 C.2     1  UNL1        0.2447
     16 O          -2.6358    1.4900   -1.0926 O.2     1  UNL1       -0.2730
     17 N          -1.4718   -0.2424   -2.1843 N.am    1  UNL1       -0.1969
     18 O          -1.5987    0.4152   -3.3347 O.3     1  UNL1       -0.2952
     19 C          -2.7897    0.4080    1.3445 C.3     1  UNL1       -0.0346
     20 C          -3.9770   -0.2155    1.9389 C.3     1  UNL1       -0.0360
     21 C          -4.6757   -1.3572    1.2409 C.3     1  UNL1        0.0179
     22 N          -4.0646   -1.6093   -0.0415 N.am    1  UNL1       -0.2664
     23 C          -4.6741   -1.5680   -1.2933 C.2     1  UNL1        0.4029
     24 O          -4.0951   -1.9827   -2.3498 O.2     1  UNL1       -0.2263
     25 O          -5.9775   -1.0424   -1.4389 O.3     1  UNL1       -0.4505
     26 C          -6.5135   -0.9761   -2.7365 C.3     1  UNL1        0.0913
     27 C          -7.9115   -0.4198   -2.6088 C.3     1  UNL1       -0.0305
     28 C          -2.5910   -1.7276    0.0429 C.3     1  UNL1        0.0333
     29 C           2.4110    0.1548    2.1134 C.ar    1  UNL1       -0.0351
     30 C           3.7779   -0.0498    2.3227 C.ar    1  UNL1       -0.0390
     31 H          10.5670    2.8831    0.7293 H       1  UNL1        0.0362
     32 H          11.4541    1.3788    0.8596 H       1  UNL1        0.0362
     33 H          10.9707    2.0961   -0.7573 H       1  UNL1        0.0362
     34 H           6.3096    0.3127   -0.5771 H       1  UNL1        0.0598
     35 H           7.1146   -1.0057    0.3151 H       1  UNL1        0.0598
     36 H           6.4019    0.0672    2.5347 H       1  UNL1        0.1470
     37 H           4.8655    1.7013   -0.3073 H       1  UNL1        0.0637
     38 H           2.4086    2.0408   -0.6293 H       1  UNL1        0.0637
     39 H          -0.0733   -1.0466   -0.0765 H       1  UNL1        0.0515
     40 H          -0.5697   -1.0479    1.6671 H       1  UNL1        0.0515
     41 H          -0.9556   -1.1487   -2.0109 H       1  UNL1        0.1822
     42 H          -2.1303   -0.1247   -3.9703 H       1  UNL1        0.2414
     43 H          -3.0424    1.3903    0.9060 H       1  UNL1        0.0277
     44 H          -2.0562    0.6349    2.2023 H       1  UNL1        0.0277
     45 H          -3.5604   -0.7274    2.9095 H       1  UNL1        0.0281
     46 H          -4.7160    0.4724    2.3310 H       1  UNL1        0.0281
     47 H          -5.7370   -1.2096    1.2338 H       1  UNL1        0.0465
     48 H          -4.4416   -2.3467    1.8326 H       1  UNL1        0.0465
     49 H          -6.4703   -1.8921   -3.3172 H       1  UNL1        0.0695
     50 H          -5.8542   -0.2003   -3.2540 H       1  UNL1        0.0695
     51 H          -8.6253   -1.1904   -2.3532 H       1  UNL1        0.0262
     52 H          -8.2054    0.2006   -3.4947 H       1  UNL1        0.0262
     53 H          -7.9113    0.3438   -1.7505 H       1  UNL1        0.0262
     54 H          -2.2926   -2.1271   -0.9097 H       1  UNL1        0.0476
     55 H          -2.3859   -2.4508    0.8457 H       1  UNL1        0.0476
     56 H           1.7651   -0.3424    2.8779 H       1  UNL1        0.0637
     57 H           4.1131   -0.6041    3.1356 H       1  UNL1        0.0637
@<TRIPOS>BOND
     1     1     2    1
     2     2     3    3
     3     3     4    1
     4     4     5    1
     5     5     6    1
     6     6     7   ar
     7     7     8   ar
     8     8     9   ar
     9     9    10    1
    10    10    11    2
    11    10    12    2
    12    10    13    1
    13    13    14    1
    14    14    15    1
    15    15    16    2
    16    15    17   am
    17    17    18    1
    18    14    19    1
    19    19    20    1
    20    20    21    1
    21    21    22    1
    22    22    23   am
    23    23    24    2
    24    23    25    1
    25    25    26    1
    26    26    27    1
    27    22    28    1
    28     9    29   ar
    29    29    30   ar
    30    30     6   ar
    31    28    14    1
    32     1    31    1
    33     1    32    1
    34     1    33    1
    35     4    34    1
    36     4    35    1
    37     5    36    1
    38     7    37    1
    39     8    38    1
    40    13    39    1
    41    13    40    1
    42    17    41    1
    43    18    42    1
    44    19    43    1
    45    19    44    1
    46    20    45    1
    47    20    46    1
    48    21    47    1
    49    21    48    1
    50    26    49    1
    51    26    50    1
    52    27    51    1
    53    27    52    1
    54    27    53    1
    55    28    54    1
    56    28    55    1
    57    29    56    1
    58    30    57    1
