@<TRIPOS>MOLECULE
*****
 108 112 0 0 0
SMALL
GASTEIGER

@<TRIPOS>ATOM
      1 C          13.7705   -0.4984    2.7139 C.3     1  UNL1        0.0365
      2 O          14.3076    0.1446    1.6292 O.3     1  UNL1       -0.3807
      3 C          13.5405    0.1389    0.4868 C.3     1  UNL1        0.0706
      4 C          12.2051    0.7861    0.6471 C.3     1  UNL1        0.0711
      5 O          11.4822    0.7552   -0.5445 O.3     1  UNL1       -0.3752
      6 C          11.2145   -0.4670   -1.0461 C.3     1  UNL1        0.0711
      7 C          10.3972   -1.3935   -0.1928 C.3     1  UNL1        0.0711
      8 O           9.1935   -1.0882    0.1538 O.3     1  UNL1       -0.3742
      9 C           8.5630   -0.1793    0.8433 C.3     1  UNL1        0.0818
     10 C           8.6110    1.2703    0.4351 C.3     1  UNL1        0.1128
     11 O           8.1643    1.5704   -0.8158 O.3     1  UNL1       -0.4895
     12 C           6.9382    1.4650   -1.3821 C.ar    1  UNL1        0.1258
     13 C           5.7760    1.0185   -0.7407 C.ar    1  UNL1        0.0015
     14 C           4.5584    0.9203   -1.3448 C.ar    1  UNL1        0.0405
     15 N           3.4022    0.4625   -0.6648 N.pl3   1  UNL1       -0.2833
     16 C           3.2864    0.0739    0.6809 C.ar    1  UNL1        0.2226
     17 N           4.2819    0.0877    1.5540 N.ar    1  UNL1       -0.2225
     18 C           4.1282   -0.2902    2.8227 C.ar    1  UNL1        0.0362
     19 C           2.8929   -0.7158    3.2658 C.ar    1  UNL1        0.0186
     20 C           1.8632   -0.7241    2.3405 C.ar    1  UNL1        0.2249
     21 O           0.6070   -1.1538    2.7792 O.3     1  UNL1       -0.4373
     22 C          -0.4347   -1.1127    1.8505 C.ar    1  UNL1        0.1381
     23 C          -1.0515   -2.2591    1.4049 C.ar    1  UNL1       -0.0169
     24 C          -2.0801   -2.2455    0.4869 C.ar    1  UNL1       -0.0363
     25 C          -2.5312   -1.0426   -0.0240 C.ar    1  UNL1        0.0427
     26 N          -3.5756   -0.9646   -0.9722 N.am    1  UNL1       -0.2686
     27 C          -4.9156   -0.8450   -0.4937 C.2     1  UNL1        0.3082
     28 O          -5.1104   -0.8151    0.7466 O.2     1  UNL1       -0.2521
     29 N          -6.0248   -0.7594   -1.3657 N.am    1  UNL1       -0.2660
     30 C          -7.3277   -0.6419   -0.8267 C.ar    1  UNL1        0.0789
     31 C          -8.1131   -1.7592   -0.5368 C.ar    1  UNL1       -0.0330
     32 C          -9.3796   -1.6337   -0.0172 C.ar    1  UNL1       -0.0382
     33 C         -10.2444   -2.8125    0.3039 C.3     1  UNL1       -0.0126
     34 C          -9.5152   -4.0995   -0.0196 C.3     1  UNL1       -0.0560
     35 C         -11.5316   -2.7541   -0.5256 C.3     1  UNL1       -0.0560
     36 C         -10.6366   -2.8270    1.7537 C.3     1  UNL1       -0.0560
     37 C          -9.8537   -0.3596    0.2106 C.ar    1  UNL1       -0.0320
     38 C          -9.0881    0.7769   -0.0705 C.ar    1  UNL1        0.0913
     39 N          -9.5870    2.0775    0.1722 N.pl3   1  UNL1       -0.2173
     40 S         -11.2314    2.3884    0.5759 S.O2    1  UNL1        0.0404
     41 C         -12.3080    1.8686   -0.7421 C.3     1  UNL1        0.0736
     42 O         -11.5655    1.6563    1.8299 O.2     1  UNL1       -0.1555
     43 O         -11.4460    3.8430    0.7968 O.2     1  UNL1       -0.1555
     44 C          -7.8251    0.6196   -0.5895 C.ar    1  UNL1        0.1634
     45 O          -7.0452    1.7128   -0.8774 O.3     1  UNL1       -0.4914
     46 C          -7.0197    2.3839   -2.1106 C.3     1  UNL1        0.0790
     47 C          -1.9254    0.0965    0.4147 C.ar    1  UNL1        0.0069
     48 C          -2.3864    1.3019   -0.0846 C.ar    1  UNL1       -0.0521
     49 C          -1.7931    2.4590    0.3619 C.ar    1  UNL1       -0.0611
     50 C          -0.7682    2.4826    1.2767 C.ar    1  UNL1       -0.0611
     51 C          -0.3023    1.2889    1.7791 C.ar    1  UNL1       -0.0505
     52 C          -0.8773    0.1158    1.3480 C.ar    1  UNL1        0.0262
     53 N           2.0778   -0.3378    1.0968 N.ar    1  UNL1       -0.1789
     54 C           4.4793    1.2910   -2.6818 C.ar    1  UNL1        0.0015
     55 C           5.5785    1.7350   -3.3593 C.ar    1  UNL1        0.1253
     56 O           5.4619    2.0943   -4.6841 O.3     1  UNL1       -0.4949
     57 C           4.2203    2.0030   -5.3303 C.3     1  UNL1        0.0788
     58 C           6.7924    1.8278   -2.7413 C.ar    1  UNL1        0.0219
     59 H          14.4998   -0.4344    3.5729 H       1  UNL1        0.0524
     60 H          13.4791   -1.5358    2.5594 H       1  UNL1        0.0524
     61 H          12.8521    0.0772    3.0386 H       1  UNL1        0.0524
     62 H          14.1081    0.6632   -0.3161 H       1  UNL1        0.0582
     63 H          13.3952   -0.9119    0.0955 H       1  UNL1        0.0582
     64 H          11.6377    0.3007    1.4705 H       1  UNL1        0.0583
     65 H          12.3103    1.8538    0.9199 H       1  UNL1        0.0583
     66 H          12.1252   -0.9927   -1.4500 H       1  UNL1        0.0583
     67 H          10.5969   -0.2984   -1.9878 H       1  UNL1        0.0583
     68 H          11.0016   -1.6344    0.7618 H       1  UNL1        0.0583
     69 H          10.4613   -2.4345   -0.7114 H       1  UNL1        0.0583
     70 H           7.5148   -0.4962    1.1583 H       1  UNL1        0.0594
     71 H           9.0543   -0.1640    1.9136 H       1  UNL1        0.0594
     72 H           9.5337    1.7780    0.7815 H       1  UNL1        0.0720
     73 H           7.8151    1.7461    1.1719 H       1  UNL1        0.0720
     74 H           5.9289    0.7776    0.2930 H       1  UNL1        0.0673
     75 H           2.5211    0.4144   -1.2698 H       1  UNL1        0.1550
     76 H           4.9770   -0.2593    3.4961 H       1  UNL1        0.0832
     77 H           2.7288   -1.0265    4.2749 H       1  UNL1        0.0686
     78 H          -0.7069   -3.2032    1.7982 H       1  UNL1        0.0655
     79 H          -2.5780   -3.1330    0.1233 H       1  UNL1        0.0637
     80 H          -3.4077   -0.9906   -1.9986 H       1  UNL1        0.1564
     81 H          -5.9138   -0.7799   -2.3976 H       1  UNL1        0.1565
     82 H          -7.7112   -2.7223   -0.7266 H       1  UNL1        0.0640
     83 H          -8.6355   -4.1659    0.6834 H       1  UNL1        0.0238
     84 H         -10.1853   -4.9515    0.2367 H       1  UNL1        0.0238
     85 H          -9.1643   -4.1371   -1.0609 H       1  UNL1        0.0238
     86 H         -11.3584   -2.1431   -1.4512 H       1  UNL1        0.0238
     87 H         -12.2781   -2.1902    0.0806 H       1  UNL1        0.0238
     88 H         -11.8706   -3.7669   -0.7581 H       1  UNL1        0.0238
     89 H         -11.1900   -3.7792    1.9278 H       1  UNL1        0.0238
     90 H         -11.2461   -1.9450    2.0288 H       1  UNL1        0.0238
     91 H          -9.7240   -2.8947    2.3915 H       1  UNL1        0.0238
     92 H         -10.8363   -0.1986    0.6171 H       1  UNL1        0.0641
     93 H          -8.9313    2.8873    0.1050 H       1  UNL1        0.1734
     94 H         -12.0154    0.8841   -1.1564 H       1  UNL1        0.0482
     95 H         -12.3482    2.6331   -1.5498 H       1  UNL1        0.0482
     96 H         -13.3248    1.7693   -0.3335 H       1  UNL1        0.0482
     97 H          -5.9859    2.6391   -2.4437 H       1  UNL1        0.0660
     98 H          -7.4772    1.7516   -2.9143 H       1  UNL1        0.0660
     99 H          -7.5479    3.3763   -2.0509 H       1  UNL1        0.0660
    100 H          -3.1908    1.3138   -0.8044 H       1  UNL1        0.0624
    101 H          -2.1738    3.4031   -0.0469 H       1  UNL1        0.0618
    102 H          -0.3256    3.4434    1.6036 H       1  UNL1        0.0618
    103 H           0.4956    1.3098    2.5162 H       1  UNL1        0.0625
    104 H           3.5121    1.2188   -3.1804 H       1  UNL1        0.0673
    105 H           4.3179    2.2832   -6.4113 H       1  UNL1        0.0660
    106 H           3.4457    2.6091   -4.8388 H       1  UNL1        0.0660
    107 H           3.8254    0.9484   -5.3163 H       1  UNL1        0.0660
    108 H           7.6902    2.1714   -3.2274 H       1  UNL1        0.0691
@<TRIPOS>BOND
     1     1     2    1
     2     2     3    1
     3     3     4    1
     4     4     5    1
     5     5     6    1
     6     6     7    1
     7     7     8    1
     8     8     9    1
     9     9    10    1
    10    10    11    1
    11    11    12    1
    12    12    13   ar
    13    13    14   ar
    14    14    15    1
    15    15    16    1
    16    16    17   ar
    17    17    18   ar
    18    18    19   ar
    19    19    20   ar
    20    20    21    1
    21    21    22    1
    22    22    23   ar
    23    23    24   ar
    24    24    25   ar
    25    25    26    1
    26    26    27   am
    27    27    28    2
    28    27    29   am
    29    29    30    1
    30    30    31   ar
    31    31    32   ar
    32    32    33    1
    33    33    34    1
    34    33    35    1
    35    33    36    1
    36    32    37   ar
    37    37    38   ar
    38    38    39    1
    39    39    40    1
    40    40    41    1
    41    40    42    2
    42    40    43    2
    43    38    44   ar
    44    44    45    1
    45    45    46    1
    46    25    47   ar
    47    47    48   ar
    48    48    49   ar
    49    49    50   ar
    50    50    51   ar
    51    51    52   ar
    52    20    53   ar
    53    14    54   ar
    54    54    55   ar
    55    55    56    1
    56    56    57    1
    57    55    58   ar
    58    58    12   ar
    59    53    16   ar
    60    52    22   ar
    61    44    30   ar
    62    52    47   ar
    63     1    59    1
    64     1    60    1
    65     1    61    1
    66     3    62    1
    67     3    63    1
    68     4    64    1
    69     4    65    1
    70     6    66    1
    71     6    67    1
    72     7    68    1
    73     7    69    1
    74     9    70    1
    75     9    71    1
    76    10    72    1
    77    10    73    1
    78    13    74    1
    79    15    75    1
    80    18    76    1
    81    19    77    1
    82    23    78    1
    83    24    79    1
    84    26    80    1
    85    29    81    1
    86    31    82    1
    87    34    83    1
    88    34    84    1
    89    34    85    1
    90    35    86    1
    91    35    87    1
    92    35    88    1
    93    36    89    1
    94    36    90    1
    95    36    91    1
    96    37    92    1
    97    39    93    1
    98    41    94    1
    99    41    95    1
   100    41    96    1
   101    46    97    1
   102    46    98    1
   103    46    99    1
   104    48   100    1
   105    49   101    1
   106    50   102    1
   107    51   103    1
   108    54   104    1
   109    57   105    1
   110    57   106    1
   111    57   107    1
   112    58   108    1
