
     RDKit          3D

 47 48  0  0  0  0  0  0  0  0999 V2000
   -4.9239    2.7323   -1.2585 C   0  0  0  0  0  0  0  0  0  0  0  0
   -3.5282    2.7769   -1.1232 O   0  0  0  0  0  0  0  0  0  0  0  0
   -2.7095    1.6729   -0.9414 C   0  0  0  0  0  0  0  0  0  0  0  0
   -3.4695    0.6541   -0.9249 O   0  0  0  0  0  0  0  0  0  0  0  0
   -1.2774    1.7599   -0.8064 C   0  0  0  0  0  0  0  0  0  0  0  0
   -0.7027    2.9520   -0.8571 C   0  0  0  0  0  0  0  0  0  0  0  0
    0.7132    2.9583   -0.7164 N   0  0  0  0  0  0  0  0  0  0  0  0
    1.4990    1.7861   -0.5317 C   0  0  0  0  0  0  0  0  0  0  0  0
    2.9772    1.8206   -0.3874 C   0  0  0  0  0  0  0  0  0  0  0  0
    0.8129    0.6515   -0.4973 C   0  0  0  0  0  0  0  0  0  0  0  0
   -0.6287    0.4372   -0.6217 C   0  0  0  0  0  0  0  0  0  0  0  0
   -1.2488   -0.3821    0.4207 C   0  0  0  0  0  0  0  0  0  0  0  0
   -1.8755   -1.5925    0.1258 C   0  0  0  0  0  0  0  0  0  0  0  0
   -2.4383   -2.3152    1.1457 C   0  0  0  0  0  0  0  0  0  0  0  0
   -2.4081   -1.8946    2.4377 C   0  0  0  0  0  0  0  0  0  0  0  0
   -1.7916   -0.6938    2.7636 C   0  0  0  0  0  0  0  0  0  0  0  0
   -1.2145    0.0509    1.7308 C   0  0  0  0  0  0  0  0  0  0  0  0
   -3.0718   -3.5470    0.8185 N   0  0  0  0  0  4  0  0  0  0  0  0
   -3.6700   -4.3571    1.7541 O   0  0  0  0  0  1  0  0  0  0  0  0
   -3.1313   -3.9847   -0.3476 O   0  0  0  0  0  0  0  0  0  0  0  0
    1.4982   -0.6229   -0.3134 C   0  0  0  0  0  0  0  0  0  0  0  0
    1.0573   -1.8129   -0.2495 O   0  0  0  0  0  0  0  0  0  0  0  0
    2.8519   -0.7997   -0.1624 O   0  0  0  0  0  0  0  0  0  0  0  0
    3.5164   -2.0090    0.0135 C   0  0  0  0  0  0  0  0  0  0  0  0
    4.3942   -1.8952    1.2515 C   0  0  0  0  0  0  0  0  0  0  0  0
    4.4411   -2.1714   -1.1973 C   0  0  0  0  0  0  0  0  0  0  0  0
   -1.4879    4.1379   -1.0430 C   0  0  0  0  0  0  0  0  0  0  0  0
   -2.1113    5.1030   -1.1783 N   0  0  0  0  0  0  0  0  0  0  0  0
   -5.3549    1.7040   -1.1180 H   0  0  0  0  0  0  0  0  0  0  0  0
   -5.1905    3.0017   -2.3034 H   0  0  0  0  0  0  0  0  0  0  0  0
   -5.4688    3.4080   -0.5964 H   0  0  0  0  0  0  0  0  0  0  0  0
    1.1972    3.8737   -0.7511 H   0  0  0  0  0  0  0  0  0  0  0  0
    3.4472    1.2146   -1.1865 H   0  0  0  0  0  0  0  0  0  0  0  0
    3.3073    2.8721   -0.5106 H   0  0  0  0  0  0  0  0  0  0  0  0
    3.2420    1.3835    0.5742 H   0  0  0  0  0  0  0  0  0  0  0  0
   -0.7746   -0.1037   -1.6017 H   0  0  0  0  0  0  0  0  0  0  0  0
   -1.8897   -1.9150   -0.9218 H   0  0  0  0  0  0  0  0  0  0  0  0
   -2.8455   -2.4449    3.2702 H   0  0  0  0  0  0  0  0  0  0  0  0
   -1.7468   -0.3262    3.7757 H   0  0  0  0  0  0  0  0  0  0  0  0
   -0.7352    0.9908    2.0059 H   0  0  0  0  0  0  0  0  0  0  0  0
    2.8883   -2.9052    0.0321 H   0  0  0  0  0  0  0  0  0  0  0  0
    5.3401   -2.4386    1.0338 H   0  0  0  0  0  0  0  0  0  0  0  0
    4.6246   -0.8417    1.4357 H   0  0  0  0  0  0  0  0  0  0  0  0
    3.8345   -2.3485    2.0892 H   0  0  0  0  0  0  0  0  0  0  0  0
    5.3026   -2.8203   -0.9933 H   0  0  0  0  0  0  0  0  0  0  0  0
    3.8755   -2.5588   -2.0823 H   0  0  0  0  0  0  0  0  0  0  0  0
    4.8741   -1.1610   -1.4558 H   0  0  0  0  0  0  0  0  0  0  0  0
  1  2  1  0
  2  3  1  0
  3  4  2  0
  3  5  1  0
  5  6  2  0
  6  7  1  0
  7  8  1  0
  8  9  1  0
  8 10  2  0
 10 11  1  0
 11 12  1  0
 12 13  2  0
 13 14  1  0
 14 15  2  0
 15 16  1  0
 16 17  2  0
 14 18  1  0
 18 19  1  0
 18 20  2  0
 10 21  1  0
 21 22  2  0
 21 23  1  0
 23 24  1  0
 24 25  1  0
 24 26  1  0
  6 27  1  0
 27 28  3  0
 11  5  1  0
 17 12  1  0
  1 29  1  0
  1 30  1  0
  1 31  1  0
  7 32  1  0
  9 33  1  0
  9 34  1  0
  9 35  1  0
 11 36  1  0
 13 37  1  0
 15 38  1  0
 16 39  1  0
 17 40  1  0
 24 41  1  0
 25 42  1  0
 25 43  1  0
 25 44  1  0
 26 45  1  0
 26 46  1  0
 26 47  1  0
M  CHG  2  18   1  19  -1
M  END
$$$$
