@<TRIPOS>MOLECULE
*****
 16 16 0 0 0
SMALL
GASTEIGER

@<TRIPOS>ATOM
      1 C           2.2714   -0.2458    0.1143 C.3     1  UNL1       -0.0396
      2 C           0.8074    0.0595    0.0522 C.ar    1  UNL1       -0.0470
      3 C           0.4507    1.3691   -0.1998 C.ar    1  UNL1       -0.0586
      4 C          -0.9060    1.6163   -0.2505 C.ar    1  UNL1       -0.0581
      5 C          -1.8434    0.5982   -0.0575 C.ar    1  UNL1       -0.0202
      6 C          -1.4070   -0.6890    0.1904 C.ar    1  UNL1        0.1171
      7 O          -2.2876   -1.7698    0.3956 O.3     1  UNL1       -0.5068
      8 C          -0.0498   -1.0038    0.2541 C.ar    1  UNL1       -0.0173
      9 H           2.7027    0.0129    1.1142 H       1  UNL1        0.0278
     10 H           2.4502   -1.3348   -0.1293 H       1  UNL1        0.0278
     11 H           2.8205    0.2949   -0.7120 H       1  UNL1        0.0278
     12 H           1.1665    2.1455   -0.3470 H       1  UNL1        0.0620
     13 H          -1.2944    2.6242   -0.4447 H       1  UNL1        0.0619
     14 H          -2.9118    0.7958   -0.0979 H       1  UNL1        0.0654
     15 H          -2.3074   -2.4776   -0.3273 H       1  UNL1        0.2921
     16 H           0.3381   -1.9955    0.4452 H       1  UNL1        0.0657
@<TRIPOS>BOND
     1     1     2    1
     2     2     3   ar
     3     3     4   ar
     4     4     5   ar
     5     5     6   ar
     6     6     7    1
     7     6     8   ar
     8     8     2   ar
     9     1     9    1
    10     1    10    1
    11     1    11    1
    12     3    12    1
    13     4    13    1
    14     5    14    1
    15     7    15    1
    16     8    16    1
