
     RDKit          3D

 57 60  0  0  0  0  0  0  0  0999 V2000
   -6.6494    1.1480    1.6474 C   0  0  0  0  0  0  0  0  0  0  0  0
   -6.0123    1.3279    0.2695 C   0  0  0  0  0  0  0  0  0  0  0  0
   -4.6838    0.6375    0.2863 C   0  0  0  0  0  0  0  0  0  0  0  0
   -4.5908   -0.7332    0.1757 C   0  0  0  0  0  0  0  0  0  0  0  0
   -5.7708   -1.5950    0.0028 C   0  0  0  0  0  0  0  0  0  0  0  0
   -6.3388   -1.5249   -1.4108 C   0  0  0  0  0  0  0  0  0  0  0  0
   -3.2990   -1.2348    0.2338 C   0  0  0  0  0  0  0  0  0  0  0  0
   -2.1557   -0.4738    0.3876 C   0  0  0  0  0  0  0  0  0  0  0  0
   -0.7682   -0.9487    0.4813 C   0  0  0  0  0  0  0  0  0  0  0  0
    0.0505    0.2973    0.3453 C   0  0  0  0  0  0  0  0  0  0  0  0
   -0.8963    1.4163    0.6368 C   0  0  0  0  0  0  0  0  0  0  0  0
   -2.2596    0.8912    0.4947 C   0  0  0  0  0  0  0  0  0  0  0  0
   -3.5339    1.4060    0.4401 C   0  0  0  0  0  0  0  0  0  0  0  0
    1.1125    0.2221    1.3306 N   0  0  0  0  0  0  0  0  0  0  0  0
    2.0363    1.2902    1.3556 C   0  0  0  0  0  0  0  0  0  0  0  0
    2.9998    1.3885    0.2078 C   0  0  2  0  0  0  0  0  0  0  0  0
    2.2861    1.5363   -0.9755 O   0  0  0  0  0  0  0  0  0  0  0  0
    3.9404    0.2403    0.1846 C   0  0  0  0  0  0  0  0  0  0  0  0
    4.9773    0.0301   -0.7236 C   0  0  0  0  0  0  0  0  0  0  0  0
    5.0624    1.0675   -1.6680 C   0  0  0  0  0  0  0  0  0  0  0  0
    6.0650    0.9445   -2.6023 C   0  0  0  0  0  0  0  0  0  0  0  0
    6.9449   -0.0992   -2.6487 C   0  0  0  0  0  0  0  0  0  0  0  0
    7.9070   -0.4428   -3.3602 O   0  0  0  0  0  0  0  0  0  0  0  0
    6.7930   -1.0706   -1.6893 N   0  0  0  0  0  0  0  0  0  0  0  0
    5.8346   -1.0494   -0.7177 C   0  0  0  0  0  0  0  0  0  0  0  0
    5.6806   -2.0121    0.2489 C   0  0  0  0  0  0  0  0  0  0  0  0
    6.5608   -3.0795    0.2268 O   0  0  0  0  0  0  0  0  0  0  0  0
    4.6717   -1.8808    1.1922 C   0  0  0  0  0  0  0  0  0  0  0  0
    3.8453   -0.7839    1.1387 C   0  0  0  0  0  0  0  0  0  0  0  0
   -6.2002    0.3442    2.2351 H   0  0  0  0  0  0  0  0  0  0  0  0
   -7.7153    0.9609    1.5173 H   0  0  0  0  0  0  0  0  0  0  0  0
   -6.4556    2.0993    2.2273 H   0  0  0  0  0  0  0  0  0  0  0  0
   -5.8513    2.3839    0.0854 H   0  0  0  0  0  0  0  0  0  0  0  0
   -6.6899    0.9431   -0.5116 H   0  0  0  0  0  0  0  0  0  0  0  0
   -5.4008   -2.6600    0.1261 H   0  0  0  0  0  0  0  0  0  0  0  0
   -6.5475   -1.4926    0.7721 H   0  0  0  0  0  0  0  0  0  0  0  0
   -6.3077   -2.5082   -1.9200 H   0  0  0  0  0  0  0  0  0  0  0  0
   -5.8224   -0.7573   -2.0262 H   0  0  0  0  0  0  0  0  0  0  0  0
   -7.4363   -1.2934   -1.2833 H   0  0  0  0  0  0  0  0  0  0  0  0
   -3.2367   -2.3289    0.1449 H   0  0  0  0  0  0  0  0  0  0  0  0
   -0.5227   -1.7196   -0.2757 H   0  0  0  0  0  0  0  0  0  0  0  0
   -0.6525   -1.3525    1.5232 H   0  0  0  0  0  0  0  0  0  0  0  0
    0.4100    0.3433   -0.6923 H   0  0  0  0  0  0  0  0  0  0  0  0
   -0.7200    1.9053    1.6211 H   0  0  0  0  0  0  0  0  0  0  0  0
   -0.6988    2.2156   -0.1396 H   0  0  0  0  0  0  0  0  0  0  0  0
   -3.6818    2.4912    0.5207 H   0  0  0  0  0  0  0  0  0  0  0  0
    0.7000   -0.0339    2.2407 H   0  0  0  0  0  0  0  0  0  0  0  0
    1.4208    2.2453    1.2942 H   0  0  0  0  0  0  0  0  0  0  0  0
    2.5576    1.4120    2.3420 H   0  0  0  0  0  0  0  0  0  0  0  0
    3.5801    2.3519    0.4101 H   0  0  0  0  0  0  0  0  0  0  0  0
    2.1823    2.5111   -1.1427 H   0  0  0  0  0  0  0  0  0  0  0  0
    4.4383    1.9407   -1.7469 H   0  0  0  0  0  0  0  0  0  0  0  0
    6.3022    1.6335   -3.4206 H   0  0  0  0  0  0  0  0  0  0  0  0
    7.3849   -1.9457   -1.5767 H   0  0  0  0  0  0  0  0  0  0  0  0
    7.3985   -3.1192    0.8190 H   0  0  0  0  0  0  0  0  0  0  0  0
    4.6324   -2.6836    1.9007 H   0  0  0  0  0  0  0  0  0  0  0  0
    3.1230   -0.8014    1.9119 H   0  0  0  0  0  0  0  0  0  0  0  0
  1  2  1  0
  2  3  1  0
  3  4  2  0
  4  5  1  0
  5  6  1  0
  4  7  1  0
  7  8  2  0
  8  9  1  0
  9 10  1  0
 10 11  1  0
 11 12  1  0
 12 13  2  0
 10 14  1  0
 14 15  1  0
 15 16  1  0
 16 17  1  0
 16 18  1  0
 18 19  2  0
 19 20  1  0
 20 21  2  0
 21 22  1  0
 22 23  2  0
 22 24  1  0
 24 25  1  0
 25 26  2  0
 26 27  1  0
 26 28  1  0
 28 29  2  0
 13  3  1  0
 29 18  1  0
 12  8  1  0
 25 19  1  0
  1 30  1  0
  1 31  1  0
  1 32  1  0
  2 33  1  0
  2 34  1  0
  5 35  1  0
  5 36  1  0
  6 37  1  0
  6 38  1  0
  6 39  1  0
  7 40  1  0
  9 41  1  0
  9 42  1  0
 10 43  1  0
 11 44  1  0
 11 45  1  0
 13 46  1  0
 14 47  1  0
 15 48  1  0
 15 49  1  0
 16 50  1  1
 17 51  1  0
 20 52  1  0
 21 53  1  0
 24 54  1  0
 27 55  1  0
 28 56  1  0
 29 57  1  0
M  END
$$$$
