@<TRIPOS>MOLECULE
*****
 89 90 0 0 0
SMALL
GASTEIGER

@<TRIPOS>ATOM
      1 C          10.3647   -0.2944    1.7531 C.3     1  UNL1       -0.0653
      2 C           9.1408   -1.0738    1.3675 C.3     1  UNL1       -0.0559
      3 C           7.9947   -0.1334    1.0111 C.3     1  UNL1       -0.0533
      4 C           8.4154    0.7384   -0.1593 C.3     1  UNL1       -0.0531
      5 C           7.3190    1.6958   -0.5554 C.3     1  UNL1       -0.0531
      6 C           6.0462    0.9744   -0.9726 C.3     1  UNL1       -0.0531
      7 C           6.2902    0.0799   -2.1619 C.3     1  UNL1       -0.0531
      8 C           5.0561   -0.6481   -2.6128 C.3     1  UNL1       -0.0531
      9 C           4.5441   -1.5288   -1.5315 C.3     1  UNL1       -0.0531
     10 C           3.2910   -2.2964   -1.9185 C.3     1  UNL1       -0.0530
     11 C           2.1597   -1.3738   -2.2721 C.3     1  UNL1       -0.0527
     12 C           1.8067   -0.4597   -1.1191 C.3     1  UNL1       -0.0474
     13 C           1.3849   -1.2449    0.1080 C.3     1  UNL1       -0.0079
     14 C           1.0460   -0.3397    1.2164 C.2     1  UNL1        0.0488
     15 S           2.2358    0.5488    1.9395 S.2     1  UNL1       -0.0404
     16 N          -0.2486   -0.1850    1.7050 N.am    1  UNL1       -0.3414
     17 C          -1.4221   -0.8481    1.2258 C.3     1  UNL1        0.0093
     18 C          -1.8458   -0.3579   -0.1078 C.3     1  UNL1       -0.0374
     19 C          -2.1292    1.1287   -0.1340 C.3     1  UNL1       -0.0495
     20 C          -3.1976    1.4903    0.8309 C.3     1  UNL1       -0.0258
     21 C          -4.5254    0.8481    0.6283 C.3     1  UNL1        0.1028
     22 N          -5.0777    1.1751   -0.6728 N.am    1  UNL1       -0.2695
     23 C          -5.5571    0.1972   -1.5547 C.2     1  UNL1        0.4062
     24 O          -5.4978   -1.0118   -1.1864 O.2     1  UNL1       -0.2260
     25 O          -6.0971    0.4319   -2.8071 O.3     1  UNL1       -0.4115
     26 C          -6.5576   -0.5715   -3.6347 C.ar    1  UNL1        0.1332
     27 C          -5.7550   -1.1925   -4.5538 C.ar    1  UNL1       -0.0192
     28 C          -6.2346   -2.2059   -5.3833 C.ar    1  UNL1       -0.0583
     29 C          -7.5485   -2.6123   -5.2959 C.ar    1  UNL1       -0.0615
     30 C          -8.3655   -1.9948   -4.3743 C.ar    1  UNL1       -0.0583
     31 C          -7.8679   -0.9793   -3.5494 C.ar    1  UNL1       -0.0192
     32 C          -5.4296    1.4266    1.6795 C.2     1  UNL1        0.2376
     33 O          -6.4227    2.0668    1.3117 O.2     1  UNL1       -0.2734
     34 N          -5.1272    1.2279    3.0283 N.am    1  UNL1       -0.2840
     35 C          -5.8473    1.6927    4.1584 C.ar    1  UNL1        0.0334
     36 C          -5.4084    1.3723    5.4332 C.ar    1  UNL1       -0.0405
     37 C          -6.0888    1.8165    6.5168 C.ar    1  UNL1       -0.0600
     38 C          -7.2226    2.5890    6.4251 C.ar    1  UNL1       -0.0616
     39 C          -7.6701    2.9144    5.1737 C.ar    1  UNL1       -0.0600
     40 C          -6.9769    2.4625    4.0455 C.ar    1  UNL1       -0.0405
     41 H          11.1603   -0.3591    0.9972 H       1  UNL1        0.0230
     42 H          10.1399    0.7573    2.0272 H       1  UNL1        0.0230
     43 H          10.7760   -0.7570    2.6919 H       1  UNL1        0.0230
     44 H           9.3963   -1.6842    0.4928 H       1  UNL1        0.0263
     45 H           8.8085   -1.7335    2.1930 H       1  UNL1        0.0263
     46 H           7.7999    0.4773    1.9132 H       1  UNL1        0.0265
     47 H           7.1063   -0.7401    0.8179 H       1  UNL1        0.0265
     48 H           8.7372    0.1360   -1.0055 H       1  UNL1        0.0265
     49 H           9.2669    1.3616    0.1911 H       1  UNL1        0.0265
     50 H           7.6918    2.2535   -1.4430 H       1  UNL1        0.0265
     51 H           7.1227    2.3725    0.2811 H       1  UNL1        0.0265
     52 H           5.7060    0.3968   -0.1059 H       1  UNL1        0.0265
     53 H           5.2429    1.7062   -1.1913 H       1  UNL1        0.0265
     54 H           7.0993   -0.6459   -1.9276 H       1  UNL1        0.0265
     55 H           6.6093    0.7272   -3.0273 H       1  UNL1        0.0265
     56 H           4.3310    0.1274   -2.9389 H       1  UNL1        0.0265
     57 H           5.3604   -1.2775   -3.4995 H       1  UNL1        0.0265
     58 H           5.3349   -2.2968   -1.3252 H       1  UNL1        0.0265
     59 H           4.3849   -0.9745   -0.5918 H       1  UNL1        0.0265
     60 H           3.4841   -2.9924   -2.7568 H       1  UNL1        0.0265
     61 H           2.9976   -2.9226   -1.0557 H       1  UNL1        0.0265
     62 H           1.2574   -2.0294   -2.4237 H       1  UNL1        0.0265
     63 H           2.3056   -0.8369   -3.2115 H       1  UNL1        0.0265
     64 H           2.7051    0.1492   -0.8099 H       1  UNL1        0.0269
     65 H           1.0054    0.2263   -1.4092 H       1  UNL1        0.0269
     66 H           0.5963   -1.9467   -0.1656 H       1  UNL1        0.0331
     67 H           2.2815   -1.8366    0.4984 H       1  UNL1        0.0331
     68 H          -0.4421    0.4957    2.5316 H       1  UNL1        0.1463
     69 H          -1.1979   -1.9388    1.1138 H       1  UNL1        0.0461
     70 H          -2.2603   -0.8235    1.9639 H       1  UNL1        0.0461
     71 H          -1.1106   -0.5796   -0.8823 H       1  UNL1        0.0280
     72 H          -2.7992   -0.8658   -0.4181 H       1  UNL1        0.0280
     73 H          -2.4369    1.3843   -1.1630 H       1  UNL1        0.0266
     74 H          -1.2016    1.6440    0.1808 H       1  UNL1        0.0266
     75 H          -3.3524    2.5867    0.9121 H       1  UNL1        0.0288
     76 H          -2.8317    1.1767    1.8505 H       1  UNL1        0.0288
     77 H          -4.4997   -0.2672    0.7236 H       1  UNL1        0.0596
     78 H          -5.1146    2.1646   -0.9513 H       1  UNL1        0.1528
     79 H          -4.7310   -0.8739   -4.6181 H       1  UNL1        0.0654
     80 H          -5.6070   -2.6908   -6.1016 H       1  UNL1        0.0619
     81 H          -7.9471   -3.4108   -5.9420 H       1  UNL1        0.0618
     82 H          -9.4100   -2.3160   -4.3015 H       1  UNL1        0.0619
     83 H          -8.5763   -0.5409   -2.8461 H       1  UNL1        0.0654
     84 H          -4.2481    0.6563    3.2164 H       1  UNL1        0.1549
     85 H          -4.5034    0.7558    5.5033 H       1  UNL1        0.0636
     86 H          -5.7056    1.5390    7.4938 H       1  UNL1        0.0618
     87 H          -7.7464    2.9297    7.3311 H       1  UNL1        0.0618
     88 H          -8.5595    3.5202    5.0768 H       1  UNL1        0.0618
     89 H          -7.4000    2.7681    3.1101 H       1  UNL1        0.0636
@<TRIPOS>BOND
     1     1     2    1
     2     2     3    1
     3     3     4    1
     4     4     5    1
     5     5     6    1
     6     6     7    1
     7     7     8    1
     8     8     9    1
     9     9    10    1
    10    10    11    1
    11    11    12    1
    12    12    13    1
    13    13    14    1
    14    14    15    2
    15    14    16    1
    16    16    17    1
    17    17    18    1
    18    18    19    1
    19    19    20    1
    20    20    21    1
    21    21    22    1
    22    22    23   am
    23    23    24    2
    24    23    25    1
    25    25    26    1
    26    26    27   ar
    27    27    28   ar
    28    28    29   ar
    29    29    30   ar
    30    30    31   ar
    31    21    32    1
    32    32    33    2
    33    32    34   am
    34    34    35    1
    35    35    36   ar
    36    36    37   ar
    37    37    38   ar
    38    38    39   ar
    39    39    40   ar
    40    31    26   ar
    41    40    35   ar
    42     1    41    1
    43     1    42    1
    44     1    43    1
    45     2    44    1
    46     2    45    1
    47     3    46    1
    48     3    47    1
    49     4    48    1
    50     4    49    1
    51     5    50    1
    52     5    51    1
    53     6    52    1
    54     6    53    1
    55     7    54    1
    56     7    55    1
    57     8    56    1
    58     8    57    1
    59     9    58    1
    60     9    59    1
    61    10    60    1
    62    10    61    1
    63    11    62    1
    64    11    63    1
    65    12    64    1
    66    12    65    1
    67    13    66    1
    68    13    67    1
    69    16    68    1
    70    17    69    1
    71    17    70    1
    72    18    71    1
    73    18    72    1
    74    19    73    1
    75    19    74    1
    76    20    75    1
    77    20    76    1
    78    21    77    1
    79    22    78    1
    80    27    79    1
    81    28    80    1
    82    29    81    1
    83    30    82    1
    84    31    83    1
    85    34    84    1
    86    36    85    1
    87    37    86    1
    88    38    87    1
    89    39    88    1
    90    40    89    1
