
     RDKit          3D

 89 90  0  0  0  0  0  0  0  0999 V2000
   10.3647   -0.2944    1.7531 C   0  0  0  0  0  0  0  0  0  0  0  0
    9.1408   -1.0738    1.3675 C   0  0  0  0  0  0  0  0  0  0  0  0
    7.9947   -0.1334    1.0111 C   0  0  0  0  0  0  0  0  0  0  0  0
    8.4154    0.7384   -0.1593 C   0  0  0  0  0  0  0  0  0  0  0  0
    7.3190    1.6958   -0.5554 C   0  0  0  0  0  0  0  0  0  0  0  0
    6.0462    0.9744   -0.9726 C   0  0  0  0  0  0  0  0  0  0  0  0
    6.2902    0.0799   -2.1619 C   0  0  0  0  0  0  0  0  0  0  0  0
    5.0561   -0.6481   -2.6128 C   0  0  0  0  0  0  0  0  0  0  0  0
    4.5441   -1.5288   -1.5315 C   0  0  0  0  0  0  0  0  0  0  0  0
    3.2910   -2.2964   -1.9185 C   0  0  0  0  0  0  0  0  0  0  0  0
    2.1597   -1.3738   -2.2721 C   0  0  0  0  0  0  0  0  0  0  0  0
    1.8067   -0.4597   -1.1191 C   0  0  0  0  0  0  0  0  0  0  0  0
    1.3849   -1.2449    0.1080 C   0  0  0  0  0  0  0  0  0  0  0  0
    1.0460   -0.3397    1.2164 C   0  0  0  0  0  0  0  0  0  0  0  0
    2.2358    0.5488    1.9395 S   0  0  0  0  0  0  0  0  0  0  0  0
   -0.2486   -0.1850    1.7050 N   0  0  0  0  0  0  0  0  0  0  0  0
   -1.4221   -0.8481    1.2258 C   0  0  0  0  0  0  0  0  0  0  0  0
   -1.8458   -0.3579   -0.1078 C   0  0  0  0  0  0  0  0  0  0  0  0
   -2.1292    1.1287   -0.1340 C   0  0  0  0  0  0  0  0  0  0  0  0
   -3.1976    1.4903    0.8309 C   0  0  0  0  0  0  0  0  0  0  0  0
   -4.5254    0.8481    0.6283 C   0  0  0  0  0  0  0  0  0  0  0  0
   -5.0777    1.1751   -0.6728 N   0  0  0  0  0  0  0  0  0  0  0  0
   -5.5571    0.1972   -1.5547 C   0  0  0  0  0  0  0  0  0  0  0  0
   -5.4978   -1.0118   -1.1864 O   0  0  0  0  0  0  0  0  0  0  0  0
   -6.0971    0.4319   -2.8071 O   0  0  0  0  0  0  0  0  0  0  0  0
   -6.5576   -0.5715   -3.6347 C   0  0  0  0  0  0  0  0  0  0  0  0
   -5.7550   -1.1925   -4.5538 C   0  0  0  0  0  0  0  0  0  0  0  0
   -6.2346   -2.2059   -5.3833 C   0  0  0  0  0  0  0  0  0  0  0  0
   -7.5485   -2.6123   -5.2959 C   0  0  0  0  0  0  0  0  0  0  0  0
   -8.3655   -1.9948   -4.3743 C   0  0  0  0  0  0  0  0  0  0  0  0
   -7.8679   -0.9793   -3.5494 C   0  0  0  0  0  0  0  0  0  0  0  0
   -5.4296    1.4266    1.6795 C   0  0  0  0  0  0  0  0  0  0  0  0
   -6.4227    2.0668    1.3117 O   0  0  0  0  0  0  0  0  0  0  0  0
   -5.1272    1.2279    3.0283 N   0  0  0  0  0  0  0  0  0  0  0  0
   -5.8473    1.6927    4.1584 C   0  0  0  0  0  0  0  0  0  0  0  0
   -5.4084    1.3723    5.4332 C   0  0  0  0  0  0  0  0  0  0  0  0
   -6.0888    1.8165    6.5168 C   0  0  0  0  0  0  0  0  0  0  0  0
   -7.2226    2.5890    6.4251 C   0  0  0  0  0  0  0  0  0  0  0  0
   -7.6701    2.9144    5.1737 C   0  0  0  0  0  0  0  0  0  0  0  0
   -6.9769    2.4625    4.0455 C   0  0  0  0  0  0  0  0  0  0  0  0
   11.1603   -0.3591    0.9972 H   0  0  0  0  0  0  0  0  0  0  0  0
   10.1399    0.7573    2.0272 H   0  0  0  0  0  0  0  0  0  0  0  0
   10.7760   -0.7570    2.6919 H   0  0  0  0  0  0  0  0  0  0  0  0
    9.3963   -1.6842    0.4928 H   0  0  0  0  0  0  0  0  0  0  0  0
    8.8085   -1.7335    2.1930 H   0  0  0  0  0  0  0  0  0  0  0  0
    7.7999    0.4773    1.9132 H   0  0  0  0  0  0  0  0  0  0  0  0
    7.1063   -0.7401    0.8179 H   0  0  0  0  0  0  0  0  0  0  0  0
    8.7372    0.1360   -1.0055 H   0  0  0  0  0  0  0  0  0  0  0  0
    9.2669    1.3616    0.1911 H   0  0  0  0  0  0  0  0  0  0  0  0
    7.6918    2.2535   -1.4430 H   0  0  0  0  0  0  0  0  0  0  0  0
    7.1227    2.3725    0.2811 H   0  0  0  0  0  0  0  0  0  0  0  0
    5.7060    0.3968   -0.1059 H   0  0  0  0  0  0  0  0  0  0  0  0
    5.2429    1.7062   -1.1913 H   0  0  0  0  0  0  0  0  0  0  0  0
    7.0993   -0.6459   -1.9276 H   0  0  0  0  0  0  0  0  0  0  0  0
    6.6093    0.7272   -3.0273 H   0  0  0  0  0  0  0  0  0  0  0  0
    4.3310    0.1274   -2.9389 H   0  0  0  0  0  0  0  0  0  0  0  0
    5.3604   -1.2775   -3.4995 H   0  0  0  0  0  0  0  0  0  0  0  0
    5.3349   -2.2968   -1.3252 H   0  0  0  0  0  0  0  0  0  0  0  0
    4.3849   -0.9745   -0.5918 H   0  0  0  0  0  0  0  0  0  0  0  0
    3.4841   -2.9924   -2.7568 H   0  0  0  0  0  0  0  0  0  0  0  0
    2.9976   -2.9226   -1.0557 H   0  0  0  0  0  0  0  0  0  0  0  0
    1.2574   -2.0294   -2.4237 H   0  0  0  0  0  0  0  0  0  0  0  0
    2.3056   -0.8369   -3.2115 H   0  0  0  0  0  0  0  0  0  0  0  0
    2.7051    0.1492   -0.8099 H   0  0  0  0  0  0  0  0  0  0  0  0
    1.0054    0.2263   -1.4092 H   0  0  0  0  0  0  0  0  0  0  0  0
    0.5963   -1.9467   -0.1656 H   0  0  0  0  0  0  0  0  0  0  0  0
    2.2815   -1.8366    0.4984 H   0  0  0  0  0  0  0  0  0  0  0  0
   -0.4421    0.4957    2.5316 H   0  0  0  0  0  0  0  0  0  0  0  0
   -1.1979   -1.9388    1.1138 H   0  0  0  0  0  0  0  0  0  0  0  0
   -2.2603   -0.8235    1.9639 H   0  0  0  0  0  0  0  0  0  0  0  0
   -1.1106   -0.5796   -0.8823 H   0  0  0  0  0  0  0  0  0  0  0  0
   -2.7992   -0.8658   -0.4181 H   0  0  0  0  0  0  0  0  0  0  0  0
   -2.4369    1.3843   -1.1630 H   0  0  0  0  0  0  0  0  0  0  0  0
   -1.2016    1.6440    0.1808 H   0  0  0  0  0  0  0  0  0  0  0  0
   -3.3524    2.5867    0.9121 H   0  0  0  0  0  0  0  0  0  0  0  0
   -2.8317    1.1767    1.8505 H   0  0  0  0  0  0  0  0  0  0  0  0
   -4.4997   -0.2672    0.7236 H   0  0  0  0  0  0  0  0  0  0  0  0
   -5.1146    2.1646   -0.9513 H   0  0  0  0  0  0  0  0  0  0  0  0
   -4.7310   -0.8739   -4.6181 H   0  0  0  0  0  0  0  0  0  0  0  0
   -5.6070   -2.6908   -6.1016 H   0  0  0  0  0  0  0  0  0  0  0  0
   -7.9471   -3.4108   -5.9420 H   0  0  0  0  0  0  0  0  0  0  0  0
   -9.4100   -2.3160   -4.3015 H   0  0  0  0  0  0  0  0  0  0  0  0
   -8.5763   -0.5409   -2.8461 H   0  0  0  0  0  0  0  0  0  0  0  0
   -4.2481    0.6563    3.2164 H   0  0  0  0  0  0  0  0  0  0  0  0
   -4.5034    0.7558    5.5033 H   0  0  0  0  0  0  0  0  0  0  0  0
   -5.7056    1.5390    7.4938 H   0  0  0  0  0  0  0  0  0  0  0  0
   -7.7464    2.9297    7.3311 H   0  0  0  0  0  0  0  0  0  0  0  0
   -8.5595    3.5202    5.0768 H   0  0  0  0  0  0  0  0  0  0  0  0
   -7.4000    2.7681    3.1101 H   0  0  0  0  0  0  0  0  0  0  0  0
  1  2  1  0
  2  3  1  0
  3  4  1  0
  4  5  1  0
  5  6  1  0
  6  7  1  0
  7  8  1  0
  8  9  1  0
  9 10  1  0
 10 11  1  0
 11 12  1  0
 12 13  1  0
 13 14  1  0
 14 15  2  0
 14 16  1  0
 16 17  1  0
 17 18  1  0
 18 19  1  0
 19 20  1  0
 20 21  1  0
 21 22  1  0
 22 23  1  0
 23 24  2  0
 23 25  1  0
 25 26  1  0
 26 27  2  0
 27 28  1  0
 28 29  2  0
 29 30  1  0
 30 31  2  0
 21 32  1  0
 32 33  2  0
 32 34  1  0
 34 35  1  0
 35 36  2  0
 36 37  1  0
 37 38  2  0
 38 39  1  0
 39 40  2  0
 31 26  1  0
 40 35  1  0
  1 41  1  0
  1 42  1  0
  1 43  1  0
  2 44  1  0
  2 45  1  0
  3 46  1  0
  3 47  1  0
  4 48  1  0
  4 49  1  0
  5 50  1  0
  5 51  1  0
  6 52  1  0
  6 53  1  0
  7 54  1  0
  7 55  1  0
  8 56  1  0
  8 57  1  0
  9 58  1  0
  9 59  1  0
 10 60  1  0
 10 61  1  0
 11 62  1  0
 11 63  1  0
 12 64  1  0
 12 65  1  0
 13 66  1  0
 13 67  1  0
 16 68  1  0
 17 69  1  0
 17 70  1  0
 18 71  1  0
 18 72  1  0
 19 73  1  0
 19 74  1  0
 20 75  1  0
 20 76  1  0
 21 77  1  0
 22 78  1  0
 27 79  1  0
 28 80  1  0
 29 81  1  0
 30 82  1  0
 31 83  1  0
 34 84  1  0
 36 85  1  0
 37 86  1  0
 38 87  1  0
 39 88  1  0
 40 89  1  0
M  END
$$$$
