@<TRIPOS>MOLECULE
*****
 64 69 0 0 0
SMALL
GASTEIGER

@<TRIPOS>ATOM
      1 C           8.0534    2.8145   -0.9690 C.3     1  UNL1       -0.0126
      2 N           7.6574    2.1301    0.2452 N.3     1  UNL1       -0.3024
      3 C           7.3538    0.7728   -0.0593 C.3     1  UNL1        0.0144
      4 C           6.0874    0.2767    0.5998 C.3     1  UNL1        0.0263
      5 N           4.9898    1.1835    0.4252 N.pl3   1  UNL1       -0.3127
      6 C           3.6815    0.6880    0.2556 C.ar    1  UNL1        0.1238
      7 C           2.6528    1.5861    0.0870 C.ar    1  UNL1       -0.0196
      8 C           1.3748    1.0981   -0.0785 C.ar    1  UNL1       -0.0309
      9 C           1.1246   -0.2703   -0.0762 C.ar    1  UNL1        0.0942
     10 C           2.1801   -1.1395    0.0954 C.ar    1  UNL1        0.1806
     11 N           3.4190   -0.6529    0.2555 N.ar    1  UNL1       -0.2111
     12 N           1.6313   -2.3695    0.0521 N.ar    1  UNL1       -0.2077
     13 C           0.3015   -2.2889   -0.1364 C.ar    1  UNL1        0.1492
     14 C          -0.6114   -3.4290   -0.2334 C.ar    1  UNL1        0.0181
     15 C          -0.5916   -4.4553    0.6927 C.ar    1  UNL1       -0.0484
     16 C          -1.4497   -5.5311    0.6054 C.ar    1  UNL1       -0.0258
     17 C          -2.3538   -5.5974   -0.4248 C.ar    1  UNL1        0.1234
     18 F          -3.2132   -6.6301   -0.5513 F       1  UNL1       -0.2055
     19 C          -2.4024   -4.5856   -1.3726 C.ar    1  UNL1       -0.0258
     20 C          -1.5220   -3.5186   -1.2508 C.ar    1  UNL1       -0.0484
     21 N          -0.0160   -0.9760   -0.2166 N.ar    1  UNL1       -0.2747
     22 C          -1.3152   -0.4324   -0.4135 C.ar    1  UNL1        0.1446
     23 C          -1.6048    0.1381   -1.6337 C.ar    1  UNL1       -0.0005
     24 C          -2.8846    0.6663   -1.8085 C.ar    1  UNL1        0.0347
     25 N          -3.7985    0.6235   -0.8340 N.ar    1  UNL1       -0.2228
     26 C          -3.4917    0.0634    0.3426 C.ar    1  UNL1        0.2172
     27 N          -4.4679    0.0075    1.4102 N.pl3   1  UNL1       -0.3106
     28 C          -5.7915    0.5271    1.3020 C.3     1  UNL1        0.0233
     29 C          -6.5717   -0.1349    0.1856 C.3     1  UNL1       -0.0345
     30 C          -7.5596    0.8932   -0.2774 C.3     1  UNL1       -0.0513
     31 C          -7.3440    2.1251    0.5918 C.3     1  UNL1       -0.0513
     32 C          -5.8502    1.9865    0.9113 C.3     1  UNL1       -0.0345
     33 N          -2.2679   -0.4454    0.5195 N.ar    1  UNL1       -0.1967
     34 C           5.2427    2.5931    0.4260 C.3     1  UNL1        0.0263
     35 C           6.6323    2.8417    0.9304 C.3     1  UNL1        0.0144
     36 H           8.2774    3.8987   -0.7710 H       1  UNL1        0.0391
     37 H           7.2907    2.7457   -1.7680 H       1  UNL1        0.0391
     38 H           9.0223    2.3920   -1.3313 H       1  UNL1        0.0391
     39 H           7.3379    0.5677   -1.1554 H       1  UNL1        0.0442
     40 H           8.1842    0.1337    0.3456 H       1  UNL1        0.0442
     41 H           6.2613    0.0249    1.6685 H       1  UNL1        0.0477
     42 H           5.8205   -0.6834    0.1036 H       1  UNL1        0.0477
     43 H           2.8654    2.6508    0.0876 H       1  UNL1        0.0652
     44 H           0.5553    1.8053   -0.2126 H       1  UNL1        0.0640
     45 H           0.1041   -4.4469    1.5228 H       1  UNL1        0.0625
     46 H          -1.4507   -6.3455    1.3198 H       1  UNL1        0.0646
     47 H          -3.1134   -4.6591   -2.1638 H       1  UNL1        0.0646
     48 H          -1.5924   -2.7396   -2.0203 H       1  UNL1        0.0625
     49 H          -0.9017    0.1939   -2.4433 H       1  UNL1        0.0669
     50 H          -3.1765    1.1340   -2.7570 H       1  UNL1        0.0832
     51 H          -4.1756   -0.4436    2.3131 H       1  UNL1        0.1492
     52 H          -6.3374    0.4374    2.2713 H       1  UNL1        0.0498
     53 H          -5.8842   -0.4661   -0.6092 H       1  UNL1        0.0283
     54 H          -7.0865   -1.0392    0.6025 H       1  UNL1        0.0283
     55 H          -8.5889    0.5210   -0.1042 H       1  UNL1        0.0266
     56 H          -7.4324    1.1804   -1.3358 H       1  UNL1        0.0266
     57 H          -7.5583    3.0567    0.0681 H       1  UNL1        0.0266
     58 H          -7.8662    2.0216    1.5714 H       1  UNL1        0.0266
     59 H          -5.5873    2.6283    1.7834 H       1  UNL1        0.0283
     60 H          -5.3113    2.2246   -0.0009 H       1  UNL1        0.0283
     61 H           5.0511    3.0033   -0.5746 H       1  UNL1        0.0477
     62 H           4.5514    3.1489    1.1188 H       1  UNL1        0.0477
     63 H           6.6606    2.5513    2.0013 H       1  UNL1        0.0442
     64 H           6.8055    3.9446    0.8663 H       1  UNL1        0.0442
@<TRIPOS>BOND
     1     1     2    1
     2     2     3    1
     3     3     4    1
     4     4     5    1
     5     5     6    1
     6     6     7   ar
     7     7     8   ar
     8     8     9   ar
     9     9    10   ar
    10    10    11   ar
    11    10    12   ar
    12    12    13   ar
    13    13    14    1
    14    14    15   ar
    15    15    16   ar
    16    16    17   ar
    17    17    18    1
    18    17    19   ar
    19    19    20   ar
    20    13    21   ar
    21    21    22    1
    22    22    23   ar
    23    23    24   ar
    24    24    25   ar
    25    25    26   ar
    26    26    27    1
    27    27    28    1
    28    28    29    1
    29    29    30    1
    30    30    31    1
    31    31    32    1
    32    26    33   ar
    33     5    34    1
    34    34    35    1
    35    35     2    1
    36    11     6   ar
    37    20    14   ar
    38    33    22   ar
    39    21     9   ar
    40    32    28    1
    41     1    36    1
    42     1    37    1
    43     1    38    1
    44     3    39    1
    45     3    40    1
    46     4    41    1
    47     4    42    1
    48     7    43    1
    49     8    44    1
    50    15    45    1
    51    16    46    1
    52    19    47    1
    53    20    48    1
    54    23    49    1
    55    24    50    1
    56    27    51    1
    57    28    52    1
    58    29    53    1
    59    29    54    1
    60    30    55    1
    61    30    56    1
    62    31    57    1
    63    31    58    1
    64    32    59    1
    65    32    60    1
    66    34    61    1
    67    34    62    1
    68    35    63    1
    69    35    64    1
