@<TRIPOS>MOLECULE
*****
 43 45 0 0 0
SMALL
GASTEIGER

@<TRIPOS>ATOM
      1 C          -4.4458   -2.4735   -0.9974 C.3     1  UNL1       -0.0129
      2 N          -4.5438   -1.2616   -0.2840 N.3     1  UNL1       -0.3051
      3 C          -5.0891   -0.1908   -1.0248 C.3     1  UNL1       -0.0129
      4 C          -3.8736   -1.0501    0.9078 C.3     1  UNL1        0.0326
      5 C          -4.1340    0.3339    1.5243 C.3     1  UNL1        0.1039
      6 O          -3.7281    1.3631    0.6812 O.3     1  UNL1       -0.4731
      7 C          -2.4029    1.5628    0.2778 C.ar    1  UNL1        0.2536
      8 N          -1.3912    0.7895    0.6737 N.ar    1  UNL1       -0.1938
      9 C          -0.0944    0.9980    0.2768 C.ar    1  UNL1        0.1461
     10 N           0.8728    0.0731    0.7141 N.pl3   1  UNL1       -0.2831
     11 C           2.2806    0.1708    0.5718 C.ar    1  UNL1        0.1245
     12 C           3.1145   -0.8946    0.7846 C.ar    1  UNL1       -0.0138
     13 C           4.5025   -0.8415    0.6881 C.ar    1  UNL1       -0.0118
     14 C           5.2686   -1.9636    0.9106 C.ar    1  UNL1       -0.0538
     15 C           6.6322   -1.8760    0.7954 C.ar    1  UNL1       -0.0598
     16 C           7.1857   -0.6635    0.4632 C.ar    1  UNL1       -0.0427
     17 C           6.4311    0.4772    0.2367 C.ar    1  UNL1        0.0501
     18 CL          7.1146    2.0216   -0.1792 Cl      1  UNL1       -0.0829
     19 C           5.0570    0.3540    0.3601 C.ar    1  UNL1        0.0187
     20 C           4.2221    1.4481    0.1423 C.ar    1  UNL1        0.0388
     21 N           2.8926    1.3437    0.2449 N.ar    1  UNL1       -0.2395
     22 C           0.1867    2.0418   -0.5609 C.ar    1  UNL1        0.0693
     23 N          -0.8394    2.8333   -0.9699 N.ar    1  UNL1       -0.2364
     24 C          -2.1029    2.6246   -0.5823 C.ar    1  UNL1        0.2019
     25 C          -3.2362    3.3852   -1.0526 C.1     1  UNL1        0.1246
     26 N          -4.1326    4.0105   -1.4266 N.1     1  UNL1       -0.1891
     27 H          -3.9208   -2.3753   -1.9850 H       1  UNL1        0.0391
     28 H          -5.5099   -2.7556   -1.2859 H       1  UNL1        0.0391
     29 H          -4.0516   -3.3320   -0.4155 H       1  UNL1        0.0391
     30 H          -5.8386    0.4181   -0.4687 H       1  UNL1        0.0391
     31 H          -5.6573   -0.6437   -1.8972 H       1  UNL1        0.0391
     32 H          -4.3297    0.4793   -1.5197 H       1  UNL1        0.0391
     33 H          -2.7683   -1.1425    0.8768 H       1  UNL1        0.0460
     34 H          -4.1960   -1.8172    1.6712 H       1  UNL1        0.0460
     35 H          -5.2515    0.4256    1.6396 H       1  UNL1        0.0710
     36 H          -3.6830    0.3618    2.5295 H       1  UNL1        0.0710
     37 H           0.5490   -0.8133    1.2118 H       1  UNL1        0.1550
     38 H           2.6946   -1.8598    1.0367 H       1  UNL1        0.0658
     39 H           4.7956   -2.8942    1.1695 H       1  UNL1        0.0624
     40 H           7.2698   -2.7629    0.9619 H       1  UNL1        0.0618
     41 H           8.2695   -0.5676    0.3679 H       1  UNL1        0.0632
     42 H           4.6965    2.4037   -0.1235 H       1  UNL1        0.0837
     43 H           1.1845    2.2598   -0.9140 H       1  UNL1        0.0865
@<TRIPOS>BOND
     1     1     2    1
     2     2     3    1
     3     2     4    1
     4     4     5    1
     5     5     6    1
     6     6     7    1
     7     7     8   ar
     8     8     9   ar
     9     9    10    1
    10    10    11    1
    11    11    12   ar
    12    12    13   ar
    13    13    14   ar
    14    14    15   ar
    15    15    16   ar
    16    16    17   ar
    17    17    18    1
    18    17    19   ar
    19    19    20   ar
    20    20    21   ar
    21     9    22   ar
    22    22    23   ar
    23    23    24   ar
    24    24    25    1
    25    25    26    3
    26    24     7   ar
    27    21    11   ar
    28    19    13   ar
    29     1    27    1
    30     1    28    1
    31     1    29    1
    32     3    30    1
    33     3    31    1
    34     3    32    1
    35     4    33    1
    36     4    34    1
    37     5    35    1
    38     5    36    1
    39    10    37    1
    40    12    38    1
    41    14    39    1
    42    15    40    1
    43    16    41    1
    44    20    42    1
    45    22    43    1
