
     RDKit          3D

 43 45  0  0  0  0  0  0  0  0999 V2000
   -4.4458   -2.4735   -0.9974 C   0  0  0  0  0  0  0  0  0  0  0  0
   -4.5438   -1.2616   -0.2840 N   0  0  0  0  0  0  0  0  0  0  0  0
   -5.0891   -0.1908   -1.0248 C   0  0  0  0  0  0  0  0  0  0  0  0
   -3.8736   -1.0501    0.9078 C   0  0  0  0  0  0  0  0  0  0  0  0
   -4.1340    0.3339    1.5243 C   0  0  0  0  0  0  0  0  0  0  0  0
   -3.7281    1.3631    0.6812 O   0  0  0  0  0  0  0  0  0  0  0  0
   -2.4029    1.5628    0.2778 C   0  0  0  0  0  0  0  0  0  0  0  0
   -1.3912    0.7895    0.6737 N   0  0  0  0  0  0  0  0  0  0  0  0
   -0.0944    0.9980    0.2768 C   0  0  0  0  0  0  0  0  0  0  0  0
    0.8728    0.0731    0.7141 N   0  0  0  0  0  0  0  0  0  0  0  0
    2.2806    0.1708    0.5718 C   0  0  0  0  0  0  0  0  0  0  0  0
    3.1145   -0.8946    0.7846 C   0  0  0  0  0  0  0  0  0  0  0  0
    4.5025   -0.8415    0.6881 C   0  0  0  0  0  0  0  0  0  0  0  0
    5.2686   -1.9636    0.9106 C   0  0  0  0  0  0  0  0  0  0  0  0
    6.6322   -1.8760    0.7954 C   0  0  0  0  0  0  0  0  0  0  0  0
    7.1857   -0.6635    0.4632 C   0  0  0  0  0  0  0  0  0  0  0  0
    6.4311    0.4772    0.2367 C   0  0  0  0  0  0  0  0  0  0  0  0
    7.1146    2.0216   -0.1792 Cl  0  0  0  0  0  0  0  0  0  0  0  0
    5.0570    0.3540    0.3601 C   0  0  0  0  0  0  0  0  0  0  0  0
    4.2221    1.4481    0.1423 C   0  0  0  0  0  0  0  0  0  0  0  0
    2.8926    1.3437    0.2449 N   0  0  0  0  0  0  0  0  0  0  0  0
    0.1867    2.0418   -0.5609 C   0  0  0  0  0  0  0  0  0  0  0  0
   -0.8394    2.8333   -0.9699 N   0  0  0  0  0  0  0  0  0  0  0  0
   -2.1029    2.6246   -0.5823 C   0  0  0  0  0  0  0  0  0  0  0  0
   -3.2362    3.3852   -1.0526 C   0  0  0  0  0  0  0  0  0  0  0  0
   -4.1326    4.0105   -1.4266 N   0  0  0  0  0  0  0  0  0  0  0  0
   -3.9208   -2.3753   -1.9850 H   0  0  0  0  0  0  0  0  0  0  0  0
   -5.5099   -2.7556   -1.2859 H   0  0  0  0  0  0  0  0  0  0  0  0
   -4.0516   -3.3320   -0.4155 H   0  0  0  0  0  0  0  0  0  0  0  0
   -5.8386    0.4181   -0.4687 H   0  0  0  0  0  0  0  0  0  0  0  0
   -5.6573   -0.6437   -1.8972 H   0  0  0  0  0  0  0  0  0  0  0  0
   -4.3297    0.4793   -1.5197 H   0  0  0  0  0  0  0  0  0  0  0  0
   -2.7683   -1.1425    0.8768 H   0  0  0  0  0  0  0  0  0  0  0  0
   -4.1960   -1.8172    1.6712 H   0  0  0  0  0  0  0  0  0  0  0  0
   -5.2515    0.4256    1.6396 H   0  0  0  0  0  0  0  0  0  0  0  0
   -3.6830    0.3618    2.5295 H   0  0  0  0  0  0  0  0  0  0  0  0
    0.5490   -0.8133    1.2118 H   0  0  0  0  0  0  0  0  0  0  0  0
    2.6946   -1.8598    1.0367 H   0  0  0  0  0  0  0  0  0  0  0  0
    4.7956   -2.8942    1.1695 H   0  0  0  0  0  0  0  0  0  0  0  0
    7.2698   -2.7629    0.9619 H   0  0  0  0  0  0  0  0  0  0  0  0
    8.2695   -0.5676    0.3679 H   0  0  0  0  0  0  0  0  0  0  0  0
    4.6965    2.4037   -0.1235 H   0  0  0  0  0  0  0  0  0  0  0  0
    1.1845    2.2598   -0.9140 H   0  0  0  0  0  0  0  0  0  0  0  0
  1  2  1  0
  2  3  1  0
  2  4  1  0
  4  5  1  0
  5  6  1  0
  6  7  1  0
  7  8  2  0
  8  9  1  0
  9 10  1  0
 10 11  1  0
 11 12  2  0
 12 13  1  0
 13 14  2  0
 14 15  1  0
 15 16  2  0
 16 17  1  0
 17 18  1  0
 17 19  2  0
 19 20  1  0
 20 21  2  0
  9 22  2  0
 22 23  1  0
 23 24  2  0
 24 25  1  0
 25 26  3  0
 24  7  1  0
 21 11  1  0
 19 13  1  0
  1 27  1  0
  1 28  1  0
  1 29  1  0
  3 30  1  0
  3 31  1  0
  3 32  1  0
  4 33  1  0
  4 34  1  0
  5 35  1  0
  5 36  1  0
 10 37  1  0
 12 38  1  0
 14 39  1  0
 15 40  1  0
 16 41  1  0
 20 42  1  0
 22 43  1  0
M  END
$$$$
