@<TRIPOS>MOLECULE
*****
 62 68 0 0 0
SMALL
GASTEIGER

@<TRIPOS>ATOM
      1 C           8.6980   -1.0561   -0.0945 C.3     1  UNL1       -0.0124
      2 N           7.2841   -1.2592   -0.1284 N.3     1  UNL1       -0.2991
      3 C           6.7221   -0.3449   -1.1254 C.3     1  UNL1        0.0176
      4 C           5.7460    0.5278   -0.3612 C.3     1  UNL1        0.0377
      5 C           6.4910    0.5820    0.9875 C.3     1  UNL1       -0.0161
      6 C           6.6146   -0.9489    1.0961 C.3     1  UNL1        0.0276
      7 C           5.1490   -1.3102    0.9121 C.3     1  UNL1        0.0282
      8 N           4.6416   -0.2959   -0.0039 N.pl3   1  UNL1       -0.3241
      9 C           3.3067   -0.1564   -0.4555 C.ar    1  UNL1        0.0300
     10 C           2.9670    0.8906   -1.2802 C.ar    1  UNL1       -0.0400
     11 C           1.6625    1.0139   -1.7154 C.ar    1  UNL1       -0.0508
     12 C           0.6549    0.1214   -1.3591 C.ar    1  UNL1        0.0006
     13 C          -0.6870    0.3575   -1.8805 C.ar    1  UNL1        0.0763
     14 C          -0.9424    0.6893   -3.1936 C.ar    1  UNL1       -0.0174
     15 C          -2.2173    0.9138   -3.6866 C.ar    1  UNL1        0.0320
     16 N          -3.2387    0.7947   -2.8165 N.ar    1  UNL1       -0.2355
     17 C          -3.0155    0.4717   -1.5292 C.ar    1  UNL1        0.1644
     18 C          -3.8458    0.2779   -0.4197 C.ar    1  UNL1        0.0540
     19 C          -5.2823    0.4194   -0.5102 C.ar    1  UNL1       -0.0088
     20 C          -6.0532   -0.6729   -0.8097 C.ar    1  UNL1       -0.0536
     21 C          -7.4438   -0.5382   -0.8921 C.ar    1  UNL1       -0.0577
     22 C          -8.0410    0.6657   -0.6789 C.ar    1  UNL1       -0.0201
     23 C          -7.2817    1.7680   -0.3780 C.ar    1  UNL1        0.1174
     24 O          -7.9172    2.9654   -0.1686 O.3     1  UNL1       -0.5067
     25 C          -5.8900    1.6265   -0.2969 C.ar    1  UNL1       -0.0123
     26 C          -3.0690   -0.0472    0.6744 C.ar    1  UNL1        0.1031
     27 C          -3.5677   -0.3267    2.0266 C.ar    1  UNL1        0.0056
     28 C          -4.4123   -1.4045    2.2725 C.ar    1  UNL1       -0.0343
     29 C          -4.8986   -1.6959    3.5253 C.ar    1  UNL1        0.0282
     30 N          -4.5306   -0.8936    4.5431 N.ar    1  UNL1       -0.2632
     31 C          -3.7131    0.1665    4.3638 C.ar    1  UNL1        0.0282
     32 C          -3.2273    0.4565    3.1057 C.ar    1  UNL1       -0.0343
     33 N          -1.8010   -0.0466    0.2243 N.ar    1  UNL1       -0.1638
     34 N          -1.7699    0.2572   -1.0677 N.ar    1  UNL1       -0.2128
     35 C           1.0082   -0.9078   -0.5440 C.ar    1  UNL1       -0.0508
     36 C           2.3078   -1.0446   -0.1003 C.ar    1  UNL1       -0.0400
     37 H           9.1493   -1.9911    0.3474 H       1  UNL1        0.0391
     38 H           9.1463   -0.9247   -1.0995 H       1  UNL1        0.0391
     39 H           9.0155   -0.1855    0.5193 H       1  UNL1        0.0391
     40 H           7.4690    0.2806   -1.6086 H       1  UNL1        0.0445
     41 H           6.2059   -0.9407   -1.9160 H       1  UNL1        0.0445
     42 H           5.5714    1.4910   -0.7814 H       1  UNL1        0.0513
     43 H           7.4563    1.0759    0.9056 H       1  UNL1        0.0299
     44 H           5.8441    0.9304    1.7987 H       1  UNL1        0.0299
     45 H           7.0631   -1.2733    2.0078 H       1  UNL1        0.0478
     46 H           4.6459   -1.1080    1.8915 H       1  UNL1        0.0479
     47 H           4.9947   -2.3243    0.5424 H       1  UNL1        0.0479
     48 H           3.7266    1.6257   -1.5926 H       1  UNL1        0.0636
     49 H           1.4195    1.8412   -2.3616 H       1  UNL1        0.0625
     50 H          -0.0674    0.7720   -3.8529 H       1  UNL1        0.0654
     51 H          -2.3770    1.1726   -4.7261 H       1  UNL1        0.0831
     52 H          -5.6128   -1.6651   -0.9911 H       1  UNL1        0.0624
     53 H          -7.9940   -1.4372   -1.1331 H       1  UNL1        0.0619
     54 H          -9.1360    0.7544   -0.7466 H       1  UNL1        0.0654
     55 H          -8.1094    3.3622    0.7422 H       1  UNL1        0.2921
     56 H          -5.3454    2.5273   -0.0562 H       1  UNL1        0.0660
     57 H          -4.7084   -2.0470    1.4579 H       1  UNL1        0.0639
     58 H          -5.5640   -2.5530    3.6928 H       1  UNL1        0.0830
     59 H          -3.4534    0.7779    5.2313 H       1  UNL1        0.0830
     60 H          -2.5632    1.3095    2.9341 H       1  UNL1        0.0639
     61 H           0.2283   -1.6162   -0.2559 H       1  UNL1        0.0625
     62 H           2.5872   -1.8708    0.5523 H       1  UNL1        0.0636
@<TRIPOS>BOND
     1     1     2    1
     2     2     3    1
     3     3     4    1
     4     4     5    1
     5     5     6    1
     6     6     7    1
     7     7     8    1
     8     8     9    1
     9     9    10   ar
    10    10    11   ar
    11    11    12   ar
    12    12    13    1
    13    13    14   ar
    14    14    15   ar
    15    15    16   ar
    16    16    17   ar
    17    17    18   ar
    18    18    19    1
    19    19    20   ar
    20    20    21   ar
    21    21    22   ar
    22    22    23   ar
    23    23    24    1
    24    23    25   ar
    25    18    26   ar
    26    26    27    1
    27    27    28   ar
    28    28    29   ar
    29    29    30   ar
    30    30    31   ar
    31    31    32   ar
    32    26    33   ar
    33    33    34   ar
    34    12    35   ar
    35    35    36   ar
    36     6     2    1
    37    36     9   ar
    38     8     4    1
    39    34    13   ar
    40    34    17   ar
    41    25    19   ar
    42    32    27   ar
    43     1    37    1
    44     1    38    1
    45     1    39    1
    46     3    40    1
    47     3    41    1
    48     4    42    1
    49     5    43    1
    50     5    44    1
    51     6    45    1
    52     7    46    1
    53     7    47    1
    54    10    48    1
    55    11    49    1
    56    14    50    1
    57    15    51    1
    58    20    52    1
    59    21    53    1
    60    22    54    1
    61    24    55    1
    62    25    56    1
    63    28    57    1
    64    29    58    1
    65    31    59    1
    66    32    60    1
    67    35    61    1
    68    36    62    1
