@<TRIPOS>MOLECULE
*****
 68 73 0 0 0
SMALL
GASTEIGER

@<TRIPOS>ATOM
      1 C          -7.1664   -0.9210   -1.6240 C.3     1  UNL1       -0.0235
      2 C          -6.5947   -0.5137   -0.2248 C.3     1  UNL1        0.1229
      3 O          -5.3893   -0.8369   -0.0178 O.3     1  UNL1       -0.4831
      4 C          -4.1191   -1.1799    0.2039 C.ar    1  UNL1        0.1426
      5 C          -3.0907   -0.7756   -0.5780 C.ar    1  UNL1        0.0121
      6 C          -1.8232   -1.1558   -0.3058 C.ar    1  UNL1        0.0901
      7 N          -0.5612   -0.9022   -0.9297 N.ar    1  UNL1       -0.2924
      8 C          -0.3761   -0.5319   -2.2267 C.ar    1  UNL1        0.1019
      9 N           0.9267   -0.3836   -2.4730 N.ar    1  UNL1       -0.2353
     10 C           1.6116   -0.6504   -1.3559 C.ar    1  UNL1        0.0899
     11 C           2.9334   -0.6788   -0.9747 C.ar    1  UNL1       -0.0265
     12 C           3.3681   -1.0060    0.2895 C.ar    1  UNL1       -0.0156
     13 C           4.8100   -1.0175    0.6195 C.ar    1  UNL1       -0.0131
     14 C           5.2908   -1.9101    1.5729 C.ar    1  UNL1       -0.0357
     15 C           6.6209   -1.9433    1.8925 C.ar    1  UNL1        0.0303
     16 N           7.4426   -1.0930    1.2612 N.ar    1  UNL1       -0.2403
     17 C           7.0044   -0.2058    0.3221 C.ar    1  UNL1        0.1219
     18 N           7.9196    0.6499   -0.2979 N.pl3   1  UNL1       -0.3108
     19 C           9.3295    0.5396   -0.0098 C.3     1  UNL1        0.0370
     20 C           9.8912    1.9611   -0.1599 C.3     1  UNL1        0.0634
     21 O           9.7987    2.2940   -1.4844 O.3     1  UNL1       -0.3767
     22 C           8.5487    2.2707   -2.0369 C.3     1  UNL1        0.0634
     23 C           7.4666    1.6530   -1.2241 C.3     1  UNL1        0.0370
     24 C           5.6763   -0.1607   -0.0084 C.ar    1  UNL1       -0.0140
     25 C           2.4276   -1.3253    1.2373 C.ar    1  UNL1       -0.0519
     26 C           1.0807   -1.3051    0.8809 C.ar    1  UNL1       -0.0351
     27 C           0.6643   -0.9739   -0.3968 C.ar    1  UNL1        0.0738
     28 S          -2.0036   -2.1937    1.1909 S.2     1  UNL1       -0.0624
     29 C          -3.7989   -1.9948    1.2839 C.ar    1  UNL1        0.1172
     30 C          -4.6274   -2.5891    2.2946 C.2     1  UNL1        0.2518
     31 N          -4.0355   -3.3996    3.2943 N.am    1  UNL1       -0.3248
     32 O          -5.8643   -2.4157    2.3245 O.2     1  UNL1       -0.2697
     33 C          -6.8255    0.9828   -0.1333 C.ar    1  UNL1        0.0040
     34 C          -5.8724    1.8347   -0.6395 C.ar    1  UNL1       -0.0546
     35 C          -6.0365    3.2158   -0.5997 C.ar    1  UNL1       -0.0614
     36 C          -7.1749    3.7589   -0.0432 C.ar    1  UNL1       -0.0612
     37 C          -8.1243    2.9127    0.4611 C.ar    1  UNL1       -0.0497
     38 C          -7.9596    1.5203    0.4213 C.ar    1  UNL1        0.0614
     39 C          -9.0280    0.6859    0.9999 C.3     1  UNL1        0.4178
     40 F          -8.6068   -0.0859    2.0768 F       1  UNL1       -0.1659
     41 F          -9.6191   -0.1229    0.0299 F       1  UNL1       -0.1659
     42 F         -10.0495    1.4777    1.4859 F       1  UNL1       -0.1659
     43 H          -6.3276   -1.0296   -2.3273 H       1  UNL1        0.0269
     44 H          -7.8489   -0.1528   -1.9980 H       1  UNL1        0.0269
     45 H          -7.6844   -1.8793   -1.5357 H       1  UNL1        0.0269
     46 H          -7.3161   -1.0092    0.5123 H       1  UNL1        0.0781
     47 H          -3.2384   -0.1107   -1.4899 H       1  UNL1        0.0681
     48 H          -1.1625   -0.3883   -2.9246 H       1  UNL1        0.1033
     49 H           3.6905   -0.4298   -1.7055 H       1  UNL1        0.0645
     50 H           4.5830   -2.5749    2.0516 H       1  UNL1        0.0639
     51 H           6.9914   -2.6467    2.6429 H       1  UNL1        0.0830
     52 H           9.5631    0.0982    0.9595 H       1  UNL1        0.0487
     53 H           9.8095   -0.0430   -0.8248 H       1  UNL1        0.0487
     54 H          10.9755    1.8719    0.0864 H       1  UNL1        0.0575
     55 H           9.3410    2.5979    0.5360 H       1  UNL1        0.0575
     56 H           8.5591    1.8465   -3.0690 H       1  UNL1        0.0575
     57 H           8.2594    3.3576   -2.1861 H       1  UNL1        0.0575
     58 H           6.7572    1.1541   -1.9427 H       1  UNL1        0.0487
     59 H           6.8219    2.4258   -0.7093 H       1  UNL1        0.0487
     60 H           5.2511    0.5229   -0.7499 H       1  UNL1        0.0658
     61 H           2.6982   -1.5915    2.2467 H       1  UNL1        0.0624
     62 H           0.3797   -1.5658    1.6781 H       1  UNL1        0.0639
     63 H          -3.1328   -3.0806    3.7084 H       1  UNL1        0.1453
     64 H          -4.5082   -4.2852    3.5896 H       1  UNL1        0.1453
     65 H          -4.9708    1.4445   -1.0830 H       1  UNL1        0.0622
     66 H          -5.2426    3.8153   -1.0172 H       1  UNL1        0.0618
     67 H          -7.2987    4.8173   -0.0147 H       1  UNL1        0.0618
     68 H          -9.0143    3.3501    0.8953 H       1  UNL1        0.0623
@<TRIPOS>BOND
     1     1     2    1
     2     2     3    1
     3     3     4    1
     4     4     5   ar
     5     5     6   ar
     6     6     7    1
     7     7     8   ar
     8     8     9   ar
     9     9    10   ar
    10    10    11   ar
    11    11    12   ar
    12    12    13    1
    13    13    14   ar
    14    14    15   ar
    15    15    16   ar
    16    16    17   ar
    17    17    18    1
    18    18    19    1
    19    19    20    1
    20    20    21    1
    21    21    22    1
    22    22    23    1
    23    17    24   ar
    24    12    25   ar
    25    25    26   ar
    26    26    27   ar
    27     6    28   ar
    28    28    29   ar
    29    29    30    1
    30    30    31   am
    31    30    32    2
    32     2    33    1
    33    33    34   ar
    34    34    35   ar
    35    35    36   ar
    36    36    37   ar
    37    37    38   ar
    38    38    39    1
    39    39    40    1
    40    39    41    1
    41    39    42    1
    42    29     4   ar
    43    38    33   ar
    44    27     7   ar
    45    27    10   ar
    46    24    13   ar
    47    23    18    1
    48     1    43    1
    49     1    44    1
    50     1    45    1
    51     2    46    1
    52     5    47    1
    53     8    48    1
    54    11    49    1
    55    14    50    1
    56    15    51    1
    57    19    52    1
    58    19    53    1
    59    20    54    1
    60    20    55    1
    61    22    56    1
    62    22    57    1
    63    23    58    1
    64    23    59    1
    65    24    60    1
    66    25    61    1
    67    26    62    1
    68    31    63    1
    69    31    64    1
    70    34    65    1
    71    35    66    1
    72    36    67    1
    73    37    68    1
