@<TRIPOS>MOLECULE
*****
 44 46 0 0 0
SMALL
GASTEIGER

@<TRIPOS>ATOM
      1 N           1.1293    5.0350    0.4425 N.am    1  UNL1       -0.3131
      2 C           1.3251    3.6285    0.5120 C.2     1  UNL1        0.3013
      3 O           1.4359    3.1323    1.6737 O.2     1  UNL1       -0.2527
      4 N           1.3972    2.7995   -0.6252 N.am    1  UNL1       -0.2684
      5 C           1.6029    1.3674   -0.3820 C.ar    1  UNL1        0.0546
      6 C           2.8016    0.7965   -0.2997 C.ar    1  UNL1       -0.0249
      7 C           2.8850   -0.5424   -0.0710 C.ar    1  UNL1        0.0219
      8 C           4.0828   -1.3870    0.0583 C.ar    1  UNL1       -0.0085
      9 C           3.9548   -2.7337    0.2912 C.ar    1  UNL1       -0.0534
     10 C           5.1158   -3.5085    0.4089 C.ar    1  UNL1       -0.0585
     11 C           6.3718   -2.9266    0.2924 C.ar    1  UNL1       -0.0264
     12 C           6.4911   -1.5832    0.0602 C.ar    1  UNL1        0.1240
     13 F           7.7170   -1.0234   -0.0520 F       1  UNL1       -0.2055
     14 C           5.3167   -0.8362   -0.0525 C.ar    1  UNL1       -0.0182
     15 S           1.2521   -1.0447    0.0367 S.2     1  UNL1       -0.0818
     16 C           0.4975    0.5821   -0.2327 C.ar    1  UNL1        0.0956
     17 C          -0.9464    0.8574   -0.2611 C.2     1  UNL1        0.2528
     18 O          -1.3905    2.0095   -0.4531 O.2     1  UNL1       -0.2696
     19 N          -1.9006   -0.1665   -0.0727 N.am    1  UNL1       -0.3068
     20 C          -3.3147    0.1144   -0.1024 C.3     1  UNL1        0.0359
     21 C          -4.0542   -0.6418   -1.1563 C.3     1  UNL1       -0.0322
     22 C          -5.1702   -1.4948   -0.5505 C.3     1  UNL1       -0.0387
     23 C          -6.0368   -0.6846    0.3835 C.3     1  UNL1       -0.0040
     24 N          -5.2847    0.1947    1.2345 N.3     1  UNL1       -0.3142
     25 C          -3.8891   -0.1664    1.2693 C.3     1  UNL1        0.0144
     26 H           1.9197    5.7118    0.3208 H       1  UNL1        0.1465
     27 H           0.1716    5.4655    0.5108 H       1  UNL1        0.1465
     28 H           1.3092    3.1883   -1.5665 H       1  UNL1        0.1564
     29 H           3.7500    1.3734   -0.4112 H       1  UNL1        0.0648
     30 H           2.9870   -3.2215    0.3877 H       1  UNL1        0.0624
     31 H           5.0288   -4.5697    0.5922 H       1  UNL1        0.0619
     32 H           7.2730   -3.5020    0.3793 H       1  UNL1        0.0646
     33 H           5.4408    0.2268   -0.2367 H       1  UNL1        0.0652
     34 H          -1.5874   -1.1388    0.0901 H       1  UNL1        0.1494
     35 H          -3.4767    1.2081   -0.2882 H       1  UNL1        0.0511
     36 H          -4.5325    0.0437   -1.9150 H       1  UNL1        0.0284
     37 H          -3.3883   -1.3033   -1.7110 H       1  UNL1        0.0284
     38 H          -5.7752   -1.8970   -1.3710 H       1  UNL1        0.0278
     39 H          -4.6958   -2.2958    0.0659 H       1  UNL1        0.0278
     40 H          -6.7989   -0.0875   -0.1700 H       1  UNL1        0.0424
     41 H          -6.5702   -1.4261    1.0478 H       1  UNL1        0.0424
     42 H          -5.3382    1.1808    0.8771 H       1  UNL1        0.1220
     43 H          -3.7438   -1.2201    1.5788 H       1  UNL1        0.0442
     44 H          -3.3624    0.4857    1.9922 H       1  UNL1        0.0442
@<TRIPOS>BOND
     1     1     2   am
     2     2     3    2
     3     2     4   am
     4     4     5    1
     5     5     6   ar
     6     6     7   ar
     7     7     8    1
     8     8     9   ar
     9     9    10   ar
    10    10    11   ar
    11    11    12   ar
    12    12    13    1
    13    12    14   ar
    14     7    15   ar
    15    15    16   ar
    16    16    17    1
    17    17    18    2
    18    17    19   am
    19    19    20    1
    20    20    21    1
    21    21    22    1
    22    22    23    1
    23    23    24    1
    24    24    25    1
    25    16     5   ar
    26    25    20    1
    27    14     8   ar
    28     1    26    1
    29     1    27    1
    30     4    28    1
    31     6    29    1
    32     9    30    1
    33    10    31    1
    34    11    32    1
    35    14    33    1
    36    19    34    1
    37    20    35    1
    38    21    36    1
    39    21    37    1
    40    22    38    1
    41    22    39    1
    42    23    40    1
    43    23    41    1
    44    24    42    1
    45    25    43    1
    46    25    44    1
