
     RDKit          3D

 44 46  0  0  0  0  0  0  0  0999 V2000
    1.1293    5.0350    0.4425 N   0  0  0  0  0  0  0  0  0  0  0  0
    1.3251    3.6285    0.5120 C   0  0  0  0  0  0  0  0  0  0  0  0
    1.4359    3.1323    1.6737 O   0  0  0  0  0  0  0  0  0  0  0  0
    1.3972    2.7995   -0.6252 N   0  0  0  0  0  0  0  0  0  0  0  0
    1.6029    1.3674   -0.3820 C   0  0  0  0  0  0  0  0  0  0  0  0
    2.8016    0.7965   -0.2997 C   0  0  0  0  0  0  0  0  0  0  0  0
    2.8850   -0.5424   -0.0710 C   0  0  0  0  0  0  0  0  0  0  0  0
    4.0828   -1.3870    0.0583 C   0  0  0  0  0  0  0  0  0  0  0  0
    3.9548   -2.7337    0.2912 C   0  0  0  0  0  0  0  0  0  0  0  0
    5.1158   -3.5085    0.4089 C   0  0  0  0  0  0  0  0  0  0  0  0
    6.3718   -2.9266    0.2924 C   0  0  0  0  0  0  0  0  0  0  0  0
    6.4911   -1.5832    0.0602 C   0  0  0  0  0  0  0  0  0  0  0  0
    7.7170   -1.0234   -0.0520 F   0  0  0  0  0  0  0  0  0  0  0  0
    5.3167   -0.8362   -0.0525 C   0  0  0  0  0  0  0  0  0  0  0  0
    1.2521   -1.0447    0.0367 S   0  0  0  0  0  0  0  0  0  0  0  0
    0.4975    0.5821   -0.2327 C   0  0  0  0  0  0  0  0  0  0  0  0
   -0.9464    0.8574   -0.2611 C   0  0  0  0  0  0  0  0  0  0  0  0
   -1.3905    2.0095   -0.4531 O   0  0  0  0  0  0  0  0  0  0  0  0
   -1.9006   -0.1665   -0.0727 N   0  0  0  0  0  0  0  0  0  0  0  0
   -3.3147    0.1144   -0.1024 C   0  0  1  0  0  0  0  0  0  0  0  0
   -4.0542   -0.6418   -1.1563 C   0  0  0  0  0  0  0  0  0  0  0  0
   -5.1702   -1.4948   -0.5505 C   0  0  0  0  0  0  0  0  0  0  0  0
   -6.0368   -0.6846    0.3835 C   0  0  0  0  0  0  0  0  0  0  0  0
   -5.2847    0.1947    1.2345 N   0  0  0  0  0  0  0  0  0  0  0  0
   -3.8891   -0.1664    1.2693 C   0  0  0  0  0  0  0  0  0  0  0  0
    1.9197    5.7118    0.3208 H   0  0  0  0  0  0  0  0  0  0  0  0
    0.1716    5.4655    0.5108 H   0  0  0  0  0  0  0  0  0  0  0  0
    1.3092    3.1883   -1.5665 H   0  0  0  0  0  0  0  0  0  0  0  0
    3.7500    1.3734   -0.4112 H   0  0  0  0  0  0  0  0  0  0  0  0
    2.9870   -3.2215    0.3877 H   0  0  0  0  0  0  0  0  0  0  0  0
    5.0288   -4.5697    0.5922 H   0  0  0  0  0  0  0  0  0  0  0  0
    7.2730   -3.5020    0.3793 H   0  0  0  0  0  0  0  0  0  0  0  0
    5.4408    0.2268   -0.2367 H   0  0  0  0  0  0  0  0  0  0  0  0
   -1.5874   -1.1388    0.0901 H   0  0  0  0  0  0  0  0  0  0  0  0
   -3.4767    1.2081   -0.2882 H   0  0  0  0  0  0  0  0  0  0  0  0
   -4.5325    0.0437   -1.9150 H   0  0  0  0  0  0  0  0  0  0  0  0
   -3.3883   -1.3033   -1.7110 H   0  0  0  0  0  0  0  0  0  0  0  0
   -5.7752   -1.8970   -1.3710 H   0  0  0  0  0  0  0  0  0  0  0  0
   -4.6958   -2.2958    0.0659 H   0  0  0  0  0  0  0  0  0  0  0  0
   -6.7989   -0.0875   -0.1700 H   0  0  0  0  0  0  0  0  0  0  0  0
   -6.5702   -1.4261    1.0478 H   0  0  0  0  0  0  0  0  0  0  0  0
   -5.3382    1.1808    0.8771 H   0  0  0  0  0  0  0  0  0  0  0  0
   -3.7438   -1.2201    1.5788 H   0  0  0  0  0  0  0  0  0  0  0  0
   -3.3624    0.4857    1.9922 H   0  0  0  0  0  0  0  0  0  0  0  0
  1  2  1  0
  2  3  2  0
  2  4  1  0
  4  5  1  0
  5  6  1  0
  6  7  2  0
  7  8  1  0
  8  9  2  0
  9 10  1  0
 10 11  2  0
 11 12  1  0
 12 13  1  0
 12 14  2  0
  7 15  1  0
 15 16  1  0
 16 17  1  0
 17 18  2  0
 17 19  1  0
 19 20  1  0
 20 21  1  0
 21 22  1  0
 22 23  1  0
 23 24  1  0
 24 25  1  0
 16  5  2  0
 25 20  1  0
 14  8  1  0
  1 26  1  0
  1 27  1  0
  4 28  1  0
  6 29  1  0
  9 30  1  0
 10 31  1  0
 11 32  1  0
 14 33  1  0
 19 34  1  0
 20 35  1  6
 21 36  1  0
 21 37  1  0
 22 38  1  0
 22 39  1  0
 23 40  1  0
 23 41  1  0
 24 42  1  0
 25 43  1  0
 25 44  1  0
M  END
$$$$
