
     RDKit          3D

 63 67  0  0  0  0  0  0  0  0999 V2000
   -2.8419    0.8063   -5.1732 C   0  0  0  0  0  0  0  0  0  0  0  0
   -2.3668    1.0607   -3.8165 C   0  0  0  0  0  0  0  0  0  0  0  0
   -1.9881    1.2615   -2.6991 C   0  0  0  0  0  0  0  0  0  0  0  0
   -1.5371    1.4992   -1.2973 C   0  0  0  0  0  0  0  0  0  0  0  0
   -1.5207    0.3110   -0.5008 N   0  0  0  0  0  0  0  0  0  0  0  0
   -2.4813   -0.2116    0.2855 C   0  0  0  0  0  0  0  0  0  0  0  0
   -3.8070    0.3190    0.4811 N   0  0  0  0  0  0  0  0  0  0  0  0
   -4.8377    0.2180   -0.5276 C   0  0  0  0  0  0  0  0  0  0  0  0
   -5.8144    1.3503   -0.2170 C   0  0  0  0  0  0  0  0  0  0  0  0
   -6.5950    0.9235    1.0189 C   0  0  0  0  0  0  0  0  0  0  0  0
   -5.6002    0.6375    2.1119 C   0  0  1  0  0  0  0  0  0  0  0  0
   -5.7189   -0.7334    2.5930 N   0  0  0  0  0  0  0  0  0  0  0  0
   -4.1626    0.9571    1.7185 C   0  0  0  0  0  0  0  0  0  0  0  0
   -1.9988   -1.3113    0.8630 N   0  0  0  0  0  0  0  0  0  0  0  0
   -0.7230   -1.5384    0.4710 C   0  0  0  0  0  0  0  0  0  0  0  0
   -0.4465   -0.4962   -0.3945 C   0  0  0  0  0  0  0  0  0  0  0  0
    0.7993   -0.4808   -0.9789 C   0  0  0  0  0  0  0  0  0  0  0  0
    1.1352    0.4149   -1.7676 O   0  0  0  0  0  0  0  0  0  0  0  0
    1.7265   -1.4626   -0.7072 N   0  0  0  0  0  0  0  0  0  0  0  0
    2.9860   -1.4165   -1.4133 C   0  0  0  0  0  0  0  0  0  0  0  0
    3.9692   -0.5988   -0.6958 C   0  0  0  0  0  0  0  0  0  0  0  0
    3.7290    0.7641   -0.5158 N   0  0  0  0  0  0  0  0  0  0  0  0
    4.6332    1.5460    0.0811 C   0  0  0  0  0  0  0  0  0  0  0  0
    4.3600    3.0182    0.2614 C   0  0  0  0  0  0  0  0  0  0  0  0
    5.8222    1.0810    0.5429 C   0  0  0  0  0  0  0  0  0  0  0  0
    6.7659    1.8651    1.1440 C   0  0  0  0  0  0  0  0  0  0  0  0
    7.9742    1.4019    1.6001 C   0  0  0  0  0  0  0  0  0  0  0  0
    8.2261    0.0286    1.4211 C   0  0  0  0  0  0  0  0  0  0  0  0
    7.2942   -0.7546    0.8246 C   0  0  0  0  0  0  0  0  0  0  0  0
    6.0849   -0.3147    0.3656 C   0  0  0  0  0  0  0  0  0  0  0  0
    5.1369   -1.0017   -0.2327 N   0  0  0  0  0  0  0  0  0  0  0  0
    1.4144   -2.4451    0.1399 C   0  0  0  0  0  0  0  0  0  0  0  0
    2.2514   -3.3689    0.4211 O   0  0  0  0  0  0  0  0  0  0  0  0
    0.1842   -2.4979    0.7401 N   0  0  0  0  0  0  0  0  0  0  0  0
   -0.0870   -3.5689    1.6631 C   0  0  0  0  0  0  0  0  0  0  0  0
   -1.9280    0.7957   -5.8418 H   0  0  0  0  0  0  0  0  0  0  0  0
   -3.3629   -0.1588   -5.2779 H   0  0  0  0  0  0  0  0  0  0  0  0
   -3.5557    1.5852   -5.5160 H   0  0  0  0  0  0  0  0  0  0  0  0
   -2.1791    2.3020   -0.8386 H   0  0  0  0  0  0  0  0  0  0  0  0
   -0.5374    1.9891   -1.3901 H   0  0  0  0  0  0  0  0  0  0  0  0
   -4.4572    0.2693   -1.5704 H   0  0  0  0  0  0  0  0  0  0  0  0
   -5.4053   -0.7279   -0.4549 H   0  0  0  0  0  0  0  0  0  0  0  0
   -5.2639    2.2901    0.0082 H   0  0  0  0  0  0  0  0  0  0  0  0
   -6.5582    1.5069   -1.0176 H   0  0  0  0  0  0  0  0  0  0  0  0
   -7.1104   -0.0368    0.7616 H   0  0  0  0  0  0  0  0  0  0  0  0
   -7.3776    1.6410    1.3127 H   0  0  0  0  0  0  0  0  0  0  0  0
   -5.8426    1.3019    2.9761 H   0  0  0  0  0  0  0  0  0  0  0  0
   -6.4034   -0.8401    3.3608 H   0  0  0  0  0  0  0  0  0  0  0  0
   -4.8224   -1.1645    2.8405 H   0  0  0  0  0  0  0  0  0  0  0  0
   -3.5421    0.5315    2.5237 H   0  0  0  0  0  0  0  0  0  0  0  0
   -4.0458    2.0438    1.6182 H   0  0  0  0  0  0  0  0  0  0  0  0
    2.8342   -1.0626   -2.4635 H   0  0  0  0  0  0  0  0  0  0  0  0
    3.3795   -2.4756   -1.4450 H   0  0  0  0  0  0  0  0  0  0  0  0
    5.1446    3.6251   -0.2026 H   0  0  0  0  0  0  0  0  0  0  0  0
    4.2271    3.2061    1.3407 H   0  0  0  0  0  0  0  0  0  0  0  0
    3.3893    3.2613   -0.2522 H   0  0  0  0  0  0  0  0  0  0  0  0
    6.5812    2.9394    1.2800 H   0  0  0  0  0  0  0  0  0  0  0  0
    8.7004    2.0516    2.0629 H   0  0  0  0  0  0  0  0  0  0  0  0
    9.1830   -0.3180    1.7891 H   0  0  0  0  0  0  0  0  0  0  0  0
    7.5431   -1.8262    0.7080 H   0  0  0  0  0  0  0  0  0  0  0  0
    0.7304   -3.6975    2.4263 H   0  0  0  0  0  0  0  0  0  0  0  0
   -1.0126   -3.3685    2.2794 H   0  0  0  0  0  0  0  0  0  0  0  0
   -0.2737   -4.5398    1.1719 H   0  0  0  0  0  0  0  0  0  0  0  0
  1  2  1  0
  2  3  3  0
  3  4  1  0
  4  5  1  0
  5  6  1  0
  6  7  1  0
  7  8  1  0
  8  9  1  0
  9 10  1  0
 10 11  1  0
 11 12  1  0
 11 13  1  0
  6 14  2  0
 14 15  1  0
 15 16  2  0
 16 17  1  0
 17 18  2  0
 17 19  1  0
 19 20  1  0
 20 21  1  0
 21 22  2  0
 22 23  1  0
 23 24  1  0
 23 25  2  0
 25 26  1  0
 26 27  2  0
 27 28  1  0
 28 29  2  0
 29 30  1  0
 30 31  2  0
 19 32  1  0
 32 33  2  0
 32 34  1  0
 34 35  1  0
 16  5  1  0
 31 21  1  0
 13  7  1  0
 34 15  1  0
 30 25  1  0
  1 36  1  0
  1 37  1  0
  1 38  1  0
  4 39  1  0
  4 40  1  0
  8 41  1  0
  8 42  1  0
  9 43  1  0
  9 44  1  0
 10 45  1  0
 10 46  1  0
 11 47  1  1
 12 48  1  0
 12 49  1  0
 13 50  1  0
 13 51  1  0
 20 52  1  0
 20 53  1  0
 24 54  1  0
 24 55  1  0
 24 56  1  0
 26 57  1  0
 27 58  1  0
 28 59  1  0
 29 60  1  0
 35 61  1  0
 35 62  1  0
 35 63  1  0
M  END
$$$$
