@<TRIPOS>MOLECULE
*****
 63 67 0 0 0
SMALL
GASTEIGER

@<TRIPOS>ATOM
      1 C          -2.8419    0.8063   -5.1732 C.3     1  UNL1       -0.0025
      2 C          -2.3668    1.0607   -3.8165 C.1     1  UNL1       -0.1038
      3 C          -1.9881    1.2615   -2.6991 C.1     1  UNL1       -0.0806
      4 C          -1.5371    1.4992   -1.2973 C.3     1  UNL1        0.0878
      5 N          -1.5207    0.3110   -0.5008 N.ar    1  UNL1       -0.2946
      6 C          -2.4813   -0.2116    0.2855 C.ar    1  UNL1        0.2016
      7 N          -3.8070    0.3190    0.4811 N.pl3   1  UNL1       -0.2994
      8 C          -4.8377    0.2180   -0.5276 C.3     1  UNL1        0.0149
      9 C          -5.8144    1.3503   -0.2170 C.3     1  UNL1       -0.0357
     10 C          -6.5950    0.9235    1.0189 C.3     1  UNL1       -0.0349
     11 C          -5.6002    0.6375    2.1119 C.3     1  UNL1        0.0208
     12 N          -5.7189   -0.7334    2.5930 N.3     1  UNL1       -0.3259
     13 C          -4.1626    0.9571    1.7185 C.3     1  UNL1        0.0300
     14 N          -1.9988   -1.3113    0.8630 N.ar    1  UNL1       -0.1959
     15 C          -0.7230   -1.5384    0.4710 C.ar    1  UNL1        0.1698
     16 C          -0.4465   -0.4962   -0.3945 C.ar    1  UNL1        0.1537
     17 C           0.7993   -0.4808   -0.9789 C.ar    1  UNL1        0.2829
     18 O           1.1352    0.4149   -1.7676 O.2     1  UNL1       -0.2652
     19 N           1.7265   -1.4626   -0.7072 N.ar    1  UNL1       -0.2516
     20 C           2.9860   -1.4165   -1.4133 C.3     1  UNL1        0.0906
     21 C           3.9692   -0.5988   -0.6958 C.ar    1  UNL1        0.1497
     22 N           3.7290    0.7641   -0.5158 N.ar    1  UNL1       -0.2347
     23 C           4.6332    1.5460    0.0811 C.ar    1  UNL1        0.0495
     24 C           4.3600    3.0182    0.2614 C.3     1  UNL1       -0.0216
     25 C           5.8222    1.0810    0.5429 C.ar    1  UNL1        0.0214
     26 C           6.7659    1.8651    1.1440 C.ar    1  UNL1       -0.0509
     27 C           7.9742    1.4019    1.6001 C.ar    1  UNL1       -0.0610
     28 C           8.2261    0.0286    1.4211 C.ar    1  UNL1       -0.0597
     29 C           7.2942   -0.7546    0.8246 C.ar    1  UNL1       -0.0356
     30 C           6.0849   -0.3147    0.3656 C.ar    1  UNL1        0.0748
     31 N           5.1369   -1.0017   -0.2327 N.ar    1  UNL1       -0.2302
     32 C           1.4144   -2.4451    0.1399 C.ar    1  UNL1        0.3337
     33 O           2.2514   -3.3689    0.4211 O.2     1  UNL1       -0.2462
     34 N           0.1842   -2.4979    0.7401 N.ar    1  UNL1       -0.2795
     35 C          -0.0870   -3.5689    1.6631 C.3     1  UNL1        0.0181
     36 H          -1.9280    0.7957   -5.8418 H       1  UNL1        0.0362
     37 H          -3.3629   -0.1588   -5.2779 H       1  UNL1        0.0362
     38 H          -3.5557    1.5852   -5.5160 H       1  UNL1        0.0362
     39 H          -2.1791    2.3020   -0.8386 H       1  UNL1        0.0629
     40 H          -0.5374    1.9891   -1.3901 H       1  UNL1        0.0629
     41 H          -4.4572    0.2693   -1.5704 H       1  UNL1        0.0464
     42 H          -5.4053   -0.7279   -0.4549 H       1  UNL1        0.0464
     43 H          -5.2639    2.2901    0.0082 H       1  UNL1        0.0281
     44 H          -6.5582    1.5069   -1.0176 H       1  UNL1        0.0281
     45 H          -7.1104   -0.0368    0.7616 H       1  UNL1        0.0281
     46 H          -7.3776    1.6410    1.3127 H       1  UNL1        0.0281
     47 H          -5.8426    1.3019    2.9761 H       1  UNL1        0.0474
     48 H          -6.4034   -0.8401    3.3608 H       1  UNL1        0.1185
     49 H          -4.8224   -1.1645    2.8405 H       1  UNL1        0.1185
     50 H          -3.5421    0.5315    2.5237 H       1  UNL1        0.0480
     51 H          -4.0458    2.0438    1.6182 H       1  UNL1        0.0480
     52 H           2.8342   -1.0626   -2.4635 H       1  UNL1        0.0575
     53 H           3.3795   -2.4756   -1.4450 H       1  UNL1        0.0575
     54 H           5.1446    3.6251   -0.2026 H       1  UNL1        0.0293
     55 H           4.2271    3.2061    1.3407 H       1  UNL1        0.0293
     56 H           3.3893    3.2613   -0.2522 H       1  UNL1        0.0293
     57 H           6.5812    2.9394    1.2800 H       1  UNL1        0.0625
     58 H           8.7004    2.0516    2.0629 H       1  UNL1        0.0618
     59 H           9.1830   -0.3180    1.7891 H       1  UNL1        0.0618
     60 H           7.5431   -1.8262    0.7080 H       1  UNL1        0.0639
     61 H           0.7304   -3.6975    2.4263 H       1  UNL1        0.0458
     62 H          -1.0126   -3.3685    2.2794 H       1  UNL1        0.0458
     63 H          -0.2737   -4.5398    1.1719 H       1  UNL1        0.0458
@<TRIPOS>BOND
     1     1     2    1
     2     2     3    3
     3     3     4    1
     4     4     5    1
     5     5     6   ar
     6     6     7    1
     7     7     8    1
     8     8     9    1
     9     9    10    1
    10    10    11    1
    11    11    12    1
    12    11    13    1
    13     6    14   ar
    14    14    15   ar
    15    15    16   ar
    16    16    17   ar
    17    17    18    2
    18    17    19   ar
    19    19    20    1
    20    20    21    1
    21    21    22   ar
    22    22    23   ar
    23    23    24    1
    24    23    25   ar
    25    25    26   ar
    26    26    27   ar
    27    27    28   ar
    28    28    29   ar
    29    29    30   ar
    30    30    31   ar
    31    19    32   ar
    32    32    33    2
    33    32    34   ar
    34    34    35    1
    35    16     5   ar
    36    31    21   ar
    37    13     7    1
    38    34    15   ar
    39    30    25   ar
    40     1    36    1
    41     1    37    1
    42     1    38    1
    43     4    39    1
    44     4    40    1
    45     8    41    1
    46     8    42    1
    47     9    43    1
    48     9    44    1
    49    10    45    1
    50    10    46    1
    51    11    47    1
    52    12    48    1
    53    12    49    1
    54    13    50    1
    55    13    51    1
    56    20    52    1
    57    20    53    1
    58    24    54    1
    59    24    55    1
    60    24    56    1
    61    26    57    1
    62    27    58    1
    63    28    59    1
    64    29    60    1
    65    35    61    1
    66    35    62    1
    67    35    63    1
