@<TRIPOS>MOLECULE
*****
 31 33 0 0 0
SMALL
GASTEIGER

@<TRIPOS>ATOM
      1 O           2.2056    2.2694   -1.5686 O.3     1  UNL1       -0.3636
      2 C           1.2803    2.7013   -0.5900 C.3     1  UNL1        0.2246
      3 N           0.0886    1.8762   -0.6508 N.2     1  UNL1       -0.2428
      4 C          -0.1881    0.6609   -0.3594 C.2     1  UNL1        0.0793
      5 C          -1.5507    0.1183   -0.5485 C.ar    1  UNL1        0.0190
      6 C          -2.1956    0.0481    0.6914 C.ar    1  UNL1       -0.0512
      7 C          -3.4939   -0.4308    0.7829 C.ar    1  UNL1       -0.0611
      8 C          -4.1178   -0.8316   -0.3896 C.ar    1  UNL1       -0.0603
      9 C          -3.4665   -0.7554   -1.6040 C.ar    1  UNL1       -0.0427
     10 C          -2.1743   -0.2777   -1.6876 C.ar    1  UNL1        0.0501
     11 CL         -1.2066   -0.1136   -3.1296 Cl      1  UNL1       -0.0829
     12 C           0.7787   -0.3125    0.1803 C.ar    1  UNL1        0.0232
     13 C           1.9494   -0.0305    0.8977 C.ar    1  UNL1        0.0428
     14 N           2.4361    1.2848    1.2484 N.am    1  UNL1       -0.2812
     15 C           2.0098    2.5301    0.7031 C.2     1  UNL1        0.2686
     16 O           2.3128    3.5278    1.4367 O.2     1  UNL1       -0.2705
     17 C           2.7583   -1.0816    1.3389 C.ar    1  UNL1       -0.0385
     18 C           2.3893   -2.3753    1.0600 C.ar    1  UNL1       -0.0416
     19 C           1.2192   -2.6310    0.3440 C.ar    1  UNL1        0.0417
     20 CL          0.7203   -4.2705   -0.0282 Cl      1  UNL1       -0.0835
     21 C           0.4012   -1.6094   -0.1039 C.ar    1  UNL1       -0.0324
     22 H           2.4270    2.9482   -2.2258 H       1  UNL1        0.2125
     23 H           1.0099    3.7361   -0.7862 H       1  UNL1        0.0952
     24 H          -1.8009    0.3343    1.6654 H       1  UNL1        0.0625
     25 H          -4.0478   -0.5097    1.7148 H       1  UNL1        0.0618
     26 H          -5.1396   -1.2225   -0.4181 H       1  UNL1        0.0618
     27 H          -3.9006   -1.0544   -2.5631 H       1  UNL1        0.0632
     28 H           3.1763    1.2592    1.9829 H       1  UNL1        0.1550
     29 H           3.6356   -0.8199    1.8786 H       1  UNL1        0.0637
     30 H           2.9882   -3.1963    1.3847 H       1  UNL1        0.0633
     31 H          -0.5043   -1.7721   -0.6564 H       1  UNL1        0.0639
@<TRIPOS>BOND
     1     1     2    1
     2     2     3    1
     3     3     4    2
     4     4     5    1
     5     5     6   ar
     6     6     7   ar
     7     7     8   ar
     8     8     9   ar
     9     9    10   ar
    10    10    11    1
    11     4    12    1
    12    12    13   ar
    13    13    14    1
    14    14    15   am
    15    15    16    2
    16    13    17   ar
    17    17    18   ar
    18    18    19   ar
    19    19    20    1
    20    19    21   ar
    21    15     2    1
    22    10     5   ar
    23    21    12   ar
    24     1    22    1
    25     2    23    1
    26     6    24    1
    27     7    25    1
    28     8    26    1
    29     9    27    1
    30    14    28    1
    31    17    29    1
    32    18    30    1
    33    21    31    1
