
     RDKit          3D

 31 33  0  0  0  0  0  0  0  0999 V2000
    2.2056    2.2694   -1.5686 O   0  0  0  0  0  0  0  0  0  0  0  0
    1.2803    2.7013   -0.5900 C   0  0  0  0  0  0  0  0  0  0  0  0
    0.0886    1.8762   -0.6508 N   0  0  0  0  0  0  0  0  0  0  0  0
   -0.1881    0.6609   -0.3594 C   0  0  0  0  0  0  0  0  0  0  0  0
   -1.5507    0.1183   -0.5485 C   0  0  0  0  0  0  0  0  0  0  0  0
   -2.1956    0.0481    0.6914 C   0  0  0  0  0  0  0  0  0  0  0  0
   -3.4939   -0.4308    0.7829 C   0  0  0  0  0  0  0  0  0  0  0  0
   -4.1178   -0.8316   -0.3896 C   0  0  0  0  0  0  0  0  0  0  0  0
   -3.4665   -0.7554   -1.6040 C   0  0  0  0  0  0  0  0  0  0  0  0
   -2.1743   -0.2777   -1.6876 C   0  0  0  0  0  0  0  0  0  0  0  0
   -1.2066   -0.1136   -3.1296 Cl  0  0  0  0  0  0  0  0  0  0  0  0
    0.7787   -0.3125    0.1803 C   0  0  0  0  0  0  0  0  0  0  0  0
    1.9494   -0.0305    0.8977 C   0  0  0  0  0  0  0  0  0  0  0  0
    2.4361    1.2848    1.2484 N   0  0  0  0  0  0  0  0  0  0  0  0
    2.0098    2.5301    0.7031 C   0  0  0  0  0  0  0  0  0  0  0  0
    2.3128    3.5278    1.4367 O   0  0  0  0  0  0  0  0  0  0  0  0
    2.7583   -1.0816    1.3389 C   0  0  0  0  0  0  0  0  0  0  0  0
    2.3893   -2.3753    1.0600 C   0  0  0  0  0  0  0  0  0  0  0  0
    1.2192   -2.6310    0.3440 C   0  0  0  0  0  0  0  0  0  0  0  0
    0.7203   -4.2705   -0.0282 Cl  0  0  0  0  0  0  0  0  0  0  0  0
    0.4012   -1.6094   -0.1039 C   0  0  0  0  0  0  0  0  0  0  0  0
    2.4270    2.9482   -2.2258 H   0  0  0  0  0  0  0  0  0  0  0  0
    1.0099    3.7361   -0.7862 H   0  0  0  0  0  0  0  0  0  0  0  0
   -1.8009    0.3343    1.6654 H   0  0  0  0  0  0  0  0  0  0  0  0
   -4.0478   -0.5097    1.7148 H   0  0  0  0  0  0  0  0  0  0  0  0
   -5.1396   -1.2225   -0.4181 H   0  0  0  0  0  0  0  0  0  0  0  0
   -3.9006   -1.0544   -2.5631 H   0  0  0  0  0  0  0  0  0  0  0  0
    3.1763    1.2592    1.9829 H   0  0  0  0  0  0  0  0  0  0  0  0
    3.6356   -0.8199    1.8786 H   0  0  0  0  0  0  0  0  0  0  0  0
    2.9882   -3.1963    1.3847 H   0  0  0  0  0  0  0  0  0  0  0  0
   -0.5043   -1.7721   -0.6564 H   0  0  0  0  0  0  0  0  0  0  0  0
  1  2  1  0
  2  3  1  0
  3  4  2  0
  4  5  1  0
  5  6  2  0
  6  7  1  0
  7  8  2  0
  8  9  1  0
  9 10  2  0
 10 11  1  0
  4 12  1  0
 12 13  2  0
 13 14  1  0
 14 15  1  0
 15 16  2  0
 13 17  1  0
 17 18  2  0
 18 19  1  0
 19 20  1  0
 19 21  2  0
 15  2  1  0
 10  5  1  0
 21 12  1  0
  1 22  1  0
  2 23  1  0
  6 24  1  0
  7 25  1  0
  8 26  1  0
  9 27  1  0
 14 28  1  0
 17 29  1  0
 18 30  1  0
 21 31  1  0
M  END
$$$$
