
     RDKit          3D

112113  0  0  0  0  0  0  0  0999 V2000
   -7.5060    2.6001    0.5839 C   0  0  0  0  0  0  0  0  0  0  0  0
   -8.9500    2.6780    0.7642 C   0  0  0  0  0  0  0  0  0  0  0  0
   -6.8663    1.4671    0.2053 C   0  0  0  0  0  0  0  0  0  0  0  0
   -5.5126    1.7575    0.1250 N   0  0  0  0  0  0  0  0  0  0  0  0
   -4.8897    1.0810    1.2101 C   0  0  0  0  0  0  0  0  0  0  0  0
   -4.4425    2.3660   -0.4258 C   0  0  0  0  0  0  0  0  0  0  0  0
   -5.1465    2.8809   -1.3208 O   0  0  0  0  0  0  0  0  0  0  0  0
   -3.0521    2.6692   -0.4939 C   0  0  0  0  0  0  0  0  0  0  0  0
   -2.6002    3.7561   -1.4392 C   0  0  0  0  0  0  0  0  0  0  0  0
   -1.1050    3.9447   -1.2424 C   0  0  1  0  0  0  0  0  0  0  0  0
   -0.2583    2.8949   -1.4721 N   0  0  0  0  0  0  0  0  0  0  0  0
    0.2091    1.8681   -0.9796 C   0  0  0  0  0  0  0  0  0  0  0  0
    1.0847    1.3287   -1.9709 O   0  0  0  0  0  0  0  0  0  0  0  0
    0.3384    0.8753    0.1462 C   0  0  1  0  0  0  0  0  0  0  0  0
   -0.6333    1.1567    1.2830 C   0  0  0  0  0  0  0  0  0  0  0  0
    0.3385   -0.5223   -0.1985 C   0  0  1  0  0  0  0  0  0  0  0  0
   -0.5190   -1.1184   -1.1090 N   0  0  0  0  0  0  0  0  0  0  0  0
   -1.5193   -1.8291   -0.9304 C   0  0  0  0  0  0  0  0  0  0  0  0
   -1.8332   -2.0394   -2.3132 O   0  0  0  0  0  0  0  0  0  0  0  0
   -2.2636   -2.3661    0.2209 C   0  0  1  0  0  0  0  0  0  0  0  0
   -3.6505   -2.5169   -0.0313 N   0  0  0  0  0  0  0  0  0  0  0  0
   -4.5174   -2.0656   -0.7813 C   0  0  0  0  0  0  0  0  0  0  0  0
   -4.2555   -1.0968   -1.7699 O   0  0  0  0  0  0  0  0  0  0  0  0
   -5.7617   -2.7707   -0.3647 C   0  0  1  0  0  0  0  0  0  0  0  0
   -5.7281   -3.5390    0.9095 C   0  0  0  0  0  0  0  0  0  0  0  0
   -7.0200   -1.9814   -0.6504 C   0  0  1  0  0  0  0  0  0  0  0  0
   -6.9572   -0.6464   -0.3219 N   0  0  0  0  0  0  0  0  0  0  0  0
   -7.6827    0.2963   -0.0233 C   0  0  0  0  0  0  0  0  0  0  0  0
   -8.9817    0.1289    0.0444 O   0  0  0  0  0  0  0  0  0  0  0  0
   -7.6080   -2.3977   -1.9282 C   0  0  0  0  0  0  0  0  0  0  0  0
   -7.8780   -3.6337   -2.5006 O   0  0  0  0  0  0  0  0  0  0  0  0
   -7.8937   -1.3130   -2.5422 O   0  0  0  0  0  0  0  0  0  0  0  0
   -1.6367   -3.6728    0.7233 C   0  0  0  0  0  0  0  0  0  0  0  0
   -1.6434   -4.7796   -0.2680 C   0  0  0  0  0  0  0  0  0  0  0  0
   -2.2991   -4.0058    2.0046 C   0  0  0  0  0  0  0  0  0  0  0  0
    1.7798   -1.0139   -0.4842 C   0  0  0  0  0  0  0  0  0  0  0  0
    2.9269   -0.8732    0.2364 C   0  0  0  0  0  0  0  0  0  0  0  0
    3.9331   -0.5713    1.1948 C   0  0  0  0  0  0  0  0  0  0  0  0
    3.5463    0.0973    2.4805 C   0  0  0  0  0  0  0  0  0  0  0  0
    5.0997   -1.0215    0.8895 C   0  0  0  0  0  0  0  0  0  0  0  0
    6.3702   -0.8891    1.6142 C   0  0  2  0  0  0  0  0  0  0  0  0
    6.3533    0.2991    2.6181 C   0  0  0  0  0  0  0  0  0  0  0  0
    7.4159   -0.4507    0.5672 C   0  0  2  0  0  0  0  0  0  0  0  0
    8.7422   -0.2430    1.2016 C   0  0  0  0  0  0  0  0  0  0  0  0
    9.7119    0.3286    0.2715 C   0  0  0  0  0  0  0  0  0  0  0  0
    9.8615    1.5962   -0.1633 C   0  0  0  0  0  0  0  0  0  0  0  0
    9.9274    2.8475   -0.5433 C   0  0  0  0  0  0  0  0  0  0  0  0
   11.2181    2.2445   -1.1447 C   0  0  0  0  0  0  0  0  0  0  0  0
   11.7137    0.8799   -1.0785 C   0  0  0  0  0  0  0  0  0  0  0  0
   10.9362   -0.0779   -0.3550 C   0  0  0  0  0  0  0  0  0  0  0  0
    6.9310    0.4797   -0.2696 O   0  0  0  0  0  0  0  0  0  0  0  0
    6.8746    0.0394   -1.6061 C   0  0  0  0  0  0  0  0  0  0  0  0
   -0.7052    5.2011   -1.9152 C   0  0  0  0  0  0  0  0  0  0  0  0
   -0.4126    6.3836   -2.5179 O   0  0  0  0  0  0  0  0  0  0  0  0
    0.5039    4.7346   -2.1542 O   0  0  0  0  0  0  0  0  0  0  0  0
   -7.0687    3.5460    0.7969 H   0  0  0  0  0  0  0  0  0  0  0  0
   -9.4049    1.7959    1.1956 H   0  0  0  0  0  0  0  0  0  0  0  0
   -9.4312    2.8871   -0.2356 H   0  0  0  0  0  0  0  0  0  0  0  0
   -9.2842    3.5513    1.3913 H   0  0  0  0  0  0  0  0  0  0  0  0
   -4.1696    1.7185    1.8216 H   0  0  0  0  0  0  0  0  0  0  0  0
   -4.2508    0.2371    0.8471 H   0  0  0  0  0  0  0  0  0  0  0  0
   -5.5811    0.5888    1.9442 H   0  0  0  0  0  0  0  0  0  0  0  0
   -2.5509    1.7274   -0.9215 H   0  0  0  0  0  0  0  0  0  0  0  0
   -2.7144    2.8423    0.5687 H   0  0  0  0  0  0  0  0  0  0  0  0
   -2.7258    3.4007   -2.4623 H   0  0  0  0  0  0  0  0  0  0  0  0
   -3.1198    4.6881   -1.3032 H   0  0  0  0  0  0  0  0  0  0  0  0
   -1.0061    4.2415   -0.1164 H   0  0  0  0  0  0  0  0  0  0  0  0
    0.9759    1.5961   -2.9622 H   0  0  0  0  0  0  0  0  0  0  0  0
    1.3553    1.1756    0.6049 H   0  0  0  0  0  0  0  0  0  0  0  0
   -0.7865    2.2119    1.5048 H   0  0  0  0  0  0  0  0  0  0  0  0
   -1.6129    0.6718    1.1235 H   0  0  0  0  0  0  0  0  0  0  0  0
   -0.1874    0.6404    2.1983 H   0  0  0  0  0  0  0  0  0  0  0  0
    0.1912   -1.0767    0.8383 H   0  0  0  0  0  0  0  0  0  0  0  0
   -1.1271   -2.4877   -2.9267 H   0  0  0  0  0  0  0  0  0  0  0  0
   -2.1305   -1.6354    1.0379 H   0  0  0  0  0  0  0  0  0  0  0  0
   -3.7765   -0.2230   -1.4645 H   0  0  0  0  0  0  0  0  0  0  0  0
   -5.8083   -3.6339   -1.1701 H   0  0  0  0  0  0  0  0  0  0  0  0
   -6.7427   -3.8497    1.2534 H   0  0  0  0  0  0  0  0  0  0  0  0
   -5.0875   -4.4566    0.8314 H   0  0  0  0  0  0  0  0  0  0  0  0
   -5.3364   -2.9234    1.7350 H   0  0  0  0  0  0  0  0  0  0  0  0
   -7.7925   -2.4291    0.1241 H   0  0  0  0  0  0  0  0  0  0  0  0
   -9.5654   -0.5442   -0.4540 H   0  0  0  0  0  0  0  0  0  0  0  0
   -8.7176   -3.7364   -3.1169 H   0  0  0  0  0  0  0  0  0  0  0  0
   -0.5675   -3.4000    0.9231 H   0  0  0  0  0  0  0  0  0  0  0  0
   -2.6152   -5.1251   -0.6390 H   0  0  0  0  0  0  0  0  0  0  0  0
   -1.2094   -5.6729    0.2823 H   0  0  0  0  0  0  0  0  0  0  0  0
   -0.9625   -4.6435   -1.1533 H   0  0  0  0  0  0  0  0  0  0  0  0
   -2.8559   -4.9579    1.9931 H   0  0  0  0  0  0  0  0  0  0  0  0
   -3.0466   -3.2010    2.3184 H   0  0  0  0  0  0  0  0  0  0  0  0
   -1.5310   -3.9493    2.8313 H   0  0  0  0  0  0  0  0  0  0  0  0
    2.2727   -1.5874   -1.2799 H   0  0  0  0  0  0  0  0  0  0  0  0
    2.2199   -0.3052    0.7630 H   0  0  0  0  0  0  0  0  0  0  0  0
    4.0937   -0.2547    3.3237 H   0  0  0  0  0  0  0  0  0  0  0  0
    3.4445    1.1741    2.4084 H   0  0  0  0  0  0  0  0  0  0  0  0
    2.4592   -0.2440    2.7043 H   0  0  0  0  0  0  0  0  0  0  0  0
    5.2545   -1.6350    0.0294 H   0  0  0  0  0  0  0  0  0  0  0  0
    6.7090   -1.7863    2.1090 H   0  0  0  0  0  0  0  0  0  0  0  0
    7.3120    0.9147    2.4787 H   0  0  0  0  0  0  0  0  0  0  0  0
    6.3835   -0.0641    3.6455 H   0  0  0  0  0  0  0  0  0  0  0  0
    5.6300    1.0556    2.3071 H   0  0  0  0  0  0  0  0  0  0  0  0
    7.4927   -1.4195   -0.0874 H   0  0  0  0  0  0  0  0  0  0  0  0
    9.1560   -1.3182    1.3449 H   0  0  0  0  0  0  0  0  0  0  0  0
    8.8184    0.1359    2.2188 H   0  0  0  0  0  0  0  0  0  0  0  0
    8.8205    2.0787    0.3140 H   0  0  0  0  0  0  0  0  0  0  0  0
   10.3218    3.7407   -0.9038 H   0  0  0  0  0  0  0  0  0  0  0  0
   12.0998    2.6296   -1.7668 H   0  0  0  0  0  0  0  0  0  0  0  0
   12.6031    0.3861   -1.4965 H   0  0  0  0  0  0  0  0  0  0  0  0
   11.1304   -1.1230   -0.2277 H   0  0  0  0  0  0  0  0  0  0  0  0
    6.4332    0.8762   -2.2280 H   0  0  0  0  0  0  0  0  0  0  0  0
    7.9733   -0.0549   -1.8758 H   0  0  0  0  0  0  0  0  0  0  0  0
    6.3963   -0.8900   -1.8021 H   0  0  0  0  0  0  0  0  0  0  0  0
   -0.8679    6.6704   -3.4018 H   0  0  0  0  0  0  0  0  0  0  0  0
  1  2  1  0
  1  3  2  3
  3  4  1  0
  4  5  1  0
  4  6  1  0
  6  7  2  0
  6  8  1  0
  8  9  1  0
  9 10  1  0
 10 11  1  0
 11 12  2  3
 12 13  1  0
 12 14  1  0
 14 15  1  0
 14 16  1  0
 16 17  1  0
 17 18  2  3
 18 19  1  0
 18 20  1  0
 20 21  1  0
 21 22  2  3
 22 23  1  0
 22 24  1  0
 24 25  1  0
 24 26  1  0
 26 27  1  0
 27 28  2  3
 28 29  1  0
 26 30  1  0
 30 31  1  0
 30 32  2  0
 20 33  1  0
 33 34  1  0
 33 35  1  0
 16 36  1  0
 36 37  2  3
 37 38  1  0
 38 39  1  0
 38 40  2  0
 40 41  1  0
 41 42  1  0
 41 43  1  0
 43 44  1  0
 44 45  1  0
 45 46  2  0
 46 47  1  0
 47 48  2  0
 48 49  1  0
 49 50  2  0
 43 51  1  0
 51 52  1  0
 10 53  1  0
 53 54  1  0
 53 55  2  0
 28  3  1  0
 50 45  1  0
  1 56  1  0
  2 57  1  0
  2 58  1  0
  2 59  1  0
  5 60  1  0
  5 61  1  0
  5 62  1  0
  8 63  1  0
  8 64  1  0
  9 65  1  0
  9 66  1  0
 10 67  1  1
 13 68  1  0
 14 69  1  1
 15 70  1  0
 15 71  1  0
 15 72  1  0
 16 73  1  1
 19 74  1  0
 20 75  1  1
 23 76  1  0
 24 77  1  6
 25 78  1  0
 25 79  1  0
 25 80  1  0
 26 81  1  1
 29 82  1  0
 31 83  1  0
 33 84  1  0
 34 85  1  0
 34 86  1  0
 34 87  1  0
 35 88  1  0
 35 89  1  0
 35 90  1  0
 36 91  1  0
 37 92  1  0
 39 93  1  0
 39 94  1  0
 39 95  1  0
 40 96  1  0
 41 97  1  1
 42 98  1  0
 42 99  1  0
 42100  1  0
 43101  1  6
 44102  1  0
 44103  1  0
 46104  1  0
 47105  1  0
 48106  1  0
 49107  1  0
 50108  1  0
 52109  1  0
 52110  1  0
 52111  1  0
 54112  1  0
M  END
$$$$
