@<TRIPOS>MOLECULE
*****
 112 113 0 0 0
SMALL
GASTEIGER

@<TRIPOS>ATOM
      1 C          -7.5060    2.6001    0.5839 C.2     1  UNL1       -0.0605
      2 C          -8.9500    2.6780    0.7642 C.3     1  UNL1       -0.0446
      3 C          -6.8663    1.4671    0.2053 C.2     1  UNL1        0.0934
      4 NE2        -5.5126    1.7575    0.1250 N.am    1  UNL1       -0.2704
      5 C          -4.8897    1.0810    1.2101 C.3     1  UNL1        0.0084
      6 CD         -4.4425    2.3660   -0.4258 C.2     1  UNL1        0.2197
      7 OE1        -5.1465    2.8809   -1.3208 O.2     1  UNL1       -0.2753
      8 CG         -3.0521    2.6692   -0.4939 C.3     1  UNL1        0.0269
      9 CB         -2.6002    3.7561   -1.4392 C.3     1  UNL1       -0.0118
     10 CA         -1.1050    3.9447   -1.2424 C.3     1  UNL1        0.1508
     11 N          -0.2583    2.8949   -1.4721 N.2     1  UNL1       -0.2397
     12 C           0.2091    1.8681   -0.9796 C.2     1  UNL1        0.1885
     13 O           1.0847    1.3287   -1.9709 O.2     1  UNL1       -0.4954
     14 C           0.3384    0.8753    0.1462 C.3     1  UNL1        0.0577
     15 C          -0.6333    1.1567    1.2830 C.3     1  UNL1       -0.0517
     16 C           0.3385   -0.5223   -0.1985 C.3     1  UNL1        0.0835
     17 N          -0.5190   -1.1184   -1.1090 N.2     1  UNL1       -0.2447
     18 C          -1.5193   -1.8291   -0.9304 C.2     1  UNL1        0.2087
     19 O          -1.8332   -2.0394   -2.3132 O.2     1  UNL1       -0.4942
     20 C          -2.2636   -2.3661    0.2209 C.3     1  UNL1        0.1312
     21 N          -3.6505   -2.5169   -0.0313 N.2     1  UNL1       -0.2413
     22 C          -4.5174   -2.0656   -0.7813 C.2     1  UNL1        0.1887
     23 O          -4.2555   -1.0968   -1.7699 O.2     1  UNL1       -0.4954
     24 C          -5.7617   -2.7707   -0.3647 C.3     1  UNL1        0.0645
     25 C          -5.7281   -3.5390    0.9095 C.3     1  UNL1       -0.0515
     26 CA         -7.0200   -1.9814   -0.6504 C.3     1  UNL1        0.1616
     27 N          -6.9572   -0.6464   -0.3219 N.2     1  UNL1       -0.2338
     28 C          -7.6827    0.2963   -0.0233 C.2     1  UNL1        0.2304
     29 O          -8.9817    0.1289    0.0444 O.2     1  UNL1       -0.4914
     30 C          -7.6080   -2.3977   -1.9282 C.2     1  UNL1        0.3304
     31 O          -7.8780   -3.6337   -2.5006 O.3     1  UNL1       -0.4791
     32 OXT        -7.8937   -1.3130   -2.5422 O.2     1  UNL1       -0.2486
     33 C          -1.6367   -3.6728    0.7233 C.3     1  UNL1       -0.0156
     34 C          -1.6434   -4.7796   -0.2680 C.3     1  UNL1       -0.0603
     35 C          -2.2991   -4.0058    2.0046 C.3     1  UNL1       -0.0603
     36 C           1.7798   -1.0139   -0.4842 C.2     1  UNL1       -0.0588
     37 C           2.9269   -0.8732    0.2364 C.2     1  UNL1       -0.0610
     38 C           3.9331   -0.5713    1.1948 C.2     1  UNL1       -0.0543
     39 C           3.5463    0.0973    2.4805 C.3     1  UNL1       -0.0400
     40 C           5.0997   -1.0215    0.8895 C.2     1  UNL1       -0.0758
     41 C           6.3702   -0.8891    1.6142 C.3     1  UNL1        0.0014
     42 C           6.3533    0.2991    2.6181 C.3     1  UNL1       -0.0566
     43 C           7.4159   -0.4507    0.5672 C.3     1  UNL1        0.0683
     44 C           8.7422   -0.2430    1.2016 C.3     1  UNL1       -0.0008
     45 C           9.7119    0.3286    0.2715 C.ar    1  UNL1       -0.0449
     46 C           9.8615    1.5962   -0.1633 C.ar    1  UNL1       -0.0585
     47 C           9.9274    2.8475   -0.5433 C.ar    1  UNL1       -0.0615
     48 C          11.2181    2.2445   -1.1447 C.ar    1  UNL1       -0.0617
     49 C          11.7137    0.8799   -1.0785 C.ar    1  UNL1       -0.0615
     50 C          10.9362   -0.0779   -0.3550 C.ar    1  UNL1       -0.0585
     51 O           6.9310    0.4797   -0.2696 O.3     1  UNL1       -0.3789
     52 C           6.8746    0.0394   -1.6061 C.3     1  UNL1        0.0368
     53 C          -0.7052    5.2011   -1.9152 C.2     1  UNL1        0.3296
     54 O          -0.4126    6.3836   -2.5179 O.3     1  UNL1       -0.4791
     55 OXT         0.5039    4.7346   -2.1542 O.2     1  UNL1       -0.2486
     56 H          -7.0687    3.5460    0.7969 H       1  UNL1        0.0589
     57 H          -9.4049    1.7959    1.1956 H       1  UNL1        0.0272
     58 H          -9.4312    2.8871   -0.2356 H       1  UNL1        0.0272
     59 H          -9.2842    3.5513    1.3913 H       1  UNL1        0.0272
     60 H          -4.1696    1.7185    1.8216 H       1  UNL1        0.0433
     61 H          -4.2508    0.2371    0.8471 H       1  UNL1        0.0433
     62 H          -5.5811    0.5888    1.9442 H       1  UNL1        0.0433
     63 HG1        -2.5509    1.7274   -0.9215 H       1  UNL1        0.0359
     64 HG2        -2.7144    2.8423    0.5687 H       1  UNL1        0.0359
     65 HB1        -2.7258    3.4007   -2.4623 H       1  UNL1        0.0296
     66 HB2        -3.1198    4.6881   -1.3032 H       1  UNL1        0.0296
     67 HA         -1.0061    4.2415   -0.1164 H       1  UNL1        0.0662
     68 H           0.9759    1.5961   -2.9622 H       1  UNL1        0.2934
     69 H           1.3553    1.1756    0.6049 H       1  UNL1        0.0417
     70 H          -0.7865    2.2119    1.5048 H       1  UNL1        0.0238
     71 H          -1.6129    0.6718    1.1235 H       1  UNL1        0.0238
     72 H          -0.1874    0.6404    2.1983 H       1  UNL1        0.0238
     73 H           0.1912   -1.0767    0.8383 H       1  UNL1        0.0597
     74 H          -1.1271   -2.4877   -2.9267 H       1  UNL1        0.2935
     75 H          -2.1305   -1.6354    1.0379 H       1  UNL1        0.0645
     76 H          -3.7765   -0.2230   -1.4645 H       1  UNL1        0.2934
     77 H          -5.8083   -3.6339   -1.1701 H       1  UNL1        0.0419
     78 H          -6.7427   -3.8497    1.2534 H       1  UNL1        0.0238
     79 H          -5.0875   -4.4566    0.8314 H       1  UNL1        0.0238
     80 H          -5.3364   -2.9234    1.7350 H       1  UNL1        0.0238
     81 HA         -7.7925   -2.4291    0.1241 H       1  UNL1        0.0669
     82 H          -9.5654   -0.5442   -0.4540 H       1  UNL1        0.2938
     83 H          -8.7176   -3.7364   -3.1169 H       1  UNL1        0.2951
     84 H          -0.5675   -3.4000    0.9231 H       1  UNL1        0.0321
     85 H          -2.6152   -5.1251   -0.6390 H       1  UNL1        0.0233
     86 H          -1.2094   -5.6729    0.2823 H       1  UNL1        0.0233
     87 H          -0.9625   -4.6435   -1.1533 H       1  UNL1        0.0233
     88 H          -2.8559   -4.9579    1.9931 H       1  UNL1        0.0233
     89 H          -3.0466   -3.2010    2.3184 H       1  UNL1        0.0233
     90 H          -1.5310   -3.9493    2.8313 H       1  UNL1        0.0233
     91 H           2.2727   -1.5874   -1.2799 H       1  UNL1        0.0593
     92 H           2.2199   -0.3052    0.7630 H       1  UNL1        0.0618
     93 H           4.0937   -0.2547    3.3237 H       1  UNL1        0.0277
     94 H           3.4445    1.1741    2.4084 H       1  UNL1        0.0277
     95 H           2.4592   -0.2440    2.7043 H       1  UNL1        0.0277
     96 H           5.2545   -1.6350    0.0294 H       1  UNL1        0.0578
     97 H           6.7090   -1.7863    2.1090 H       1  UNL1        0.0366
     98 H           7.3120    0.9147    2.4787 H       1  UNL1        0.0236
     99 H           6.3835   -0.0641    3.6455 H       1  UNL1        0.0236
    100 H           5.6300    1.0556    2.3071 H       1  UNL1        0.0236
    101 H           7.4927   -1.4195   -0.0874 H       1  UNL1        0.0605
    102 H           9.1560   -1.3182    1.3449 H       1  UNL1        0.0338
    103 H           8.8184    0.1359    2.2188 H       1  UNL1        0.0338
    104 H           8.8205    2.0787    0.3140 H       1  UNL1        0.0620
    105 H          10.3218    3.7407   -0.9038 H       1  UNL1        0.0618
    106 H          12.0998    2.6296   -1.7668 H       1  UNL1        0.0618
    107 H          12.6031    0.3861   -1.4965 H       1  UNL1        0.0618
    108 H          11.1304   -1.1230   -0.2277 H       1  UNL1        0.0620
    109 H           6.4332    0.8762   -2.2280 H       1  UNL1        0.0524
    110 H           7.9733   -0.0549   -1.8758 H       1  UNL1        0.0524
    111 H           6.3963   -0.8900   -1.8021 H       1  UNL1        0.0524
    112 H          -0.8679    6.6704   -3.4018 H       1  UNL1        0.2951
@<TRIPOS>BOND
     1     1     2    1
     2     1     3    2
     3     3     4    1
     4     4     5    1
     5     4     6   am
     6     6     7    2
     7     6     8    1
     8     8     9    1
     9     9    10    1
    10    10    11    1
    11    11    12    2
    12    12    13    1
    13    12    14    1
    14    14    15    1
    15    14    16    1
    16    16    17    1
    17    17    18    2
    18    18    19    1
    19    18    20    1
    20    20    21    1
    21    21    22    2
    22    22    23    1
    23    22    24    1
    24    24    25    1
    25    24    26    1
    26    26    27    1
    27    27    28    2
    28    28    29    1
    29    26    30    1
    30    30    31    1
    31    30    32    2
    32    20    33    1
    33    33    34    1
    34    33    35    1
    35    16    36    1
    36    36    37    2
    37    37    38    1
    38    38    39    1
    39    38    40    2
    40    40    41    1
    41    41    42    1
    42    41    43    1
    43    43    44    1
    44    44    45    1
    45    45    46   ar
    46    46    47   ar
    47    47    48   ar
    48    48    49   ar
    49    49    50   ar
    50    43    51    1
    51    51    52    1
    52    10    53    1
    53    53    54    1
    54    53    55    2
    55    28     3    1
    56    50    45   ar
    57     1    56    1
    58     2    57    1
    59     2    58    1
    60     2    59    1
    61     5    60    1
    62     5    61    1
    63     5    62    1
    64     8    63    1
    65     8    64    1
    66     9    65    1
    67     9    66    1
    68    10    67    1
    69    13    68    1
    70    14    69    1
    71    15    70    1
    72    15    71    1
    73    15    72    1
    74    16    73    1
    75    19    74    1
    76    20    75    1
    77    23    76    1
    78    24    77    1
    79    25    78    1
    80    25    79    1
    81    25    80    1
    82    26    81    1
    83    29    82    1
    84    31    83    1
    85    33    84    1
    86    34    85    1
    87    34    86    1
    88    34    87    1
    89    35    88    1
    90    35    89    1
    91    35    90    1
    92    36    91    1
    93    37    92    1
    94    39    93    1
    95    39    94    1
    96    39    95    1
    97    40    96    1
    98    41    97    1
    99    42    98    1
   100    42    99    1
   101    42   100    1
   102    43   101    1
   103    44   102    1
   104    44   103    1
   105    46   104    1
   106    47   105    1
   107    48   106    1
   108    49   107    1
   109    50   108    1
   110    52   109    1
   111    52   110    1
   112    52   111    1
   113    54   112    1
