
     RDKit          3D

 33 34  0  0  0  0  0  0  0  0999 V2000
   -3.9512   -1.9550   -1.0151 C   0  0  0  0  0  0  0  0  0  0  0  0
   -2.6619   -1.3600   -0.6149 C   0  0  0  0  0  0  0  0  0  0  0  0
   -1.4196   -1.7246   -1.0994 C   0  0  0  0  0  0  0  0  0  0  0  0
   -0.2400   -1.1566   -0.7117 C   0  0  0  0  0  0  0  0  0  0  0  0
   -0.3211   -0.1530    0.2284 C   0  0  0  0  0  0  0  0  0  0  0  0
    0.8813    0.4692    0.6633 N   0  0  0  0  0  0  0  0  0  0  0  0
    2.1520    0.0867    0.1579 C   0  0  0  0  0  0  0  0  0  0  0  0
    2.5915    0.7752   -0.9782 C   0  0  0  0  0  0  0  0  0  0  0  0
    1.6432    2.0395   -1.7469 Cl  0  0  0  0  0  0  0  0  0  0  0  0
    3.8193    0.4548   -1.5245 C   0  0  0  0  0  0  0  0  0  0  0  0
    4.6306   -0.5375   -0.9715 C   0  0  0  0  0  0  0  0  0  0  0  0
    4.1688   -1.2097    0.1622 C   0  0  0  0  0  0  0  0  0  0  0  0
    2.9369   -0.9016    0.7260 C   0  0  0  0  0  0  0  0  0  0  0  0
    2.4756   -1.5496    1.8308 F   0  0  0  0  0  0  0  0  0  0  0  0
   -1.5196    0.2701    0.7621 C   0  0  0  0  0  0  0  0  0  0  0  0
   -1.6298    1.3416    1.7684 C   0  0  0  0  0  0  0  0  0  0  0  0
   -1.4555    2.6972    1.1685 C   0  0  0  0  0  0  0  0  0  0  0  0
   -1.5404    3.7840    2.0282 O   0  0  0  0  0  0  0  0  0  0  0  0
   -1.2377    2.8449   -0.0828 O   0  0  0  0  0  0  0  0  0  0  0  0
   -2.6837   -0.3525    0.3219 C   0  0  0  0  0  0  0  0  0  0  0  0
   -4.6358   -1.2284   -1.4916 H   0  0  0  0  0  0  0  0  0  0  0  0
   -4.4496   -2.5208   -0.1965 H   0  0  0  0  0  0  0  0  0  0  0  0
   -3.7264   -2.7296   -1.7954 H   0  0  0  0  0  0  0  0  0  0  0  0
   -1.4248   -2.5194   -1.8359 H   0  0  0  0  0  0  0  0  0  0  0  0
    0.6921   -1.4993   -1.1395 H   0  0  0  0  0  0  0  0  0  0  0  0
    0.8963    1.2350    1.3720 H   0  0  0  0  0  0  0  0  0  0  0  0
    4.2221    0.9557   -2.4134 H   0  0  0  0  0  0  0  0  0  0  0  0
    5.6083   -0.8033   -1.3940 H   0  0  0  0  0  0  0  0  0  0  0  0
    4.7523   -1.9973    0.6464 H   0  0  0  0  0  0  0  0  0  0  0  0
   -2.6157    1.2929    2.2679 H   0  0  0  0  0  0  0  0  0  0  0  0
   -0.7966    1.2237    2.5079 H   0  0  0  0  0  0  0  0  0  0  0  0
   -1.5201    4.7461    1.6554 H   0  0  0  0  0  0  0  0  0  0  0  0
   -3.6408   -0.0186    0.7444 H   0  0  0  0  0  0  0  0  0  0  0  0
  1  2  1  0
  2  3  2  0
  3  4  1  0
  4  5  2  0
  5  6  1  0
  6  7  1  0
  7  8  2  0
  8  9  1  0
  8 10  1  0
 10 11  2  0
 11 12  1  0
 12 13  2  0
 13 14  1  0
  5 15  1  0
 15 16  1  0
 16 17  1  0
 17 18  1  0
 17 19  2  0
 15 20  2  0
 20  2  1  0
 13  7  1  0
  1 21  1  0
  1 22  1  0
  1 23  1  0
  3 24  1  0
  4 25  1  0
  6 26  1  0
 10 27  1  0
 11 28  1  0
 12 29  1  0
 16 30  1  0
 16 31  1  0
 18 32  1  0
 20 33  1  0
M  END
$$$$
