@<TRIPOS>MOLECULE
*****
 33 34 0 0 0
SMALL
GASTEIGER

@<TRIPOS>ATOM
      1 C          -3.9512   -1.9550   -1.0151 C.3     1  UNL1       -0.0397
      2 C          -2.6619   -1.3600   -0.6149 C.ar    1  UNL1       -0.0501
      3 C          -1.4196   -1.7246   -1.0994 C.ar    1  UNL1       -0.0571
      4 C          -0.2400   -1.1566   -0.7117 C.ar    1  UNL1       -0.0400
      5 C          -0.3211   -0.1530    0.2284 C.ar    1  UNL1        0.0352
      6 N           0.8813    0.4692    0.6633 N.pl3   1  UNL1       -0.3109
      7 C           2.1520    0.0867    0.1579 C.ar    1  UNL1        0.0855
      8 C           2.5915    0.7752   -0.9782 C.ar    1  UNL1        0.0649
      9 CL          1.6432    2.0395   -1.7469 Cl      1  UNL1       -0.0815
     10 C           3.8193    0.4548   -1.5245 C.ar    1  UNL1       -0.0414
     11 C           4.6306   -0.5375   -0.9715 C.ar    1  UNL1       -0.0576
     12 C           4.1688   -1.2097    0.1622 C.ar    1  UNL1       -0.0245
     13 C           2.9369   -0.9016    0.7260 C.ar    1  UNL1        0.1458
     14 F           2.4756   -1.5496    1.8308 F       1  UNL1       -0.2035
     15 C          -1.5196    0.2701    0.7621 C.ar    1  UNL1       -0.0154
     16 C          -1.6298    1.3416    1.7684 C.3     1  UNL1        0.0716
     17 C          -1.4555    2.6972    1.1685 C.2     1  UNL1        0.3091
     18 O          -1.5404    3.7840    2.0282 O.3     1  UNL1       -0.4804
     19 O          -1.2377    2.8449   -0.0828 O.2     1  UNL1       -0.2507
     20 C          -2.6837   -0.3525    0.3219 C.ar    1  UNL1       -0.0534
     21 H          -4.6358   -1.2284   -1.4916 H       1  UNL1        0.0278
     22 H          -4.4496   -2.5208   -0.1965 H       1  UNL1        0.0278
     23 H          -3.7264   -2.7296   -1.7954 H       1  UNL1        0.0278
     24 H          -1.4248   -2.5194   -1.8359 H       1  UNL1        0.0621
     25 H           0.6921   -1.4993   -1.1395 H       1  UNL1        0.0636
     26 H           0.8963    1.2350    1.3720 H       1  UNL1        0.1523
     27 H           4.2221    0.9557   -2.4134 H       1  UNL1        0.0633
     28 H           5.6083   -0.8033   -1.3940 H       1  UNL1        0.0619
     29 H           4.7523   -1.9973    0.6464 H       1  UNL1        0.0647
     30 H          -2.6157    1.2929    2.2679 H       1  UNL1        0.0427
     31 H          -0.7966    1.2237    2.5079 H       1  UNL1        0.0427
     32 H          -1.5201    4.7461    1.6554 H       1  UNL1        0.2951
     33 H          -3.6408   -0.0186    0.7444 H       1  UNL1        0.0624
@<TRIPOS>BOND
     1     1     2    1
     2     2     3   ar
     3     3     4   ar
     4     4     5   ar
     5     5     6    1
     6     6     7    1
     7     7     8   ar
     8     8     9    1
     9     8    10   ar
    10    10    11   ar
    11    11    12   ar
    12    12    13   ar
    13    13    14    1
    14     5    15   ar
    15    15    16    1
    16    16    17    1
    17    17    18    1
    18    17    19    2
    19    15    20   ar
    20    20     2   ar
    21    13     7   ar
    22     1    21    1
    23     1    22    1
    24     1    23    1
    25     3    24    1
    26     4    25    1
    27     6    26    1
    28    10    27    1
    29    11    28    1
    30    12    29    1
    31    16    30    1
    32    16    31    1
    33    18    32    1
    34    20    33    1
