
     RDKit          3D

 66 69  0  0  0  0  0  0  0  0999 V2000
    6.9973   -2.1397    1.2538 C   0  0  0  0  0  0  0  0  0  0  0  0
    6.9384   -0.6323    1.1936 C   0  0  0  0  0  0  0  0  0  0  0  0
    5.6198   -0.2573    0.5509 C   0  0  0  0  0  0  0  0  0  0  0  0
    4.5379   -0.8053    1.3957 C   0  0  0  0  0  0  0  0  0  0  0  0
    4.6553   -1.5221    2.5471 N   0  0  0  0  0  0  0  0  0  0  0  0
    3.4591   -1.8297    3.0030 N   0  0  0  0  0  0  0  0  0  0  0  0
    3.1918   -2.5996    4.2280 C   0  0  0  0  0  0  0  0  0  0  0  0
    2.5409   -1.3214    2.1611 C   0  0  0  0  0  0  0  0  0  0  0  0
    1.1684   -1.3220    2.1202 C   0  0  0  0  0  0  0  0  0  0  0  0
    0.5631   -1.9129    3.0479 O   0  0  0  0  0  0  0  0  0  0  0  0
    0.5293   -0.7012    1.1065 N   0  0  0  0  0  0  0  0  0  0  0  0
    1.1339   -0.0615    0.1006 C   0  0  0  0  0  0  0  0  0  0  0  0
    0.4379    0.6067   -0.9908 C   0  0  0  0  0  0  0  0  0  0  0  0
   -0.9294    0.6168   -1.0493 C   0  0  0  0  0  0  0  0  0  0  0  0
   -1.5928    1.2593   -2.0997 C   0  0  0  0  0  0  0  0  0  0  0  0
   -2.9839    1.2758   -2.1878 N   0  0  0  0  0  0  0  0  0  0  0  0
   -3.9241    0.6601   -1.3126 C   0  0  0  0  0  0  0  0  0  0  0  0
   -3.9304   -0.8257   -1.2823 C   0  0  0  0  0  0  0  0  0  0  0  0
   -4.5316   -1.2468    0.0665 C   0  0  0  0  0  0  0  0  0  0  0  0
   -5.6707   -0.3277    0.4475 C   0  0  0  0  0  0  0  0  0  0  0  0
   -6.6758   -1.1603    1.1638 C   0  0  0  0  0  0  0  0  0  0  0  0
   -7.8554   -1.2985    0.7571 O   0  0  0  0  0  0  0  0  0  0  0  0
   -6.2682   -1.8201    2.3566 N   0  0  0  0  0  0  0  0  0  0  0  0
   -7.1119   -2.6011    3.0801 O   0  0  0  0  0  0  0  0  0  0  0  0
   -6.2954    0.1830   -0.8311 C   0  0  0  0  0  0  0  0  0  0  0  0
   -5.3540    1.1118   -1.5607 C   0  0  0  0  0  0  0  0  0  0  0  0
   -0.8207    1.8723   -3.0573 C   0  0  0  0  0  0  0  0  0  0  0  0
    0.5605    1.8566   -2.9892 C   0  0  0  0  0  0  0  0  0  0  0  0
    1.2218    1.2263   -1.9590 C   0  0  0  0  0  0  0  0  0  0  0  0
    2.5908    1.1771   -1.8384 O   0  0  0  0  0  0  0  0  0  0  0  0
    3.5441    1.7257   -2.6835 C   0  0  0  0  0  0  0  0  0  0  0  0
    3.3465    3.2254   -2.7363 C   0  0  0  0  0  0  0  0  0  0  0  0
    2.5010   -0.0645    0.1471 N   0  0  0  0  0  0  0  0  0  0  0  0
    3.1830   -0.6662    1.1315 C   0  0  0  0  0  0  0  0  0  0  0  0
    6.8175   -2.5383    2.2574 H   0  0  0  0  0  0  0  0  0  0  0  0
    6.2556   -2.6210    0.5764 H   0  0  0  0  0  0  0  0  0  0  0  0
    7.9945   -2.4681    0.8960 H   0  0  0  0  0  0  0  0  0  0  0  0
    6.8825   -0.2759    2.2496 H   0  0  0  0  0  0  0  0  0  0  0  0
    7.8001   -0.1922    0.6532 H   0  0  0  0  0  0  0  0  0  0  0  0
    5.5734   -0.7215   -0.4653 H   0  0  0  0  0  0  0  0  0  0  0  0
    5.5199    0.8324    0.3949 H   0  0  0  0  0  0  0  0  0  0  0  0
    4.0961   -2.6172    4.8343 H   0  0  0  0  0  0  0  0  0  0  0  0
    2.8538   -3.6073    3.9849 H   0  0  0  0  0  0  0  0  0  0  0  0
    2.4132   -2.0417    4.8211 H   0  0  0  0  0  0  0  0  0  0  0  0
   -0.5049   -0.7418    1.1398 H   0  0  0  0  0  0  0  0  0  0  0  0
   -1.5124    0.1255   -0.2657 H   0  0  0  0  0  0  0  0  0  0  0  0
   -3.4167    1.8099   -3.0043 H   0  0  0  0  0  0  0  0  0  0  0  0
   -3.6250    0.9899   -0.2681 H   0  0  0  0  0  0  0  0  0  0  0  0
   -2.9812   -1.3385   -1.3763 H   0  0  0  0  0  0  0  0  0  0  0  0
   -4.6543   -1.1749   -2.0783 H   0  0  0  0  0  0  0  0  0  0  0  0
   -3.7721   -1.1700    0.8683 H   0  0  0  0  0  0  0  0  0  0  0  0
   -4.8776   -2.2818    0.0176 H   0  0  0  0  0  0  0  0  0  0  0  0
   -5.3762    0.4822    1.1191 H   0  0  0  0  0  0  0  0  0  0  0  0
   -5.2899   -1.7177    2.7120 H   0  0  0  0  0  0  0  0  0  0  0  0
   -7.8334   -2.0060    3.4387 H   0  0  0  0  0  0  0  0  0  0  0  0
   -6.5609   -0.7144   -1.4334 H   0  0  0  0  0  0  0  0  0  0  0  0
   -7.2577    0.6688   -0.5637 H   0  0  0  0  0  0  0  0  0  0  0  0
   -5.5168    2.1676   -1.2995 H   0  0  0  0  0  0  0  0  0  0  0  0
   -5.5506    0.9944   -2.6458 H   0  0  0  0  0  0  0  0  0  0  0  0
   -1.2930    2.3876   -3.8972 H   0  0  0  0  0  0  0  0  0  0  0  0
    1.1050    2.3562   -3.7761 H   0  0  0  0  0  0  0  0  0  0  0  0
    4.5467    1.5555   -2.2022 H   0  0  0  0  0  0  0  0  0  0  0  0
    3.5314    1.2774   -3.6972 H   0  0  0  0  0  0  0  0  0  0  0  0
    2.4364    3.5259   -2.1703 H   0  0  0  0  0  0  0  0  0  0  0  0
    4.2168    3.7776   -2.2953 H   0  0  0  0  0  0  0  0  0  0  0  0
    3.2032    3.5038   -3.8053 H   0  0  0  0  0  0  0  0  0  0  0  0
  1  2  1  0
  2  3  1  0
  3  4  1  0
  4  5  2  0
  5  6  1  0
  6  7  1  0
  6  8  1  0
  8  9  1  0
  9 10  2  0
  9 11  1  0
 11 12  1  0
 12 13  1  0
 13 14  2  0
 14 15  1  0
 15 16  1  0
 16 17  1  0
 17 18  1  0
 18 19  1  0
 19 20  1  0
 20 21  1  0
 21 22  2  0
 21 23  1  0
 23 24  1  0
 20 25  1  0
 25 26  1  0
 15 27  2  0
 27 28  1  0
 28 29  2  0
 29 30  1  0
 30 31  1  0
 31 32  1  0
 12 33  2  0
 33 34  1  0
 34  4  1  0
 34  8  2  0
 29 13  1  0
 26 17  1  0
  1 35  1  0
  1 36  1  0
  1 37  1  0
  2 38  1  0
  2 39  1  0
  3 40  1  0
  3 41  1  0
  7 42  1  0
  7 43  1  0
  7 44  1  0
 11 45  1  0
 14 46  1  0
 16 47  1  0
 17 48  1  0
 18 49  1  0
 18 50  1  0
 19 51  1  0
 19 52  1  0
 20 53  1  0
 23 54  1  0
 24 55  1  0
 25 56  1  0
 25 57  1  0
 26 58  1  0
 26 59  1  0
 27 60  1  0
 28 61  1  0
 31 62  1  0
 31 63  1  0
 32 64  1  0
 32 65  1  0
 32 66  1  0
M  END
$$$$
