@<TRIPOS>MOLECULE
*****
 66 69 0 0 0
SMALL
GASTEIGER

@<TRIPOS>ATOM
      1 C           6.9973   -2.1397    1.2538 C.3     1  UNL1       -0.0649
      2 C           6.9384   -0.6323    1.1936 C.3     1  UNL1       -0.0504
      3 C           5.6198   -0.2573    0.5509 C.3     1  UNL1       -0.0068
      4 C           4.5379   -0.8053    1.3957 C.ar    1  UNL1        0.0891
      5 N           4.6553   -1.5221    2.5471 N.ar    1  UNL1       -0.1736
      6 N           3.4591   -1.8297    3.0030 N.ar    1  UNL1       -0.2598
      7 C           3.1918   -2.5996    4.2280 C.3     1  UNL1        0.0311
      8 C           2.5409   -1.3214    2.1611 C.ar    1  UNL1        0.1513
      9 C           1.1684   -1.3220    2.1202 C.ar    1  UNL1        0.2775
     10 O           0.5631   -1.9129    3.0479 O.2     1  UNL1       -0.2655
     11 N           0.5293   -0.7012    1.1065 N.ar    1  UNL1       -0.3051
     12 C           1.1339   -0.0615    0.1006 C.ar    1  UNL1        0.1452
     13 C           0.4379    0.6067   -0.9908 C.ar    1  UNL1        0.0607
     14 C          -0.9294    0.6168   -1.0493 C.ar    1  UNL1       -0.0267
     15 C          -1.5928    1.2593   -2.0997 C.ar    1  UNL1        0.0282
     16 N          -2.9839    1.2758   -2.1878 N.pl3   1  UNL1       -0.3410
     17 C          -3.9241    0.6601   -1.3126 C.3     1  UNL1        0.0207
     18 C          -3.9304   -0.8257   -1.2823 C.3     1  UNL1       -0.0339
     19 C          -4.5316   -1.2468    0.0665 C.3     1  UNL1       -0.0402
     20 C          -5.6707   -0.3277    0.4475 C.3     1  UNL1        0.0376
     21 C          -6.6758   -1.1603    1.1638 C.2     1  UNL1        0.2385
     22 O          -7.8554   -1.2985    0.7571 O.2     1  UNL1       -0.2734
     23 N          -6.2682   -1.8201    2.3566 N.am    1  UNL1       -0.1973
     24 O          -7.1119   -2.6011    3.0801 O.3     1  UNL1       -0.2952
     25 C          -6.2954    0.1830   -0.8311 C.3     1  UNL1       -0.0402
     26 C          -5.3540    1.1118   -1.5607 C.3     1  UNL1       -0.0339
     27 C          -0.8207    1.8723   -3.0573 C.ar    1  UNL1       -0.0374
     28 C           0.5605    1.8566   -2.9892 C.ar    1  UNL1       -0.0175
     29 C           1.2218    1.2263   -1.9590 C.ar    1  UNL1        0.1312
     30 O           2.5908    1.1771   -1.8384 O.3     1  UNL1       -0.4915
     31 C           3.5441    1.7257   -2.6835 C.3     1  UNL1        0.0868
     32 C           3.3465    3.2254   -2.7363 C.3     1  UNL1       -0.0307
     33 N           2.5010   -0.0645    0.1471 N.ar    1  UNL1       -0.2254
     34 C           3.1830   -0.6662    1.1315 C.ar    1  UNL1        0.1192
     35 H           6.8175   -2.5383    2.2574 H       1  UNL1        0.0230
     36 H           6.2556   -2.6210    0.5764 H       1  UNL1        0.0230
     37 H           7.9945   -2.4681    0.8960 H       1  UNL1        0.0230
     38 H           6.8825   -0.2759    2.2496 H       1  UNL1        0.0266
     39 H           7.8001   -0.1922    0.6532 H       1  UNL1        0.0266
     40 H           5.5734   -0.7215   -0.4653 H       1  UNL1        0.0329
     41 H           5.5199    0.8324    0.3949 H       1  UNL1        0.0329
     42 H           4.0961   -2.6172    4.8343 H       1  UNL1        0.0473
     43 H           2.8538   -3.6073    3.9849 H       1  UNL1        0.0473
     44 H           2.4132   -2.0417    4.8211 H       1  UNL1        0.0473
     45 H          -0.5049   -0.7418    1.1398 H       1  UNL1        0.1704
     46 H          -1.5124    0.1255   -0.2657 H       1  UNL1        0.0644
     47 H          -3.4167    1.8099   -3.0043 H       1  UNL1        0.1463
     48 H          -3.6250    0.9899   -0.2681 H       1  UNL1        0.0497
     49 H          -2.9812   -1.3385   -1.3763 H       1  UNL1        0.0283
     50 H          -4.6543   -1.1749   -2.0783 H       1  UNL1        0.0283
     51 H          -3.7721   -1.1700    0.8683 H       1  UNL1        0.0273
     52 H          -4.8776   -2.2818    0.0176 H       1  UNL1        0.0273
     53 H          -5.3762    0.4822    1.1191 H       1  UNL1        0.0395
     54 H          -5.2899   -1.7177    2.7120 H       1  UNL1        0.1822
     55 H          -7.8334   -2.0060    3.4387 H       1  UNL1        0.2414
     56 H          -6.5609   -0.7144   -1.4334 H       1  UNL1        0.0273
     57 H          -7.2577    0.6688   -0.5637 H       1  UNL1        0.0273
     58 H          -5.5168    2.1676   -1.2995 H       1  UNL1        0.0283
     59 H          -5.5506    0.9944   -2.6458 H       1  UNL1        0.0283
     60 H          -1.2930    2.3876   -3.8972 H       1  UNL1        0.0637
     61 H           1.1050    2.3562   -3.7761 H       1  UNL1        0.0655
     62 H           4.5467    1.5555   -2.2022 H       1  UNL1        0.0694
     63 H           3.5314    1.2774   -3.6972 H       1  UNL1        0.0694
     64 H           2.4364    3.5259   -2.1703 H       1  UNL1        0.0262
     65 H           4.2168    3.7776   -2.2953 H       1  UNL1        0.0262
     66 H           3.2032    3.5038   -3.8053 H       1  UNL1        0.0262
@<TRIPOS>BOND
     1     1     2    1
     2     2     3    1
     3     3     4    1
     4     4     5   ar
     5     5     6   ar
     6     6     7    1
     7     6     8   ar
     8     8     9   ar
     9     9    10    2
    10     9    11   ar
    11    11    12   ar
    12    12    13    1
    13    13    14   ar
    14    14    15   ar
    15    15    16    1
    16    16    17    1
    17    17    18    1
    18    18    19    1
    19    19    20    1
    20    20    21    1
    21    21    22    2
    22    21    23   am
    23    23    24    1
    24    20    25    1
    25    25    26    1
    26    15    27   ar
    27    27    28   ar
    28    28    29   ar
    29    29    30    1
    30    30    31    1
    31    31    32    1
    32    12    33   ar
    33    33    34   ar
    34    34     4   ar
    35    34     8   ar
    36    29    13   ar
    37    26    17    1
    38     1    35    1
    39     1    36    1
    40     1    37    1
    41     2    38    1
    42     2    39    1
    43     3    40    1
    44     3    41    1
    45     7    42    1
    46     7    43    1
    47     7    44    1
    48    11    45    1
    49    14    46    1
    50    16    47    1
    51    17    48    1
    52    18    49    1
    53    18    50    1
    54    19    51    1
    55    19    52    1
    56    20    53    1
    57    23    54    1
    58    24    55    1
    59    25    56    1
    60    25    57    1
    61    26    58    1
    62    26    59    1
    63    27    60    1
    64    28    61    1
    65    31    62    1
    66    31    63    1
    67    32    64    1
    68    32    65    1
    69    32    66    1
