
     RDKit          3D

 63 66  0  0  0  0  0  0  0  0999 V2000
   -8.5549   -1.3369    1.1027 C   0  0  0  0  0  0  0  0  0  0  0  0
   -7.4413   -0.6191    0.3986 C   0  0  0  0  0  0  0  0  0  0  0  0
   -6.3367   -1.2945   -0.0694 C   0  0  0  0  0  0  0  0  0  0  0  0
   -5.3499   -0.5833   -0.7065 C   0  0  0  0  0  0  0  0  0  0  0  0
   -4.1242   -1.2702   -1.2432 C   0  0  0  0  0  0  0  0  0  0  0  0
   -3.0262   -1.1419   -0.5938 O   0  0  0  0  0  0  0  0  0  0  0  0
   -1.9261   -0.9960    0.0551 C   0  0  0  0  0  0  0  0  0  0  0  0
   -1.3940    0.2892    0.2529 C   0  0  0  0  0  0  0  0  0  0  0  0
   -0.2379    0.4903    0.9295 C   0  0  0  0  0  0  0  0  0  0  0  0
    0.4828   -0.5498    1.4623 C   0  0  0  0  0  0  0  0  0  0  0  0
    1.9378   -0.1454    2.3132 S   0  0  0  0  0  6  0  0  0  0  0  0
    2.2161   -1.1790    3.3386 O   0  0  0  0  0  0  0  0  0  0  0  0
    1.7085    1.1613    3.0348 O   0  0  0  0  0  0  0  0  0  0  0  0
    3.3279    0.1184    1.2217 C   0  0  0  0  0  0  0  0  0  0  0  0
    3.6756   -1.0622    0.4136 C   0  0  0  0  0  0  0  0  0  0  0  0
    4.8415   -0.8553   -0.4671 C   0  0  0  0  0  0  0  0  0  0  0  0
    5.3482    0.1837   -1.0415 C   0  0  0  0  0  0  0  0  0  0  0  0
    6.5955    0.0684   -1.9157 C   0  0  0  0  0  0  0  0  0  0  0  0
    7.5783    1.0725   -1.3744 C   0  0  0  0  0  0  0  0  0  0  0  0
    7.0602    2.3670   -1.4142 O   0  0  0  0  0  0  0  0  0  0  0  0
    5.7586    2.4025   -1.8472 C   0  0  0  0  0  0  0  0  0  0  0  0
    4.8245    1.5489   -0.9415 C   0  0  0  0  0  0  0  0  0  0  0  0
    3.8496   -2.2675    1.2108 N   0  0  0  0  0  0  0  0  0  0  0  0
    3.0716   -3.3265    0.9897 O   0  0  0  0  0  0  0  0  0  0  0  0
    4.8489   -2.3166    2.2040 C   0  0  0  0  0  0  0  0  0  0  0  0
    5.0205   -3.3446    2.9080 O   0  0  0  0  0  0  0  0  0  0  0  0
    0.0040   -1.8058    1.2943 C   0  0  0  0  0  0  0  0  0  0  0  0
   -1.1618   -2.0341    0.6144 C   0  0  0  0  0  0  0  0  0  0  0  0
   -5.4541    0.7720   -0.8775 C   0  0  0  0  0  0  0  0  0  0  0  0
   -4.4764    1.5225   -1.5155 C   0  0  0  0  0  0  0  0  0  0  0  0
   -4.6580    2.8829   -1.6465 C   0  0  0  0  0  0  0  0  0  0  0  0
   -5.7573    3.5421   -1.1792 C   0  0  0  0  0  0  0  0  0  0  0  0
   -6.7270    2.8058   -0.5474 C   0  0  0  0  0  0  0  0  0  0  0  0
   -6.5853    1.4363   -0.3939 C   0  0  0  0  0  0  0  0  0  0  0  0
   -7.5302    0.7052    0.2246 N   0  0  0  0  0  0  0  0  0  0  0  0
   -8.6016   -2.3571    0.6601 H   0  0  0  0  0  0  0  0  0  0  0  0
   -9.5234   -0.8085    0.9785 H   0  0  0  0  0  0  0  0  0  0  0  0
   -8.3212   -1.3350    2.1794 H   0  0  0  0  0  0  0  0  0  0  0  0
   -6.2473   -2.3794    0.0645 H   0  0  0  0  0  0  0  0  0  0  0  0
   -4.4155   -2.3642   -1.3815 H   0  0  0  0  0  0  0  0  0  0  0  0
   -4.0431   -0.8833   -2.3140 H   0  0  0  0  0  0  0  0  0  0  0  0
   -1.9480    1.1360   -0.1611 H   0  0  0  0  0  0  0  0  0  0  0  0
    0.1094    1.5216    1.0409 H   0  0  0  0  0  0  0  0  0  0  0  0
    4.1681    0.4734    1.8393 H   0  0  0  0  0  0  0  0  0  0  0  0
    2.9924    0.9745    0.5870 H   0  0  0  0  0  0  0  0  0  0  0  0
    2.8109   -1.2380   -0.3050 H   0  0  0  0  0  0  0  0  0  0  0  0
    5.4462   -1.8104   -0.7109 H   0  0  0  0  0  0  0  0  0  0  0  0
    6.3654    0.2910   -2.9632 H   0  0  0  0  0  0  0  0  0  0  0  0
    7.0256   -0.9420   -1.8202 H   0  0  0  0  0  0  0  0  0  0  0  0
    7.7851    0.8580   -0.2891 H   0  0  0  0  0  0  0  0  0  0  0  0
    8.5462    1.0526   -1.8954 H   0  0  0  0  0  0  0  0  0  0  0  0
    5.5994    2.1651   -2.9126 H   0  0  0  0  0  0  0  0  0  0  0  0
    5.4045    3.4620   -1.7205 H   0  0  0  0  0  0  0  0  0  0  0  0
    4.9386    2.0222    0.0579 H   0  0  0  0  0  0  0  0  0  0  0  0
    3.8270    1.6886   -1.4063 H   0  0  0  0  0  0  0  0  0  0  0  0
    3.1986   -4.0095    1.7092 H   0  0  0  0  0  0  0  0  0  0  0  0
    5.5023   -1.4768    2.3970 H   0  0  0  0  0  0  0  0  0  0  0  0
    0.5691   -2.6235    1.7215 H   0  0  0  0  0  0  0  0  0  0  0  0
   -1.5566   -3.0281    0.4720 H   0  0  0  0  0  0  0  0  0  0  0  0
   -3.6053    1.0207   -1.8867 H   0  0  0  0  0  0  0  0  0  0  0  0
   -3.8980    3.4667   -2.1430 H   0  0  0  0  0  0  0  0  0  0  0  0
   -5.9176    4.6094   -1.2726 H   0  0  0  0  0  0  0  0  0  0  0  0
   -7.6197    3.2735   -0.1564 H   0  0  0  0  0  0  0  0  0  0  0  0
  1  2  1  0
  2  3  2  0
  3  4  1  0
  4  5  1  0
  5  6  1  0
  6  7  1  0
  7  8  2  0
  8  9  1  0
  9 10  2  0
 10 11  1  0
 11 12  2  0
 11 13  2  0
 11 14  1  0
 14 15  1  0
 15 16  1  0
 16 17  2  3
 17 18  1  0
 18 19  1  0
 19 20  1  0
 20 21  1  0
 21 22  1  0
 15 23  1  0
 23 24  1  0
 23 25  1  0
 25 26  2  0
 10 27  1  0
 27 28  2  0
  4 29  2  0
 29 30  1  0
 30 31  2  0
 31 32  1  0
 32 33  2  0
 33 34  1  0
 34 35  2  0
 35  2  1  0
 28  7  1  0
 34 29  1  0
 22 17  1  0
  1 36  1  0
  1 37  1  0
  1 38  1  0
  3 39  1  0
  5 40  1  0
  5 41  1  0
  8 42  1  0
  9 43  1  0
 14 44  1  0
 14 45  1  0
 15 46  1  0
 16 47  1  0
 18 48  1  0
 18 49  1  0
 19 50  1  0
 19 51  1  0
 21 52  1  0
 21 53  1  0
 22 54  1  0
 22 55  1  0
 24 56  1  0
 25 57  1  0
 27 58  1  0
 28 59  1  0
 30 60  1  0
 31 61  1  0
 32 62  1  0
 33 63  1  0
M  END
$$$$
