@<TRIPOS>MOLECULE
*****
 63 66 0 0 0
SMALL
GASTEIGER

@<TRIPOS>ATOM
      1 C          -8.5549   -1.3369    1.1027 C.3     1  UNL1       -0.0223
      2 C          -7.4413   -0.6191    0.3986 C.ar    1  UNL1        0.0393
      3 C          -6.3367   -1.2945   -0.0694 C.ar    1  UNL1       -0.0337
      4 C          -5.3499   -0.5833   -0.7065 C.ar    1  UNL1        0.0004
      5 C          -4.1242   -1.2702   -1.2432 C.3     1  UNL1        0.1153
      6 O          -3.0262   -1.1419   -0.5938 O.3     1  UNL1       -0.4874
      7 C          -1.9261   -0.9960    0.0551 C.ar    1  UNL1        0.1211
      8 C          -1.3940    0.2892    0.2529 C.ar    1  UNL1       -0.0181
      9 C          -0.2379    0.4903    0.9295 C.ar    1  UNL1       -0.0334
     10 C           0.4828   -0.5498    1.4623 C.ar    1  UNL1        0.0885
     11 S           1.9378   -0.1454    2.3132 S.O2    1  UNL1       -0.0010
     12 O           2.2161   -1.1790    3.3386 O.2     1  UNL1       -0.1693
     13 O           1.7085    1.1613    3.0348 O.2     1  UNL1       -0.1693
     14 C           3.3279    0.1184    1.2217 C.3     1  UNL1        0.0952
     15 C           3.6756   -1.0622    0.4136 C.3     1  UNL1        0.0906
     16 C           4.8415   -0.8553   -0.4671 C.2     1  UNL1       -0.0605
     17 C           5.3482    0.1837   -1.0415 C.2     1  UNL1       -0.0673
     18 C           6.5955    0.0684   -1.9157 C.3     1  UNL1       -0.0081
     19 C           7.5783    1.0725   -1.3744 C.3     1  UNL1        0.0513
     20 O           7.0602    2.3670   -1.4142 O.3     1  UNL1       -0.3791
     21 C           5.7586    2.4025   -1.8472 C.3     1  UNL1        0.0513
     22 C           4.8245    1.5489   -0.9415 C.3     1  UNL1       -0.0081
     23 N           3.8496   -2.2675    1.2108 N.am    1  UNL1       -0.1779
     24 O           3.0716   -3.3265    0.9897 O.3     1  UNL1       -0.2921
     25 C           4.8489   -2.3166    2.2040 C.2     1  UNL1        0.2256
     26 O           5.0205   -3.3446    2.9080 O.2     1  UNL1       -0.2772
     27 C           0.0040   -1.8058    1.2943 C.ar    1  UNL1       -0.0334
     28 C          -1.1618   -2.0341    0.6144 C.ar    1  UNL1       -0.0181
     29 C          -5.4541    0.7720   -0.8775 C.ar    1  UNL1        0.0068
     30 C          -4.4764    1.5225   -1.5155 C.ar    1  UNL1       -0.0522
     31 C          -4.6580    2.8829   -1.6465 C.ar    1  UNL1       -0.0611
     32 C          -5.7573    3.5421   -1.1792 C.ar    1  UNL1       -0.0597
     33 C          -6.7270    2.8058   -0.5474 C.ar    1  UNL1       -0.0357
     34 C          -6.5853    1.4363   -0.3939 C.ar    1  UNL1        0.0716
     35 N          -7.5302    0.7052    0.2246 N.ar    1  UNL1       -0.2519
     36 H          -8.6016   -2.3571    0.6601 H       1  UNL1        0.0292
     37 H          -9.5234   -0.8085    0.9785 H       1  UNL1        0.0292
     38 H          -8.3212   -1.3350    2.1794 H       1  UNL1        0.0292
     39 H          -6.2473   -2.3794    0.0645 H       1  UNL1        0.0639
     40 H          -4.4155   -2.3642   -1.3815 H       1  UNL1        0.0748
     41 H          -4.0431   -0.8833   -2.3140 H       1  UNL1        0.0748
     42 H          -1.9480    1.1360   -0.1611 H       1  UNL1        0.0655
     43 H           0.1094    1.5216    1.0409 H       1  UNL1        0.0638
     44 H           4.1681    0.4734    1.8393 H       1  UNL1        0.0527
     45 H           2.9924    0.9745    0.5870 H       1  UNL1        0.0527
     46 H           2.8109   -1.2380   -0.3050 H       1  UNL1        0.0585
     47 H           5.4462   -1.8104   -0.7109 H       1  UNL1        0.0591
     48 H           6.3654    0.2910   -2.9632 H       1  UNL1        0.0332
     49 H           7.0256   -0.9420   -1.8202 H       1  UNL1        0.0332
     50 H           7.7851    0.8580   -0.2891 H       1  UNL1        0.0563
     51 H           8.5462    1.0526   -1.8954 H       1  UNL1        0.0563
     52 H           5.5994    2.1651   -2.9126 H       1  UNL1        0.0563
     53 H           5.4045    3.4620   -1.7205 H       1  UNL1        0.0563
     54 H           4.9386    2.0222    0.0579 H       1  UNL1        0.0332
     55 H           3.8270    1.6886   -1.4063 H       1  UNL1        0.0332
     56 H           3.1986   -4.0095    1.7092 H       1  UNL1        0.2417
     57 H           5.5023   -1.4768    2.3970 H       1  UNL1        0.1274
     58 H           0.5691   -2.6235    1.7215 H       1  UNL1        0.0638
     59 H          -1.5566   -3.0281    0.4720 H       1  UNL1        0.0655
     60 H          -3.6053    1.0207   -1.8867 H       1  UNL1        0.0624
     61 H          -3.8980    3.4667   -2.1430 H       1  UNL1        0.0618
     62 H          -5.9176    4.6094   -1.2726 H       1  UNL1        0.0618
     63 H          -7.6197    3.2735   -0.1564 H       1  UNL1        0.0639
@<TRIPOS>BOND
     1     1     2    1
     2     2     3   ar
     3     3     4   ar
     4     4     5    1
     5     5     6    1
     6     6     7    1
     7     7     8   ar
     8     8     9   ar
     9     9    10   ar
    10    10    11    1
    11    11    12    2
    12    11    13    2
    13    11    14    1
    14    14    15    1
    15    15    16    1
    16    16    17    2
    17    17    18    1
    18    18    19    1
    19    19    20    1
    20    20    21    1
    21    21    22    1
    22    15    23    1
    23    23    24    1
    24    23    25   am
    25    25    26    2
    26    10    27   ar
    27    27    28   ar
    28     4    29   ar
    29    29    30   ar
    30    30    31   ar
    31    31    32   ar
    32    32    33   ar
    33    33    34   ar
    34    34    35   ar
    35    35     2   ar
    36    28     7   ar
    37    34    29   ar
    38    22    17    1
    39     1    36    1
    40     1    37    1
    41     1    38    1
    42     3    39    1
    43     5    40    1
    44     5    41    1
    45     8    42    1
    46     9    43    1
    47    14    44    1
    48    14    45    1
    49    15    46    1
    50    16    47    1
    51    18    48    1
    52    18    49    1
    53    19    50    1
    54    19    51    1
    55    21    52    1
    56    21    53    1
    57    22    54    1
    58    22    55    1
    59    24    56    1
    60    25    57    1
    61    27    58    1
    62    28    59    1
    63    30    60    1
    64    31    61    1
    65    32    62    1
    66    33    63    1
