@<TRIPOS>MOLECULE
*****
 44 45 0 0 0
SMALL
GASTEIGER

@<TRIPOS>ATOM
      1 C          -5.5658   -1.9718   -0.0287 C.3     1  UNL1       -0.0634
      2 C          -6.0505   -0.6810   -0.5943 C.3     1  UNL1       -0.0321
      3 C          -5.3725    0.5501    0.0153 C.3     1  UNL1        0.0820
      4 N          -5.9582    1.7268   -0.6339 N.3     1  UNL1       -0.3199
      5 C          -3.9355    0.5308   -0.3119 C.2     1  UNL1        0.2308
      6 O          -3.5023    1.3310   -1.1912 O.2     1  UNL1       -0.2741
      7 N          -3.0055   -0.3307    0.3003 N.am    1  UNL1       -0.2983
      8 C          -1.5912   -0.2701   -0.1038 C.3     1  UNL1        0.1142
      9 C          -1.2128   -1.6032   -0.5491 C.1     1  UNL1        0.0852
     10 N          -0.9178   -2.6801   -0.9267 N.1     1  UNL1       -0.1946
     11 C          -0.8203    0.1399    1.1340 C.3     1  UNL1        0.0041
     12 C           0.6301    0.2416    0.8748 C.ar    1  UNL1       -0.0446
     13 C           1.2416    1.4030    0.4556 C.ar    1  UNL1       -0.0579
     14 C           2.6238    1.4414    0.2243 C.ar    1  UNL1       -0.0538
     15 C           3.3905    0.3291    0.4101 C.ar    1  UNL1       -0.0179
     16 C           4.8467    0.3290    0.1777 C.ar    1  UNL1       -0.0179
     17 C           5.4414    1.1201   -0.7824 C.ar    1  UNL1       -0.0540
     18 C           6.8104    1.1061   -0.9846 C.ar    1  UNL1       -0.0612
     19 C           7.6366    0.2979   -0.2315 C.ar    1  UNL1       -0.0617
     20 C           7.0437   -0.4937    0.7289 C.ar    1  UNL1       -0.0612
     21 C           5.6762   -0.4786    0.9295 C.ar    1  UNL1       -0.0540
     22 C           2.7657   -0.8344    0.8321 C.ar    1  UNL1       -0.0538
     23 C           1.4165   -0.8677    1.0566 C.ar    1  UNL1       -0.0579
     24 H          -6.3154   -2.7818   -0.2804 H       1  UNL1        0.0230
     25 H          -5.4770   -1.9557    1.0773 H       1  UNL1        0.0230
     26 H          -4.6131   -2.3304   -0.4394 H       1  UNL1        0.0230
     27 H          -5.8271   -0.6232   -1.6948 H       1  UNL1        0.0282
     28 H          -7.1379   -0.5708   -0.3893 H       1  UNL1        0.0282
     29 H          -5.5113    0.6088    1.0998 H       1  UNL1        0.0554
     30 H          -5.8637    2.5620   -0.0256 H       1  UNL1        0.1189
     31 H          -5.5212    1.8802   -1.5664 H       1  UNL1        0.1189
     32 H          -3.3181   -0.9934    1.0326 H       1  UNL1        0.1500
     33 H          -1.4718    0.4908   -0.8915 H       1  UNL1        0.0660
     34 H          -1.1752    1.1845    1.3760 H       1  UNL1        0.0341
     35 H          -1.0822   -0.5102    1.9777 H       1  UNL1        0.0341
     36 H           0.6310    2.2819    0.3097 H       1  UNL1        0.0620
     37 H           3.0925    2.3680   -0.1069 H       1  UNL1        0.0624
     38 H           4.7913    1.7466   -1.3658 H       1  UNL1        0.0624
     39 H           7.2666    1.7378   -1.7486 H       1  UNL1        0.0618
     40 H           8.7044    0.3158   -0.4210 H       1  UNL1        0.0618
     41 H           7.6909   -1.1283    1.3206 H       1  UNL1        0.0618
     42 H           5.2024   -1.1036    1.6882 H       1  UNL1        0.0624
     43 H           3.3794   -1.7104    0.9769 H       1  UNL1        0.0624
     44 H           0.9647   -1.8042    1.3883 H       1  UNL1        0.0620
@<TRIPOS>BOND
     1     1     2    1
     2     2     3    1
     3     3     4    1
     4     3     5    1
     5     5     6    2
     6     5     7   am
     7     7     8    1
     8     8     9    1
     9     9    10    3
    10     8    11    1
    11    11    12    1
    12    12    13   ar
    13    13    14   ar
    14    14    15   ar
    15    15    16    1
    16    16    17   ar
    17    17    18   ar
    18    18    19   ar
    19    19    20   ar
    20    20    21   ar
    21    15    22   ar
    22    22    23   ar
    23    23    12   ar
    24    21    16   ar
    25     1    24    1
    26     1    25    1
    27     1    26    1
    28     2    27    1
    29     2    28    1
    30     3    29    1
    31     4    30    1
    32     4    31    1
    33     7    32    1
    34     8    33    1
    35    11    34    1
    36    11    35    1
    37    13    36    1
    38    14    37    1
    39    17    38    1
    40    18    39    1
    41    19    40    1
    42    20    41    1
    43    21    42    1
    44    22    43    1
    45    23    44    1
