
     RDKit          3D

 44 45  0  0  0  0  0  0  0  0999 V2000
   -5.5658   -1.9718   -0.0287 C   0  0  0  0  0  0  0  0  0  0  0  0
   -6.0505   -0.6810   -0.5943 C   0  0  0  0  0  0  0  0  0  0  0  0
   -5.3725    0.5501    0.0153 C   0  0  2  0  0  0  0  0  0  0  0  0
   -5.9582    1.7268   -0.6339 N   0  0  0  0  0  0  0  0  0  0  0  0
   -3.9355    0.5308   -0.3119 C   0  0  0  0  0  0  0  0  0  0  0  0
   -3.5023    1.3310   -1.1912 O   0  0  0  0  0  0  0  0  0  0  0  0
   -3.0055   -0.3307    0.3003 N   0  0  0  0  0  0  0  0  0  0  0  0
   -1.5912   -0.2701   -0.1038 C   0  0  2  0  0  0  0  0  0  0  0  0
   -1.2128   -1.6032   -0.5491 C   0  0  0  0  0  0  0  0  0  0  0  0
   -0.9178   -2.6801   -0.9267 N   0  0  0  0  0  0  0  0  0  0  0  0
   -0.8203    0.1399    1.1340 C   0  0  0  0  0  0  0  0  0  0  0  0
    0.6301    0.2416    0.8748 C   0  0  0  0  0  0  0  0  0  0  0  0
    1.2416    1.4030    0.4556 C   0  0  0  0  0  0  0  0  0  0  0  0
    2.6238    1.4414    0.2243 C   0  0  0  0  0  0  0  0  0  0  0  0
    3.3905    0.3291    0.4101 C   0  0  0  0  0  0  0  0  0  0  0  0
    4.8467    0.3290    0.1777 C   0  0  0  0  0  0  0  0  0  0  0  0
    5.4414    1.1201   -0.7824 C   0  0  0  0  0  0  0  0  0  0  0  0
    6.8104    1.1061   -0.9846 C   0  0  0  0  0  0  0  0  0  0  0  0
    7.6366    0.2979   -0.2315 C   0  0  0  0  0  0  0  0  0  0  0  0
    7.0437   -0.4937    0.7289 C   0  0  0  0  0  0  0  0  0  0  0  0
    5.6762   -0.4786    0.9295 C   0  0  0  0  0  0  0  0  0  0  0  0
    2.7657   -0.8344    0.8321 C   0  0  0  0  0  0  0  0  0  0  0  0
    1.4165   -0.8677    1.0566 C   0  0  0  0  0  0  0  0  0  0  0  0
   -6.3154   -2.7818   -0.2804 H   0  0  0  0  0  0  0  0  0  0  0  0
   -5.4770   -1.9557    1.0773 H   0  0  0  0  0  0  0  0  0  0  0  0
   -4.6131   -2.3304   -0.4394 H   0  0  0  0  0  0  0  0  0  0  0  0
   -5.8271   -0.6232   -1.6948 H   0  0  0  0  0  0  0  0  0  0  0  0
   -7.1379   -0.5708   -0.3893 H   0  0  0  0  0  0  0  0  0  0  0  0
   -5.5113    0.6088    1.0998 H   0  0  0  0  0  0  0  0  0  0  0  0
   -5.8637    2.5620   -0.0256 H   0  0  0  0  0  0  0  0  0  0  0  0
   -5.5212    1.8802   -1.5664 H   0  0  0  0  0  0  0  0  0  0  0  0
   -3.3181   -0.9934    1.0326 H   0  0  0  0  0  0  0  0  0  0  0  0
   -1.4718    0.4908   -0.8915 H   0  0  0  0  0  0  0  0  0  0  0  0
   -1.1752    1.1845    1.3760 H   0  0  0  0  0  0  0  0  0  0  0  0
   -1.0822   -0.5102    1.9777 H   0  0  0  0  0  0  0  0  0  0  0  0
    0.6310    2.2819    0.3097 H   0  0  0  0  0  0  0  0  0  0  0  0
    3.0925    2.3680   -0.1069 H   0  0  0  0  0  0  0  0  0  0  0  0
    4.7913    1.7466   -1.3658 H   0  0  0  0  0  0  0  0  0  0  0  0
    7.2666    1.7378   -1.7486 H   0  0  0  0  0  0  0  0  0  0  0  0
    8.7044    0.3158   -0.4210 H   0  0  0  0  0  0  0  0  0  0  0  0
    7.6909   -1.1283    1.3206 H   0  0  0  0  0  0  0  0  0  0  0  0
    5.2024   -1.1036    1.6882 H   0  0  0  0  0  0  0  0  0  0  0  0
    3.3794   -1.7104    0.9769 H   0  0  0  0  0  0  0  0  0  0  0  0
    0.9647   -1.8042    1.3883 H   0  0  0  0  0  0  0  0  0  0  0  0
  1  2  1  0
  2  3  1  0
  3  4  1  0
  3  5  1  0
  5  6  2  0
  5  7  1  0
  7  8  1  0
  8  9  1  0
  9 10  3  0
  8 11  1  0
 11 12  1  0
 12 13  2  0
 13 14  1  0
 14 15  2  0
 15 16  1  0
 16 17  2  0
 17 18  1  0
 18 19  2  0
 19 20  1  0
 20 21  2  0
 15 22  1  0
 22 23  2  0
 23 12  1  0
 21 16  1  0
  1 24  1  0
  1 25  1  0
  1 26  1  0
  2 27  1  0
  2 28  1  0
  3 29  1  1
  4 30  1  0
  4 31  1  0
  7 32  1  0
  8 33  1  6
 11 34  1  0
 11 35  1  0
 13 36  1  0
 14 37  1  0
 17 38  1  0
 18 39  1  0
 19 40  1  0
 20 41  1  0
 21 42  1  0
 22 43  1  0
 23 44  1  0
M  END
$$$$
