@<TRIPOS>MOLECULE
*****
 62 65 0 0 0
SMALL
GASTEIGER

@<TRIPOS>ATOM
      1 C           0.1729    8.7106   -1.6089 C.3     1  UNL1       -0.0319
      2 C          -0.2022    7.2977   -1.2963 C.ar    1  UNL1        0.0068
      3 C          -1.3909    6.7730   -0.8268 C.ar    1  UNL1        0.0383
      4 N          -1.4299    5.4894   -0.6444 N.ar    1  UNL1       -0.2471
      5 C          -0.4958    4.7094   -0.8561 C.ar    1  UNL1        0.1086
      6 C          -0.2671    3.2546   -0.7412 C.ar    1  UNL1        0.0113
      7 C          -1.2994    2.4897   -0.2928 C.ar    1  UNL1       -0.0102
      8 C          -1.1821    1.1250   -0.1523 C.ar    1  UNL1        0.1220
      9 O          -2.2305    0.3669    0.3007 O.3     1  UNL1       -0.4893
     10 C          -2.0927   -1.0130    0.4363 C.3     1  UNL1        0.1168
     11 C          -3.3125   -1.7076    0.9386 C.3     1  UNL1        0.1052
     12 C          -4.5061   -1.5036    0.0673 C.3     1  UNL1        0.0282
     13 N          -5.6030   -2.3397    0.4252 N.3     1  UNL1       -0.3006
     14 C          -6.5749   -1.7356    1.2814 C.3     1  UNL1       -0.0126
     15 C          -5.2549   -3.6689    0.8154 C.3     1  UNL1        0.0222
     16 C          -4.0274   -3.6929    1.7258 C.3     1  UNL1        0.0609
     17 O          -3.0025   -3.0847    1.0158 O.3     1  UNL1       -0.3707
     18 C           0.0153    0.5370   -0.4779 C.ar    1  UNL1       -0.0078
     19 C           1.0713    1.2994   -0.9341 C.ar    1  UNL1        0.0408
     20 C           2.3514    0.7076   -1.2871 C.2     1  UNL1        0.2447
     21 O           3.2970    1.4283   -1.7006 O.2     1  UNL1       -0.2702
     22 N           2.6142   -0.6802   -1.1926 N.am    1  UNL1       -0.3047
     23 C           3.9068   -1.2510   -1.5526 C.3     1  UNL1        0.0487
     24 C           3.6778   -2.2541   -2.6378 C.3     1  UNL1       -0.0423
     25 C           4.4769   -1.8761   -0.3252 C.ar    1  UNL1        0.0087
     26 C           4.4429   -1.2149    0.8835 C.ar    1  UNL1        0.0363
     27 N           4.9565   -1.7759    1.9937 N.ar    1  UNL1       -0.2321
     28 C           5.5204   -2.9954    1.9722 C.ar    1  UNL1        0.2339
     29 C           6.0840   -3.6003    3.2126 C.3     1  UNL1        0.4522
     30 F           7.2852   -4.2185    2.9500 F       1  UNL1       -0.1632
     31 F           6.2502   -2.5996    4.1567 F       1  UNL1       -0.1632
     32 F           5.1746   -4.5132    3.7021 F       1  UNL1       -0.1632
     33 N           5.5641   -3.6574    0.8043 N.ar    1  UNL1       -0.2321
     34 C           5.0570   -3.1267   -0.3392 C.ar    1  UNL1        0.0363
     35 C           0.9207    2.6884   -1.0665 C.ar    1  UNL1       -0.0397
     36 S           0.7846    5.8456   -1.4370 S.2     1  UNL1       -0.0725
     37 H           1.2464    8.6891   -1.9006 H       1  UNL1        0.0283
     38 H          -0.0144    9.3912   -0.7550 H       1  UNL1        0.0283
     39 H          -0.3922    8.9809   -2.5170 H       1  UNL1        0.0283
     40 H          -2.2733    7.4200   -0.6151 H       1  UNL1        0.0838
     41 H          -2.2413    3.0063   -0.0437 H       1  UNL1        0.0661
     42 H          -1.2773   -1.1922    1.1968 H       1  UNL1        0.0723
     43 H          -1.7498   -1.4235   -0.5290 H       1  UNL1        0.0723
     44 H          -3.5562   -1.3811    1.9579 H       1  UNL1        0.0643
     45 H          -4.8336   -0.4401    0.1906 H       1  UNL1        0.0453
     46 H          -4.2649   -1.6084   -1.0255 H       1  UNL1        0.0453
     47 H          -7.5418   -2.2974    1.1580 H       1  UNL1        0.0391
     48 H          -6.7028   -0.6750    1.0312 H       1  UNL1        0.0391
     49 H          -6.2953   -1.8871    2.3534 H       1  UNL1        0.0391
     50 H          -5.0409   -4.3485   -0.0128 H       1  UNL1        0.0449
     51 H          -6.0968   -4.0700    1.4421 H       1  UNL1        0.0449
     52 H          -3.7529   -4.7398    1.8784 H       1  UNL1        0.0573
     53 H          -4.1945   -3.1191    2.6405 H       1  UNL1        0.0573
     54 H           0.1378   -0.5533   -0.3754 H       1  UNL1        0.0662
     55 H           1.9016   -1.3431   -0.8652 H       1  UNL1        0.1496
     56 H           4.6019   -0.4763   -1.8889 H       1  UNL1        0.0546
     57 H           3.3562   -3.2386   -2.2436 H       1  UNL1        0.0251
     58 H           2.8418   -1.9178   -3.3078 H       1  UNL1        0.0251
     59 H           4.5567   -2.3901   -3.3035 H       1  UNL1        0.0251
     60 H           3.9903   -0.2258    0.9219 H       1  UNL1        0.0834
     61 H           5.1031   -3.6813   -1.2757 H       1  UNL1        0.0834
     62 H           1.7402    3.3077   -1.4241 H       1  UNL1        0.0632
@<TRIPOS>BOND
     1     1     2    1
     2     2     3   ar
     3     3     4   ar
     4     4     5   ar
     5     5     6    1
     6     6     7   ar
     7     7     8   ar
     8     8     9    1
     9     9    10    1
    10    10    11    1
    11    11    12    1
    12    12    13    1
    13    13    14    1
    14    13    15    1
    15    15    16    1
    16    16    17    1
    17     8    18   ar
    18    18    19   ar
    19    19    20    1
    20    20    21    2
    21    20    22   am
    22    22    23    1
    23    23    24    1
    24    23    25    1
    25    25    26   ar
    26    26    27   ar
    27    27    28   ar
    28    28    29    1
    29    29    30    1
    30    29    31    1
    31    29    32    1
    32    28    33   ar
    33    33    34   ar
    34    19    35   ar
    35     5    36   ar
    36    36     2   ar
    37    35     6   ar
    38    17    11    1
    39    34    25   ar
    40     1    37    1
    41     1    38    1
    42     1    39    1
    43     3    40    1
    44     7    41    1
    45    10    42    1
    46    10    43    1
    47    11    44    1
    48    12    45    1
    49    12    46    1
    50    14    47    1
    51    14    48    1
    52    14    49    1
    53    15    50    1
    54    15    51    1
    55    16    52    1
    56    16    53    1
    57    18    54    1
    58    22    55    1
    59    23    56    1
    60    24    57    1
    61    24    58    1
    62    24    59    1
    63    26    60    1
    64    34    61    1
    65    35    62    1
