
     RDKit          3D

 62 65  0  0  0  0  0  0  0  0999 V2000
    0.1729    8.7106   -1.6089 C   0  0  0  0  0  0  0  0  0  0  0  0
   -0.2022    7.2977   -1.2963 C   0  0  0  0  0  0  0  0  0  0  0  0
   -1.3909    6.7730   -0.8268 C   0  0  0  0  0  0  0  0  0  0  0  0
   -1.4299    5.4894   -0.6444 N   0  0  0  0  0  0  0  0  0  0  0  0
   -0.4958    4.7094   -0.8561 C   0  0  0  0  0  0  0  0  0  0  0  0
   -0.2671    3.2546   -0.7412 C   0  0  0  0  0  0  0  0  0  0  0  0
   -1.2994    2.4897   -0.2928 C   0  0  0  0  0  0  0  0  0  0  0  0
   -1.1821    1.1250   -0.1523 C   0  0  0  0  0  0  0  0  0  0  0  0
   -2.2305    0.3669    0.3007 O   0  0  0  0  0  0  0  0  0  0  0  0
   -2.0927   -1.0130    0.4363 C   0  0  0  0  0  0  0  0  0  0  0  0
   -3.3125   -1.7076    0.9386 C   0  0  1  0  0  0  0  0  0  0  0  0
   -4.5061   -1.5036    0.0673 C   0  0  0  0  0  0  0  0  0  0  0  0
   -5.6030   -2.3397    0.4252 N   0  0  0  0  0  0  0  0  0  0  0  0
   -6.5749   -1.7356    1.2814 C   0  0  0  0  0  0  0  0  0  0  0  0
   -5.2549   -3.6689    0.8154 C   0  0  0  0  0  0  0  0  0  0  0  0
   -4.0274   -3.6929    1.7258 C   0  0  0  0  0  0  0  0  0  0  0  0
   -3.0025   -3.0847    1.0158 O   0  0  0  0  0  0  0  0  0  0  0  0
    0.0153    0.5370   -0.4779 C   0  0  0  0  0  0  0  0  0  0  0  0
    1.0713    1.2994   -0.9341 C   0  0  0  0  0  0  0  0  0  0  0  0
    2.3514    0.7076   -1.2871 C   0  0  0  0  0  0  0  0  0  0  0  0
    3.2970    1.4283   -1.7006 O   0  0  0  0  0  0  0  0  0  0  0  0
    2.6142   -0.6802   -1.1926 N   0  0  0  0  0  0  0  0  0  0  0  0
    3.9068   -1.2510   -1.5526 C   0  0  2  0  0  0  0  0  0  0  0  0
    3.6778   -2.2541   -2.6378 C   0  0  0  0  0  0  0  0  0  0  0  0
    4.4769   -1.8761   -0.3252 C   0  0  0  0  0  0  0  0  0  0  0  0
    4.4429   -1.2149    0.8835 C   0  0  0  0  0  0  0  0  0  0  0  0
    4.9565   -1.7759    1.9937 N   0  0  0  0  0  0  0  0  0  0  0  0
    5.5204   -2.9954    1.9722 C   0  0  0  0  0  0  0  0  0  0  0  0
    6.0840   -3.6003    3.2126 C   0  0  0  0  0  0  0  0  0  0  0  0
    7.2852   -4.2185    2.9500 F   0  0  0  0  0  0  0  0  0  0  0  0
    6.2502   -2.5996    4.1567 F   0  0  0  0  0  0  0  0  0  0  0  0
    5.1746   -4.5132    3.7021 F   0  0  0  0  0  0  0  0  0  0  0  0
    5.5641   -3.6574    0.8043 N   0  0  0  0  0  0  0  0  0  0  0  0
    5.0570   -3.1267   -0.3392 C   0  0  0  0  0  0  0  0  0  0  0  0
    0.9207    2.6884   -1.0665 C   0  0  0  0  0  0  0  0  0  0  0  0
    0.7846    5.8456   -1.4370 S   0  0  0  0  0  0  0  0  0  0  0  0
    1.2464    8.6891   -1.9006 H   0  0  0  0  0  0  0  0  0  0  0  0
   -0.0144    9.3912   -0.7550 H   0  0  0  0  0  0  0  0  0  0  0  0
   -0.3922    8.9809   -2.5170 H   0  0  0  0  0  0  0  0  0  0  0  0
   -2.2733    7.4200   -0.6151 H   0  0  0  0  0  0  0  0  0  0  0  0
   -2.2413    3.0063   -0.0437 H   0  0  0  0  0  0  0  0  0  0  0  0
   -1.2773   -1.1922    1.1968 H   0  0  0  0  0  0  0  0  0  0  0  0
   -1.7498   -1.4235   -0.5290 H   0  0  0  0  0  0  0  0  0  0  0  0
   -3.5562   -1.3811    1.9579 H   0  0  0  0  0  0  0  0  0  0  0  0
   -4.8336   -0.4401    0.1906 H   0  0  0  0  0  0  0  0  0  0  0  0
   -4.2649   -1.6084   -1.0255 H   0  0  0  0  0  0  0  0  0  0  0  0
   -7.5418   -2.2974    1.1580 H   0  0  0  0  0  0  0  0  0  0  0  0
   -6.7028   -0.6750    1.0312 H   0  0  0  0  0  0  0  0  0  0  0  0
   -6.2953   -1.8871    2.3534 H   0  0  0  0  0  0  0  0  0  0  0  0
   -5.0409   -4.3485   -0.0128 H   0  0  0  0  0  0  0  0  0  0  0  0
   -6.0968   -4.0700    1.4421 H   0  0  0  0  0  0  0  0  0  0  0  0
   -3.7529   -4.7398    1.8784 H   0  0  0  0  0  0  0  0  0  0  0  0
   -4.1945   -3.1191    2.6405 H   0  0  0  0  0  0  0  0  0  0  0  0
    0.1378   -0.5533   -0.3754 H   0  0  0  0  0  0  0  0  0  0  0  0
    1.9016   -1.3431   -0.8652 H   0  0  0  0  0  0  0  0  0  0  0  0
    4.6019   -0.4763   -1.8889 H   0  0  0  0  0  0  0  0  0  0  0  0
    3.3562   -3.2386   -2.2436 H   0  0  0  0  0  0  0  0  0  0  0  0
    2.8418   -1.9178   -3.3078 H   0  0  0  0  0  0  0  0  0  0  0  0
    4.5567   -2.3901   -3.3035 H   0  0  0  0  0  0  0  0  0  0  0  0
    3.9903   -0.2258    0.9219 H   0  0  0  0  0  0  0  0  0  0  0  0
    5.1031   -3.6813   -1.2757 H   0  0  0  0  0  0  0  0  0  0  0  0
    1.7402    3.3077   -1.4241 H   0  0  0  0  0  0  0  0  0  0  0  0
  1  2  1  0
  2  3  2  0
  3  4  1  0
  4  5  2  0
  5  6  1  0
  6  7  2  0
  7  8  1  0
  8  9  1  0
  9 10  1  0
 10 11  1  0
 11 12  1  0
 12 13  1  0
 13 14  1  0
 13 15  1  0
 15 16  1  0
 16 17  1  0
  8 18  2  0
 18 19  1  0
 19 20  1  0
 20 21  2  0
 20 22  1  0
 22 23  1  0
 23 24  1  0
 23 25  1  0
 25 26  2  0
 26 27  1  0
 27 28  2  0
 28 29  1  0
 29 30  1  0
 29 31  1  0
 29 32  1  0
 28 33  1  0
 33 34  2  0
 19 35  2  0
  5 36  1  0
 36  2  1  0
 35  6  1  0
 17 11  1  0
 34 25  1  0
  1 37  1  0
  1 38  1  0
  1 39  1  0
  3 40  1  0
  7 41  1  0
 10 42  1  0
 10 43  1  0
 11 44  1  1
 12 45  1  0
 12 46  1  0
 14 47  1  0
 14 48  1  0
 14 49  1  0
 15 50  1  0
 15 51  1  0
 16 52  1  0
 16 53  1  0
 18 54  1  0
 22 55  1  0
 23 56  1  6
 24 57  1  0
 24 58  1  0
 24 59  1  0
 26 60  1  0
 34 61  1  0
 35 62  1  0
M  END
$$$$
