
     RDKit          3D

 54 57  0  0  0  0  0  0  0  0999 V2000
   -1.4654    3.1518    0.1688 C   0  0  0  0  0  0  0  0  0  0  0  0
   -1.1383    1.6474    0.1567 C   0  0  1  0  0  0  0  0  0  0  0  0
    0.1551    1.5194    0.8886 C   0  0  0  0  0  0  0  0  0  0  0  0
    1.3089    1.0970    0.2693 C   0  0  0  0  0  0  0  0  0  0  0  0
    2.5176    0.9857    0.9588 C   0  0  0  0  0  0  0  0  0  0  0  0
    3.7185    0.5510    0.3318 N   0  0  0  0  0  0  0  0  0  0  0  0
    4.1365   -0.7979    0.2551 C   0  0  0  0  0  0  0  0  0  0  0  0
    3.3765   -1.6536    0.7852 O   0  0  0  0  0  0  0  0  0  0  0  0
    5.3599   -1.2354   -0.3837 C   0  0  0  0  0  0  0  0  0  0  0  0
    6.2021   -0.3714   -0.9631 N   0  0  0  0  0  0  0  0  0  0  0  0
    7.3516   -0.7797   -1.5621 C   0  0  0  0  0  0  0  0  0  0  0  0
    7.7164   -2.1071   -1.6073 C   0  0  0  0  0  0  0  0  0  0  0  0
    9.2018   -2.6277   -2.3817 Cl  0  0  0  0  0  0  0  0  0  0  0  0
    6.8637   -3.0180   -1.0164 C   0  0  0  0  0  0  0  0  0  0  0  0
    5.6978   -2.5663   -0.4135 C   0  0  0  0  0  0  0  0  0  0  0  0
    4.8574   -3.4583    0.1682 F   0  0  0  0  0  0  0  0  0  0  0  0
    2.4706    1.3275    2.2963 C   0  0  0  0  0  0  0  0  0  0  0  0
    1.3378    1.7476    2.9259 C   0  0  0  0  0  0  0  0  0  0  0  0
    0.1489    1.8511    2.2238 C   0  0  0  0  0  0  0  0  0  0  0  0
   -0.9389    2.2692    2.9124 F   0  0  0  0  0  0  0  0  0  0  0  0
   -2.1604    0.8728    0.9290 C   0  0  0  0  0  0  0  0  0  0  0  0
   -3.1860    0.1676    0.0981 C   0  0  0  0  0  0  0  0  0  0  0  0
   -2.9612   -1.3523    0.1178 C   0  0  0  0  0  0  0  0  0  0  0  0
   -3.9888   -1.9712   -0.7877 C   0  0  0  0  0  0  0  0  0  0  0  0
   -5.3995   -1.6302   -0.3807 C   0  0  0  0  0  0  0  0  0  0  0  0
   -5.6839   -2.1778    0.8456 F   0  0  0  0  0  0  0  0  0  0  0  0
   -6.2468   -2.0774   -1.3686 F   0  0  0  0  0  0  0  0  0  0  0  0
   -5.5917   -0.1176   -0.2629 C   0  0  0  0  0  0  0  0  0  0  0  0
   -4.5471    0.3653    0.7344 C   0  0  0  0  0  0  0  0  0  0  0  0
   -3.1801    0.5459   -1.2556 O   0  0  0  0  0  0  0  0  0  0  0  0
   -1.9628    0.7537   -1.8790 C   0  0  0  0  0  0  0  0  0  0  0  0
   -1.8589    0.3657   -3.2608 N   0  0  0  0  0  0  0  0  0  0  0  0
   -1.0083    1.2662   -1.2254 N   0  0  0  0  0  0  0  0  0  0  0  0
   -1.2235    3.6304    1.1166 H   0  0  0  0  0  0  0  0  0  0  0  0
   -0.8128    3.5699   -0.6462 H   0  0  0  0  0  0  0  0  0  0  0  0
   -2.5156    3.3066   -0.1361 H   0  0  0  0  0  0  0  0  0  0  0  0
    1.2893    0.8456   -0.7644 H   0  0  0  0  0  0  0  0  0  0  0  0
    4.3352    1.2723   -0.1016 H   0  0  0  0  0  0  0  0  0  0  0  0
    8.0153   -0.0512   -2.0237 H   0  0  0  0  0  0  0  0  0  0  0  0
    7.1339   -4.0634   -1.0432 H   0  0  0  0  0  0  0  0  0  0  0  0
    3.4157    1.2411    2.8374 H   0  0  0  0  0  0  0  0  0  0  0  0
    1.3913    1.9946    3.9740 H   0  0  0  0  0  0  0  0  0  0  0  0
   -1.6676    0.0763    1.5645 H   0  0  0  0  0  0  0  0  0  0  0  0
   -2.7041    1.5971    1.5971 H   0  0  0  0  0  0  0  0  0  0  0  0
   -1.9683   -1.6090   -0.2520 H   0  0  0  0  0  0  0  0  0  0  0  0
   -3.1297   -1.6962    1.1685 H   0  0  0  0  0  0  0  0  0  0  0  0
   -3.8902   -3.0750   -0.7044 H   0  0  0  0  0  0  0  0  0  0  0  0
   -3.8173   -1.6229   -1.8279 H   0  0  0  0  0  0  0  0  0  0  0  0
   -6.5990    0.0649    0.1294 H   0  0  0  0  0  0  0  0  0  0  0  0
   -5.3834    0.3914   -1.2152 H   0  0  0  0  0  0  0  0  0  0  0  0
   -4.7250    1.3884    1.0743 H   0  0  0  0  0  0  0  0  0  0  0  0
   -4.5942   -0.3480    1.5942 H   0  0  0  0  0  0  0  0  0  0  0  0
   -1.9326    1.1357   -3.9575 H   0  0  0  0  0  0  0  0  0  0  0  0
   -1.7205   -0.5919   -3.5952 H   0  0  0  0  0  0  0  0  0  0  0  0
  2  1  1  6
  2  3  1  0
  3  4  2  0
  4  5  1  0
  5  6  1  0
  6  7  1  0
  7  8  2  0
  7  9  1  0
  9 10  2  0
 10 11  1  0
 11 12  2  0
 12 13  1  0
 12 14  1  0
 14 15  2  0
 15 16  1  0
  5 17  2  0
 17 18  1  0
 18 19  2  0
 19 20  1  0
  2 21  1  0
 21 22  1  0
 22 23  1  0
 23 24  1  0
 24 25  1  0
 25 26  1  0
 25 27  1  0
 25 28  1  0
 28 29  1  0
 22 30  1  0
 30 31  1  0
 31 32  1  0
 31 33  2  0
 33  2  1  0
 19  3  1  0
 29 22  1  0
 15  9  1  0
  1 34  1  0
  1 35  1  0
  1 36  1  0
  4 37  1  0
  6 38  1  0
 11 39  1  0
 14 40  1  0
 17 41  1  0
 18 42  1  0
 21 43  1  0
 21 44  1  0
 23 45  1  0
 23 46  1  0
 24 47  1  0
 24 48  1  0
 28 49  1  0
 28 50  1  0
 29 51  1  0
 29 52  1  0
 32 53  1  0
 32 54  1  0
M  END
$$$$
