@<TRIPOS>MOLECULE
*****
 54 57 0 0 0
SMALL
GASTEIGER

@<TRIPOS>ATOM
      1 C          -1.4654    3.1518    0.1688 C.3     1  UNL1       -0.0352
      2 C          -1.1383    1.6474    0.1567 C.3     1  UNL1        0.0950
      3 C           0.1551    1.5194    0.8886 C.ar    1  UNL1        0.0168
      4 C           1.3089    1.0970    0.2693 C.ar    1  UNL1       -0.0323
      5 C           2.5176    0.9857    0.9588 C.ar    1  UNL1        0.0342
      6 N           3.7185    0.5510    0.3318 N.am    1  UNL1       -0.2802
      7 C           4.1365   -0.7979    0.2551 C.2     1  UNL1        0.2694
      8 O           3.3765   -1.6536    0.7852 O.2     1  UNL1       -0.2681
      9 C           5.3599   -1.2354   -0.3837 C.ar    1  UNL1        0.1608
     10 N           6.2021   -0.3714   -0.9631 N.ar    1  UNL1       -0.2461
     11 C           7.3516   -0.7797   -1.5621 C.ar    1  UNL1        0.0469
     12 C           7.7164   -2.1071   -1.6073 C.ar    1  UNL1        0.0618
     13 CL          9.2018   -2.6277   -2.3817 Cl      1  UNL1       -0.0819
     14 C           6.8637   -3.0180   -1.0164 C.ar    1  UNL1       -0.0044
     15 C           5.6978   -2.5663   -0.4135 C.ar    1  UNL1        0.1551
     16 F           4.8574   -3.4583    0.1682 F       1  UNL1       -0.2030
     17 C           2.4706    1.3275    2.2963 C.ar    1  UNL1       -0.0377
     18 C           1.3378    1.7476    2.9259 C.ar    1  UNL1       -0.0243
     19 C           0.1489    1.8511    2.2238 C.ar    1  UNL1        0.1290
     20 F          -0.9389    2.2692    2.9124 F       1  UNL1       -0.2051
     21 C          -2.1604    0.8728    0.9290 C.3     1  UNL1        0.0166
     22 C          -3.1860    0.1676    0.0981 C.3     1  UNL1        0.1164
     23 C          -2.9612   -1.3523    0.1178 C.3     1  UNL1       -0.0073
     24 C          -3.9888   -1.9712   -0.7877 C.3     1  UNL1        0.0144
     25 C          -5.3995   -1.6302   -0.3807 C.3     1  UNL1        0.2492
     26 F          -5.6839   -2.1778    0.8456 F       1  UNL1       -0.2057
     27 F          -6.2468   -2.0774   -1.3686 F       1  UNL1       -0.2057
     28 C          -5.5917   -0.1176   -0.2629 C.3     1  UNL1        0.0144
     29 C          -4.5471    0.3653    0.7344 C.3     1  UNL1       -0.0073
     30 O          -3.1801    0.5459   -1.2556 O.2     1  UNL1       -0.4592
     31 C          -1.9628    0.7537   -1.8790 C.2     1  UNL1        0.2765
     32 N          -1.8589    0.3657   -3.2608 N.pl3   1  UNL1       -0.3133
     33 N          -1.0083    1.2662   -1.2254 N.2     1  UNL1       -0.2257
     34 H          -1.2235    3.6304    1.1166 H       1  UNL1        0.0256
     35 H          -0.8128    3.5699   -0.6462 H       1  UNL1        0.0256
     36 H          -2.5156    3.3066   -0.1361 H       1  UNL1        0.0256
     37 H           1.2893    0.8456   -0.7644 H       1  UNL1        0.0640
     38 H           4.3352    1.2723   -0.1016 H       1  UNL1        0.1552
     39 H           8.0153   -0.0512   -2.0237 H       1  UNL1        0.0845
     40 H           7.1339   -4.0634   -1.0432 H       1  UNL1        0.0662
     41 H           3.4157    1.2411    2.8374 H       1  UNL1        0.0637
     42 H           1.3913    1.9946    3.9740 H       1  UNL1        0.0647
     43 H          -1.6676    0.0763    1.5645 H       1  UNL1        0.0330
     44 H          -2.7041    1.5971    1.5971 H       1  UNL1        0.0330
     45 H          -1.9683   -1.6090   -0.2520 H       1  UNL1        0.0305
     46 H          -3.1297   -1.6962    1.1685 H       1  UNL1        0.0305
     47 H          -3.8902   -3.0750   -0.7044 H       1  UNL1        0.0324
     48 H          -3.8173   -1.6229   -1.8279 H       1  UNL1        0.0324
     49 H          -6.5990    0.0649    0.1294 H       1  UNL1        0.0324
     50 H          -5.3834    0.3914   -1.2152 H       1  UNL1        0.0324
     51 H          -4.7250    1.3884    1.0743 H       1  UNL1        0.0305
     52 H          -4.5942   -0.3480    1.5942 H       1  UNL1        0.0305
     53 H          -1.9326    1.1357   -3.9575 H       1  UNL1        0.1466
     54 H          -1.7205   -0.5919   -3.5952 H       1  UNL1        0.1466
@<TRIPOS>BOND
     1     2     1    1
     2     2     3    1
     3     3     4   ar
     4     4     5   ar
     5     5     6    1
     6     6     7   am
     7     7     8    2
     8     7     9    1
     9     9    10   ar
    10    10    11   ar
    11    11    12   ar
    12    12    13    1
    13    12    14   ar
    14    14    15   ar
    15    15    16    1
    16     5    17   ar
    17    17    18   ar
    18    18    19   ar
    19    19    20    1
    20     2    21    1
    21    21    22    1
    22    22    23    1
    23    23    24    1
    24    24    25    1
    25    25    26    1
    26    25    27    1
    27    25    28    1
    28    28    29    1
    29    22    30    1
    30    30    31    1
    31    31    32    1
    32    31    33    2
    33    33     2    1
    34    19     3   ar
    35    29    22    1
    36    15     9   ar
    37     1    34    1
    38     1    35    1
    39     1    36    1
    40     4    37    1
    41     6    38    1
    42    11    39    1
    43    14    40    1
    44    17    41    1
    45    18    42    1
    46    21    43    1
    47    21    44    1
    48    23    45    1
    49    23    46    1
    50    24    47    1
    51    24    48    1
    52    28    49    1
    53    28    50    1
    54    29    51    1
    55    29    52    1
    56    32    53    1
    57    32    54    1
