@<TRIPOS>MOLECULE
*****
 51 55 0 0 0
SMALL
GASTEIGER

@<TRIPOS>ATOM
      1 C           8.7986   -0.2778   -0.6448 C.3     1  UNL1       -0.0205
      2 C           7.3202   -0.2182   -0.5493 C.ar    1  UNL1        0.0625
      3 C           6.3700   -0.4099   -1.5449 C.ar    1  UNL1        0.0052
      4 C           5.1172   -0.2508   -0.9653 C.ar    1  UNL1        0.1560
      5 N           3.8693   -0.3318   -1.4884 N.ar    1  UNL1       -0.2311
      6 C           2.7879   -0.1364   -0.7213 C.ar    1  UNL1        0.0635
      7 C           3.0196    0.1473    0.6106 C.ar    1  UNL1        0.0074
      8 C           4.2810    0.2288    1.1372 C.ar    1  UNL1        0.0376
      9 N           5.3360    0.0252    0.3289 N.ar    1  UNL1       -0.2212
     10 N           6.6413    0.0420    0.5640 N.ar    1  UNL1       -0.1702
     11 C           1.6737    0.3119    1.2203 C.3     1  UNL1        0.0279
     12 N           0.8829    0.7041    0.1205 N.3     1  UNL1       -0.2894
     13 C          -0.5226    0.7584    0.3197 C.3     1  UNL1        0.0126
     14 C          -1.1500    1.2115   -0.9951 C.3     1  UNL1       -0.0367
     15 C          -2.6266    1.3395   -0.6837 C.3     1  UNL1       -0.0433
     16 C          -3.2139   -0.0841   -0.5921 C.3     1  UNL1        0.0022
     17 C          -4.5814    0.0661   -0.1516 C.ar    1  UNL1       -0.0049
     18 C          -5.5799    0.2319   -1.1094 C.ar    1  UNL1       -0.0202
     19 C          -6.9084    0.3842   -0.7694 C.ar    1  UNL1        0.1238
     20 F          -7.8820    0.5457   -1.7000 F       1  UNL1       -0.2055
     21 C          -7.2903    0.3763    0.5474 C.ar    1  UNL1       -0.0237
     22 C          -6.3302    0.2151    1.5107 C.ar    1  UNL1       -0.0235
     23 C          -5.0006    0.0634    1.1530 C.ar    1  UNL1        0.1270
     24 F          -4.0579   -0.0933    2.0813 F       1  UNL1       -0.2052
     25 C          -2.3301   -1.0128    0.1278 C.3     1  UNL1        0.0132
     26 N          -1.7866   -1.9880   -0.8302 N.3     1  UNL1       -0.3266
     27 C          -1.1635   -0.4565    0.8624 C.3     1  UNL1       -0.0215
     28 C           1.3217   -0.1466   -0.9591 C.3     1  UNL1        0.0422
     29 H           9.1347   -1.1649   -0.0344 H       1  UNL1        0.0293
     30 H           9.2166    0.6637   -0.2198 H       1  UNL1        0.0293
     31 H           9.0496   -0.3948   -1.7112 H       1  UNL1        0.0293
     32 H           6.5933   -0.6389   -2.5700 H       1  UNL1        0.0673
     33 H           4.4856    0.4497    2.1765 H       1  UNL1        0.0834
     34 H           1.4225   -0.6841    1.6631 H       1  UNL1        0.0477
     35 H           1.6910    1.0334    2.0629 H       1  UNL1        0.0477
     36 H          -0.7035    1.6371    1.0121 H       1  UNL1        0.0463
     37 H          -0.7596    2.2050   -1.2545 H       1  UNL1        0.0280
     38 H          -0.9596    0.4977   -1.8184 H       1  UNL1        0.0280
     39 H          -2.7073    1.8112    0.3170 H       1  UNL1        0.0272
     40 H          -3.1412    1.9383   -1.4402 H       1  UNL1        0.0272
     41 H          -3.2497   -0.3825   -1.6703 H       1  UNL1        0.0365
     42 H          -5.3471    0.2476   -2.1682 H       1  UNL1        0.0650
     43 H          -8.3210    0.4917    0.8760 H       1  UNL1        0.0647
     44 H          -6.5584    0.1986    2.5750 H       1  UNL1        0.0647
     45 H          -2.9228   -1.6385    0.8302 H       1  UNL1        0.0465
     46 H          -1.5826   -2.9011   -0.3732 H       1  UNL1        0.1185
     47 H          -2.5153   -2.2070   -1.5668 H       1  UNL1        0.1185
     48 H          -1.3813   -0.2740    1.9585 H       1  UNL1        0.0295
     49 H          -0.3859   -1.2799    0.9421 H       1  UNL1        0.0295
     50 H           0.8869   -1.1526   -0.8106 H       1  UNL1        0.0491
     51 H           1.0601    0.2990   -1.9432 H       1  UNL1        0.0491
@<TRIPOS>BOND
     1     1     2    1
     2     2     3   ar
     3     3     4   ar
     4     4     5   ar
     5     5     6   ar
     6     6     7   ar
     7     7     8   ar
     8     8     9   ar
     9     9    10   ar
    10     7    11    1
    11    11    12    1
    12    12    13    1
    13    13    14    1
    14    14    15    1
    15    15    16    1
    16    16    17    1
    17    17    18   ar
    18    18    19   ar
    19    19    20    1
    20    19    21   ar
    21    21    22   ar
    22    22    23   ar
    23    23    24    1
    24    16    25    1
    25    25    26    1
    26    25    27    1
    27    12    28    1
    28    10     2   ar
    29    27    13    1
    30     9     4   ar
    31    23    17   ar
    32    28     6    1
    33     1    29    1
    34     1    30    1
    35     1    31    1
    36     3    32    1
    37     8    33    1
    38    11    34    1
    39    11    35    1
    40    13    36    1
    41    14    37    1
    42    14    38    1
    43    15    39    1
    44    15    40    1
    45    16    41    1
    46    18    42    1
    47    21    43    1
    48    22    44    1
    49    25    45    1
    50    26    46    1
    51    26    47    1
    52    27    48    1
    53    27    49    1
    54    28    50    1
    55    28    51    1
