
     RDKit          3D

 36 38  0  0  0  0  0  0  0  0999 V2000
   -5.7974   -0.5046   -0.3960 C   0  0  0  0  0  0  0  0  0  0  0  0
   -4.7518    0.4018   -0.4246 O   0  0  0  0  0  0  0  0  0  0  0  0
   -3.4104    0.1825   -0.3117 C   0  0  0  0  0  0  0  0  0  0  0  0
   -2.9500   -1.1055   -0.1421 C   0  0  0  0  0  0  0  0  0  0  0  0
   -1.6191   -1.4145   -0.0208 C   0  0  0  0  0  0  0  0  0  0  0  0
   -1.2397   -2.6942    0.1406 N   0  0  0  0  0  0  0  0  0  0  0  0
    0.0587   -3.0357    0.2614 C   0  0  0  0  0  0  0  0  0  0  0  0
    0.9420   -2.0363    0.2117 N   0  0  0  0  0  0  0  0  0  0  0  0
    0.6610   -0.7370    0.0545 C   0  0  0  0  0  0  0  0  0  0  0  0
    1.6654    0.2632    0.0090 N   0  0  0  0  0  0  0  0  0  0  0  0
    3.0501   -0.0362    0.2063 C   0  0  0  0  0  0  0  0  0  0  0  0
    3.9836    0.8109   -0.4139 C   0  0  0  0  0  0  0  0  0  0  0  0
    5.3319    0.6139   -0.2703 C   0  0  0  0  0  0  0  0  0  0  0  0
    5.7357   -0.4495    0.5073 C   0  0  0  0  0  0  0  0  0  0  0  0
    4.8551   -1.2860    1.1199 C   0  0  0  0  0  0  0  0  0  0  0  0
    3.4748   -1.0844    0.9735 C   0  0  0  0  0  0  0  0  0  0  0  0
   -0.6814   -0.3999   -0.0684 C   0  0  0  0  0  0  0  0  0  0  0  0
   -1.1020    0.8976   -0.2360 C   0  0  0  0  0  0  0  0  0  0  0  0
   -2.4626    1.1853   -0.3573 C   0  0  0  0  0  0  0  0  0  0  0  0
   -2.8450    2.4951   -0.5241 O   0  0  0  0  0  0  0  0  0  0  0  0
   -1.8641    3.5066   -0.5684 C   0  0  0  0  0  0  0  0  0  0  0  0
   -6.1636   -0.5399    0.6736 H   0  0  0  0  0  0  0  0  0  0  0  0
   -5.5185   -1.5323   -0.6888 H   0  0  0  0  0  0  0  0  0  0  0  0
   -6.6690   -0.1791   -1.0111 H   0  0  0  0  0  0  0  0  0  0  0  0
   -3.6392   -1.9522   -0.0953 H   0  0  0  0  0  0  0  0  0  0  0  0
    0.2984   -4.0741    0.3877 H   0  0  0  0  0  0  0  0  0  0  0  0
    1.4235    1.2672   -0.1738 H   0  0  0  0  0  0  0  0  0  0  0  0
    3.6312    1.6468   -1.0245 H   0  0  0  0  0  0  0  0  0  0  0  0
    6.0504    1.2876   -0.7632 H   0  0  0  0  0  0  0  0  0  0  0  0
    6.8166   -0.6175    0.6292 H   0  0  0  0  0  0  0  0  0  0  0  0
    5.1507   -2.1350    1.7404 H   0  0  0  0  0  0  0  0  0  0  0  0
    2.7915   -1.7319    1.4634 H   0  0  0  0  0  0  0  0  0  0  0  0
   -0.3983    1.6949   -0.2742 H   0  0  0  0  0  0  0  0  0  0  0  0
   -2.3859    4.4852   -0.6678 H   0  0  0  0  0  0  0  0  0  0  0  0
   -1.1929    3.3098   -1.4100 H   0  0  0  0  0  0  0  0  0  0  0  0
   -1.2293    3.4973    0.3529 H   0  0  0  0  0  0  0  0  0  0  0  0
  1  2  1  0
  2  3  1  0
  3  4  2  0
  4  5  1  0
  5  6  2  0
  6  7  1  0
  7  8  2  0
  8  9  1  0
  9 10  1  0
 10 11  1  0
 11 12  2  0
 12 13  1  0
 13 14  2  0
 14 15  1  0
 15 16  2  0
  9 17  2  0
 17 18  1  0
 18 19  2  0
 19 20  1  0
 20 21  1  0
 19  3  1  0
 17  5  1  0
 16 11  1  0
  1 22  1  0
  1 23  1  0
  1 24  1  0
  4 25  1  0
  7 26  1  0
 10 27  1  0
 12 28  1  0
 13 29  1  0
 14 30  1  0
 15 31  1  0
 16 32  1  0
 18 33  1  0
 21 34  1  0
 21 35  1  0
 21 36  1  0
M  END
$$$$
