@<TRIPOS>MOLECULE
*****
 36 38 0 0 0
SMALL
GASTEIGER

@<TRIPOS>ATOM
      1 C          -5.7974   -0.5046   -0.3960 C.3     1  UNL1        0.0790
      2 O          -4.7518    0.4018   -0.4246 O.3     1  UNL1       -0.4914
      3 C          -3.4104    0.1825   -0.3117 C.ar    1  UNL1        0.1635
      4 C          -2.9500   -1.1055   -0.1421 C.ar    1  UNL1        0.0098
      5 C          -1.6191   -1.4145   -0.0208 C.ar    1  UNL1        0.0797
      6 N          -1.2397   -2.6942    0.1406 N.ar    1  UNL1       -0.2352
      7 C           0.0587   -3.0357    0.2614 C.ar    1  UNL1        0.1187
      8 N           0.9420   -2.0363    0.2117 N.ar    1  UNL1       -0.2200
      9 C           0.6610   -0.7370    0.0545 C.ar    1  UNL1        0.1340
     10 N           1.6654    0.2632    0.0090 N.pl3   1  UNL1       -0.2989
     11 C           3.0501   -0.0362    0.2063 C.ar    1  UNL1        0.0324
     12 C           3.9836    0.8109   -0.4139 C.ar    1  UNL1       -0.0405
     13 C           5.3319    0.6139   -0.2703 C.ar    1  UNL1       -0.0600
     14 C           5.7357   -0.4495    0.5073 C.ar    1  UNL1       -0.0616
     15 C           4.8551   -1.2860    1.1199 C.ar    1  UNL1       -0.0600
     16 C           3.4748   -1.0844    0.9735 C.ar    1  UNL1       -0.0405
     17 C          -0.6814   -0.3999   -0.0684 C.ar    1  UNL1        0.0441
     18 C          -1.1020    0.8976   -0.2360 C.ar    1  UNL1       -0.0038
     19 C          -2.4626    1.1853   -0.3573 C.ar    1  UNL1        0.1623
     20 O          -2.8450    2.4951   -0.5241 O.3     1  UNL1       -0.4914
     21 C          -1.8641    3.5066   -0.5684 C.3     1  UNL1        0.0790
     22 H          -6.1636   -0.5399    0.6736 H       1  UNL1        0.0660
     23 H          -5.5185   -1.5323   -0.6888 H       1  UNL1        0.0660
     24 H          -6.6690   -0.1791   -1.0111 H       1  UNL1        0.0660
     25 H          -3.6392   -1.9522   -0.0953 H       1  UNL1        0.0677
     26 H           0.2984   -4.0741    0.3877 H       1  UNL1        0.1048
     27 H           1.4235    1.2672   -0.1738 H       1  UNL1        0.1536
     28 H           3.6312    1.6468   -1.0245 H       1  UNL1        0.0636
     29 H           6.0504    1.2876   -0.7632 H       1  UNL1        0.0618
     30 H           6.8166   -0.6175    0.6292 H       1  UNL1        0.0618
     31 H           5.1507   -2.1350    1.7404 H       1  UNL1        0.0618
     32 H           2.7915   -1.7319    1.4634 H       1  UNL1        0.0636
     33 H          -0.3983    1.6949   -0.2742 H       1  UNL1        0.0663
     34 H          -2.3859    4.4852   -0.6678 H       1  UNL1        0.0660
     35 H          -1.1929    3.3098   -1.4100 H       1  UNL1        0.0660
     36 H          -1.2293    3.4973    0.3529 H       1  UNL1        0.0660
@<TRIPOS>BOND
     1     1     2    1
     2     2     3    1
     3     3     4   ar
     4     4     5   ar
     5     5     6   ar
     6     6     7   ar
     7     7     8   ar
     8     8     9   ar
     9     9    10    1
    10    10    11    1
    11    11    12   ar
    12    12    13   ar
    13    13    14   ar
    14    14    15   ar
    15    15    16   ar
    16     9    17   ar
    17    17    18   ar
    18    18    19   ar
    19    19    20    1
    20    20    21    1
    21    19     3   ar
    22    17     5   ar
    23    16    11   ar
    24     1    22    1
    25     1    23    1
    26     1    24    1
    27     4    25    1
    28     7    26    1
    29    10    27    1
    30    12    28    1
    31    13    29    1
    32    14    30    1
    33    15    31    1
    34    16    32    1
    35    18    33    1
    36    21    34    1
    37    21    35    1
    38    21    36    1
