
     RDKit          3D

 56 60  0  0  0  0  0  0  0  0999 V2000
    0.2358    2.5964    1.1203 C   0  0  0  0  0  0  0  0  0  0  0  0
   -0.1482    1.9353   -0.0376 O   0  0  0  0  0  0  0  0  0  0  0  0
    0.7566    1.1277   -0.7719 C   0  0  0  0  0  0  0  0  0  0  0  0
    2.0498    0.9976   -0.3225 C   0  0  0  0  0  0  0  0  0  0  0  0
    2.9711    0.2213   -1.0027 C   0  0  0  0  0  0  0  0  0  0  0  0
    4.3260    0.1143   -0.4898 C   0  0  0  0  0  0  0  0  0  0  0  0
    5.4143   -0.0628   -1.3333 C   0  0  0  0  0  0  0  0  0  0  0  0
    6.6877   -0.1624   -0.8403 C   0  0  0  0  0  0  0  0  0  0  0  0
    6.8975   -0.0853    0.5260 C   0  0  0  0  0  0  0  0  0  0  0  0
    5.8409    0.0901    1.3922 C   0  0  0  0  0  0  0  0  0  0  0  0
    6.0820    0.1710    2.8547 C   0  0  0  0  0  0  0  0  0  0  0  0
    6.3331   -1.0531    3.4158 F   0  0  0  0  0  0  0  0  0  0  0  0
    7.2274    0.9612    3.0137 F   0  0  0  0  0  0  0  0  0  0  0  0
    5.0604    0.8495    3.4868 F   0  0  0  0  0  0  0  0  0  0  0  0
    4.5734    0.1863    0.8611 C   0  0  0  0  0  0  0  0  0  0  0  0
    2.5832   -0.4348   -2.1549 C   0  0  0  0  0  0  0  0  0  0  0  0
    1.2861   -0.2946   -2.5914 C   0  0  0  0  0  0  0  0  0  0  0  0
    0.3848    0.4751   -1.9108 C   0  0  0  0  0  0  0  0  0  0  0  0
   -0.9413    0.6117   -2.3657 N   0  0  0  0  0  0  0  0  0  0  0  0
   -1.2278    1.4239   -3.3982 C   0  0  0  0  0  0  0  0  0  0  0  0
   -0.3188    2.0768   -3.9780 O   0  0  0  0  0  0  0  0  0  0  0  0
   -2.5467    1.5045   -3.7844 C   0  0  0  0  0  0  0  0  0  0  0  0
   -3.5558    0.8040   -3.1700 C   0  0  0  0  0  0  0  0  0  0  0  0
   -3.2085   -0.0276   -2.1008 C   0  0  0  0  0  0  0  0  0  0  0  0
   -4.1702   -0.7591   -1.4385 C   0  0  0  0  0  0  0  0  0  0  0  0
   -3.8382   -1.5916   -0.3711 C   0  0  0  0  0  0  0  0  0  0  0  0
   -5.0714   -2.5329    0.4487 S   0  0  0  0  0  6  0  0  0  0  0  0
   -6.0361   -3.0159   -0.6085 O   0  0  0  0  0  0  0  0  0  0  0  0
   -4.4817   -3.7674    1.0736 O   0  0  0  0  0  0  0  0  0  0  0  0
   -5.9240   -1.5886    1.5832 N   0  0  0  0  0  0  0  0  0  0  0  0
   -5.3499   -0.9587    2.7189 C   0  0  0  0  0  0  0  0  0  0  0  0
   -4.0768   -0.9432    3.2008 C   0  0  0  0  0  0  0  0  0  0  0  0
   -4.0766   -0.1776    4.3500 C   0  0  0  0  0  0  0  0  0  0  0  0
   -5.2803    0.2394    4.5428 O   0  0  0  0  0  0  0  0  0  0  0  0
   -6.0574   -0.1975    3.6073 N   0  0  0  0  0  0  0  0  0  0  0  0
   -2.5101   -1.6560   -0.0030 C   0  0  0  0  0  0  0  0  0  0  0  0
   -1.5659   -0.9400   -0.6505 C   0  0  0  0  0  0  0  0  0  0  0  0
   -1.8955   -0.1172   -1.7053 C   0  0  0  0  0  0  0  0  0  0  0  0
    0.8696    3.4626    0.8400 H   0  0  0  0  0  0  0  0  0  0  0  0
    0.8347    1.9830    1.8207 H   0  0  0  0  0  0  0  0  0  0  0  0
   -0.6190    2.9830    1.6789 H   0  0  0  0  0  0  0  0  0  0  0  0
    2.3723    1.4985    0.5700 H   0  0  0  0  0  0  0  0  0  0  0  0
    5.2647   -0.1243   -2.3960 H   0  0  0  0  0  0  0  0  0  0  0  0
    7.5657   -0.3001   -1.4515 H   0  0  0  0  0  0  0  0  0  0  0  0
    7.8865   -0.1591    0.9574 H   0  0  0  0  0  0  0  0  0  0  0  0
    3.7631    0.3249    1.5834 H   0  0  0  0  0  0  0  0  0  0  0  0
    3.3063   -1.0407   -2.6835 H   0  0  0  0  0  0  0  0  0  0  0  0
    1.0375   -0.8392   -3.5114 H   0  0  0  0  0  0  0  0  0  0  0  0
   -2.8019    2.1562   -4.6178 H   0  0  0  0  0  0  0  0  0  0  0  0
   -4.5919    0.8511   -3.4540 H   0  0  0  0  0  0  0  0  0  0  0  0
   -5.2131   -0.6889   -1.7514 H   0  0  0  0  0  0  0  0  0  0  0  0
   -6.9771   -1.4383    1.4595 H   0  0  0  0  0  0  0  0  0  0  0  0
   -3.2366   -1.4417    2.7623 H   0  0  0  0  0  0  0  0  0  0  0  0
   -3.2013    0.0105    4.9472 H   0  0  0  0  0  0  0  0  0  0  0  0
   -2.1965   -2.2938    0.8174 H   0  0  0  0  0  0  0  0  0  0  0  0
   -0.4922   -0.9636   -0.3864 H   0  0  0  0  0  0  0  0  0  0  0  0
  1  2  1  0
  2  3  1  0
  3  4  2  0
  4  5  1  0
  5  6  1  0
  6  7  2  0
  7  8  1  0
  8  9  2  0
  9 10  1  0
 10 11  1  0
 11 12  1  0
 11 13  1  0
 11 14  1  0
 10 15  2  0
  5 16  2  0
 16 17  1  0
 17 18  2  0
 18 19  1  0
 19 20  1  0
 20 21  2  0
 20 22  1  0
 22 23  2  0
 23 24  1  0
 24 25  2  0
 25 26  1  0
 26 27  1  0
 27 28  2  0
 27 29  2  0
 27 30  1  0
 30 31  1  0
 31 32  1  0
 32 33  2  0
 33 34  1  0
 34 35  1  0
 26 36  2  0
 36 37  1  0
 37 38  2  0
 18  3  1  0
 38 19  1  0
 15  6  1  0
 38 24  1  0
 35 31  2  0
  1 39  1  0
  1 40  1  0
  1 41  1  0
  4 42  1  0
  7 43  1  0
  8 44  1  0
  9 45  1  0
 15 46  1  0
 16 47  1  0
 17 48  1  0
 22 49  1  0
 23 50  1  0
 25 51  1  0
 30 52  1  0
 32 53  1  0
 33 54  1  0
 36 55  1  0
 37 56  1  0
M  END
$$$$
