@<TRIPOS>MOLECULE
*****
 56 60 0 0 0
SMALL
GASTEIGER

@<TRIPOS>ATOM
      1 C           0.2358    2.5964    1.1203 C.3     1  UNL1        0.0789
      2 O          -0.1482    1.9353   -0.0376 O.3     1  UNL1       -0.4930
      3 C           0.7566    1.1277   -0.7719 C.ar    1  UNL1        0.1445
      4 C           2.0498    0.9976   -0.3225 C.ar    1  UNL1       -0.0102
      5 C           2.9711    0.2213   -1.0027 C.ar    1  UNL1       -0.0143
      6 C           4.3260    0.1143   -0.4898 C.ar    1  UNL1       -0.0172
      7 C           5.4143   -0.0628   -1.3333 C.ar    1  UNL1       -0.0540
      8 C           6.6877   -0.1624   -0.8403 C.ar    1  UNL1       -0.0607
      9 C           6.8975   -0.0853    0.5260 C.ar    1  UNL1       -0.0501
     10 C           5.8409    0.0901    1.3922 C.ar    1  UNL1        0.0554
     11 C           6.0820    0.1710    2.8547 C.3     1  UNL1        0.4174
     12 F           6.3331   -1.0531    3.4158 F       1  UNL1       -0.1659
     13 F           7.2274    0.9612    3.0137 F       1  UNL1       -0.1659
     14 F           5.0604    0.8495    3.4868 F       1  UNL1       -0.1659
     15 C           4.5734    0.1863    0.8611 C.ar    1  UNL1       -0.0424
     16 C           2.5832   -0.4348   -2.1549 C.ar    1  UNL1       -0.0518
     17 C           1.2861   -0.2946   -2.5914 C.ar    1  UNL1       -0.0336
     18 C           0.3848    0.4751   -1.9108 C.ar    1  UNL1        0.0916
     19 N          -0.9413    0.6117   -2.3657 N.ar    1  UNL1       -0.2734
     20 C          -1.2278    1.4239   -3.3982 C.ar    1  UNL1        0.2563
     21 O          -0.3188    2.0768   -3.9780 O.2     1  UNL1       -0.2673
     22 C          -2.5467    1.5045   -3.7844 C.ar    1  UNL1        0.0039
     23 C          -3.5558    0.8040   -3.1700 C.ar    1  UNL1       -0.0474
     24 C          -3.2085   -0.0276   -2.1008 C.ar    1  UNL1        0.0009
     25 C          -4.1702   -0.7591   -1.4385 C.ar    1  UNL1       -0.0259
     26 C          -3.8382   -1.5916   -0.3711 C.ar    1  UNL1        0.1092
     27 S          -5.0714   -2.5329    0.4487 S.O2    1  UNL1        0.0736
     28 O          -6.0361   -3.0159   -0.6085 O.2     1  UNL1       -0.1499
     29 O          -4.4817   -3.7674    1.0736 O.2     1  UNL1       -0.1499
     30 N          -5.9240   -1.5886    1.5832 N.pl3   1  UNL1       -0.1968
     31 C          -5.3499   -0.9587    2.7189 C.ar    1  UNL1        0.1805
     32 C          -4.0768   -0.9432    3.2008 C.ar    1  UNL1        0.0203
     33 C          -4.0766   -0.1776    4.3500 C.ar    1  UNL1        0.1261
     34 O          -5.2803    0.2394    4.5428 O.2     1  UNL1       -0.3611
     35 N          -6.0574   -0.1975    3.6073 N.ar    1  UNL1       -0.0620
     36 C          -2.5101   -1.6560   -0.0030 C.ar    1  UNL1       -0.0331
     37 C          -1.5659   -0.9400   -0.6505 C.ar    1  UNL1       -0.0353
     38 C          -1.8955   -0.1172   -1.7053 C.ar    1  UNL1        0.0574
     39 H           0.8696    3.4626    0.8400 H       1  UNL1        0.0660
     40 H           0.8347    1.9830    1.8207 H       1  UNL1        0.0660
     41 H          -0.6190    2.9830    1.6789 H       1  UNL1        0.0660
     42 H           2.3723    1.4985    0.5700 H       1  UNL1        0.0661
     43 H           5.2647   -0.1243   -2.3960 H       1  UNL1        0.0624
     44 H           7.5657   -0.3001   -1.4515 H       1  UNL1        0.0618
     45 H           7.8865   -0.1591    0.9574 H       1  UNL1        0.0623
     46 H           3.7631    0.3249    1.5834 H       1  UNL1        0.0629
     47 H           3.3063   -1.0407   -2.6835 H       1  UNL1        0.0624
     48 H           1.0375   -0.8392   -3.5114 H       1  UNL1        0.0640
     49 H          -2.8019    2.1562   -4.6178 H       1  UNL1        0.0672
     50 H          -4.5919    0.8511   -3.4540 H       1  UNL1        0.0626
     51 H          -5.2131   -0.6889   -1.7514 H       1  UNL1        0.0644
     52 H          -6.9771   -1.4383    1.4595 H       1  UNL1        0.1753
     53 H          -3.2366   -1.4417    2.7623 H       1  UNL1        0.0685
     54 H          -3.2013    0.0105    4.9472 H       1  UNL1        0.1058
     55 H          -2.1965   -2.2938    0.8174 H       1  UNL1        0.0638
     56 H          -0.4922   -0.9636   -0.3864 H       1  UNL1        0.0639
@<TRIPOS>BOND
     1     1     2    1
     2     2     3    1
     3     3     4   ar
     4     4     5   ar
     5     5     6    1
     6     6     7   ar
     7     7     8   ar
     8     8     9   ar
     9     9    10   ar
    10    10    11    1
    11    11    12    1
    12    11    13    1
    13    11    14    1
    14    10    15   ar
    15     5    16   ar
    16    16    17   ar
    17    17    18   ar
    18    18    19    1
    19    19    20   ar
    20    20    21    2
    21    20    22   ar
    22    22    23   ar
    23    23    24   ar
    24    24    25   ar
    25    25    26   ar
    26    26    27    1
    27    27    28    2
    28    27    29    2
    29    27    30    1
    30    30    31    1
    31    31    32   ar
    32    32    33   ar
    33    33    34   ar
    34    34    35   ar
    35    26    36   ar
    36    36    37   ar
    37    37    38   ar
    38    18     3   ar
    39    38    19   ar
    40    15     6   ar
    41    38    24   ar
    42    35    31   ar
    43     1    39    1
    44     1    40    1
    45     1    41    1
    46     4    42    1
    47     7    43    1
    48     8    44    1
    49     9    45    1
    50    15    46    1
    51    16    47    1
    52    17    48    1
    53    22    49    1
    54    23    50    1
    55    25    51    1
    56    30    52    1
    57    32    53    1
    58    33    54    1
    59    36    55    1
    60    37    56    1
