@<TRIPOS>MOLECULE
*****
 69 73 0 0 0
SMALL
GASTEIGER

@<TRIPOS>ATOM
      1 C          -2.3968   -1.7973    3.0005 C.3     1  UNL1       -0.0637
      2 C          -1.1223   -1.7777    2.2541 C.3     1  UNL1       -0.0378
      3 C          -1.1739   -1.7661    0.7656 C.3     1  UNL1        0.0248
      4 N          -1.8354   -0.6943    0.1335 N.ar    1  UNL1       -0.3256
      5 C          -3.0335   -0.4522   -0.4075 C.ar    1  UNL1        0.1140
      6 N          -3.0426    0.8638   -0.7897 N.ar    1  UNL1       -0.2313
      7 C          -1.8789    1.4638   -0.5063 C.ar    1  UNL1        0.0986
      8 C          -1.1380    0.4848    0.0660 C.ar    1  UNL1        0.0952
      9 C           0.2378    0.8291    0.5002 C.ar    1  UNL1        0.0945
     10 C           0.6662    1.7047    1.4758 C.ar    1  UNL1       -0.0159
     11 C           2.0263    1.8257    1.6605 C.ar    1  UNL1        0.0333
     12 N           2.8955    1.1183    0.9194 N.ar    1  UNL1       -0.2229
     13 C           2.4785    0.2645   -0.0315 C.ar    1  UNL1        0.2159
     14 N           3.4006   -0.4829   -0.8145 N.pl3   1  UNL1       -0.3106
     15 C           4.8367   -0.3950   -0.6613 C.3     1  UNL1        0.0233
     16 C           5.2171   -0.8177    0.7120 C.3     1  UNL1       -0.0345
     17 C           6.6838   -0.6051    1.0172 C.3     1  UNL1       -0.0514
     18 C           7.3800    0.1693   -0.0666 C.3     1  UNL1       -0.0529
     19 C           6.5366    1.4175   -0.3344 C.3     1  UNL1       -0.0514
     20 C           5.2351    1.0257   -0.9878 C.3     1  UNL1       -0.0345
     21 N           1.1534    0.1470   -0.2115 N.ar    1  UNL1       -0.2129
     22 C          -1.7723    2.8697   -0.8664 C.ar    1  UNL1        0.0040
     23 C          -1.6481    3.9825   -0.0698 C.ar    1  UNL1       -0.0510
     24 C          -1.5560    5.2506   -0.5805 C.ar    1  UNL1       -0.0413
     25 C          -1.5873    5.4443   -1.9570 C.ar    1  UNL1        0.0593
     26 CL         -1.4616    7.1166   -2.5093 Cl      1  UNL1       -0.0820
     27 C          -1.7107    4.3590   -2.7990 C.ar    1  UNL1        0.0599
     28 CL         -1.7434    4.6793   -4.5046 Cl      1  UNL1       -0.0820
     29 C          -1.8023    3.0830   -2.2517 C.ar    1  UNL1       -0.0327
     30 C          -4.1328   -1.3866   -0.6197 C.3     1  UNL1        0.0196
     31 C          -3.7929   -2.5426   -1.5682 C.3     1  UNL1       -0.0307
     32 C          -5.1459   -3.2361   -1.7904 C.3     1  UNL1       -0.0035
     33 N          -5.4632   -3.9437   -0.5674 N.3     1  UNL1       -0.3159
     34 C          -4.8372   -3.3553    0.5983 C.3     1  UNL1       -0.0035
     35 C          -4.9361   -1.8236    0.5414 C.3     1  UNL1       -0.0307
     36 H          -3.0247   -2.6551    2.7185 H       1  UNL1        0.0230
     37 H          -2.9239   -0.8194    2.9290 H       1  UNL1        0.0230
     38 H          -2.1618   -1.9562    4.0802 H       1  UNL1        0.0230
     39 H          -0.5112   -0.9420    2.6739 H       1  UNL1        0.0280
     40 H          -0.5223   -2.6937    2.5585 H       1  UNL1        0.0280
     41 H          -0.0922   -1.7969    0.4213 H       1  UNL1        0.0492
     42 H          -1.5433   -2.7768    0.4622 H       1  UNL1        0.0492
     43 H          -0.1582    2.1896    1.9778 H       1  UNL1        0.0655
     44 H           2.2942    2.5368    2.4507 H       1  UNL1        0.0831
     45 H           2.9930   -1.1367   -1.5472 H       1  UNL1        0.1492
     46 H           5.3172   -1.1006   -1.3702 H       1  UNL1        0.0498
     47 H           4.5826   -0.4229    1.5284 H       1  UNL1        0.0283
     48 H           5.0505   -1.9346    0.7591 H       1  UNL1        0.0283
     49 H           6.7588   -0.0163    1.9542 H       1  UNL1        0.0266
     50 H           7.2282   -1.5656    1.2145 H       1  UNL1        0.0266
     51 H           7.4817   -0.4563   -0.9778 H       1  UNL1        0.0265
     52 H           8.3490    0.5169    0.3051 H       1  UNL1        0.0265
     53 H           7.1552    2.0932   -0.9245 H       1  UNL1        0.0266
     54 H           6.3483    1.8625    0.6535 H       1  UNL1        0.0266
     55 H           4.4451    1.7635   -0.7689 H       1  UNL1        0.0283
     56 H           5.4037    1.0657   -2.0933 H       1  UNL1        0.0283
     57 H          -1.6333    3.7642    0.9696 H       1  UNL1        0.0625
     58 H          -1.4590    6.0675    0.1489 H       1  UNL1        0.0633
     59 H          -1.8956    2.3153   -3.0231 H       1  UNL1        0.0639
     60 H          -4.8823   -0.8022   -1.2692 H       1  UNL1        0.0380
     61 H          -3.1392   -3.2928   -1.1551 H       1  UNL1        0.0284
     62 H          -3.4978   -2.1090   -2.5314 H       1  UNL1        0.0284
     63 H          -5.1198   -3.8710   -2.6895 H       1  UNL1        0.0424
     64 H          -5.8861   -2.4200   -1.9115 H       1  UNL1        0.0424
     65 H          -6.4820   -3.9902   -0.3891 H       1  UNL1        0.1219
     66 H          -3.7961   -3.7052    0.7227 H       1  UNL1        0.0424
     67 H          -5.4191   -3.6733    1.4865 H       1  UNL1        0.0424
     68 H          -6.0564   -1.6663    0.3789 H       1  UNL1        0.0284
     69 H          -4.7396   -1.3951    1.5076 H       1  UNL1        0.0284
@<TRIPOS>BOND
     1     1     2    1
     2     2     3    1
     3     3     4    1
     4     4     5   ar
     5     5     6   ar
     6     6     7   ar
     7     7     8   ar
     8     8     9    1
     9     9    10   ar
    10    10    11   ar
    11    11    12   ar
    12    12    13   ar
    13    13    14    1
    14    14    15    1
    15    15    16    1
    16    16    17    1
    17    17    18    1
    18    18    19    1
    19    19    20    1
    20    13    21   ar
    21     7    22    1
    22    22    23   ar
    23    23    24   ar
    24    24    25   ar
    25    25    26    1
    26    25    27   ar
    27    27    28    1
    28    27    29   ar
    29     5    30    1
    30    30    31    1
    31    31    32    1
    32    32    33    1
    33    33    34    1
    34    34    35    1
    35     8     4   ar
    36    21     9   ar
    37    29    22   ar
    38    35    30    1
    39    20    15    1
    40     1    36    1
    41     1    37    1
    42     1    38    1
    43     2    39    1
    44     2    40    1
    45     3    41    1
    46     3    42    1
    47    10    43    1
    48    11    44    1
    49    14    45    1
    50    15    46    1
    51    16    47    1
    52    16    48    1
    53    17    49    1
    54    17    50    1
    55    18    51    1
    56    18    52    1
    57    19    53    1
    58    19    54    1
    59    20    55    1
    60    20    56    1
    61    23    57    1
    62    24    58    1
    63    29    59    1
    64    30    60    1
    65    31    61    1
    66    31    62    1
    67    32    63    1
    68    32    64    1
    69    33    65    1
    70    34    66    1
    71    34    67    1
    72    35    68    1
    73    35    69    1
