
     RDKit          3D

 69 73  0  0  0  0  0  0  0  0999 V2000
   -2.3968   -1.7973    3.0005 C   0  0  0  0  0  0  0  0  0  0  0  0
   -1.1223   -1.7777    2.2541 C   0  0  0  0  0  0  0  0  0  0  0  0
   -1.1739   -1.7661    0.7656 C   0  0  0  0  0  0  0  0  0  0  0  0
   -1.8354   -0.6943    0.1335 N   0  0  0  0  0  0  0  0  0  0  0  0
   -3.0335   -0.4522   -0.4075 C   0  0  0  0  0  0  0  0  0  0  0  0
   -3.0426    0.8638   -0.7897 N   0  0  0  0  0  0  0  0  0  0  0  0
   -1.8789    1.4638   -0.5063 C   0  0  0  0  0  0  0  0  0  0  0  0
   -1.1380    0.4848    0.0660 C   0  0  0  0  0  0  0  0  0  0  0  0
    0.2378    0.8291    0.5002 C   0  0  0  0  0  0  0  0  0  0  0  0
    0.6662    1.7047    1.4758 C   0  0  0  0  0  0  0  0  0  0  0  0
    2.0263    1.8257    1.6605 C   0  0  0  0  0  0  0  0  0  0  0  0
    2.8955    1.1183    0.9194 N   0  0  0  0  0  0  0  0  0  0  0  0
    2.4785    0.2645   -0.0315 C   0  0  0  0  0  0  0  0  0  0  0  0
    3.4006   -0.4829   -0.8145 N   0  0  0  0  0  0  0  0  0  0  0  0
    4.8367   -0.3950   -0.6613 C   0  0  0  0  0  0  0  0  0  0  0  0
    5.2171   -0.8177    0.7120 C   0  0  0  0  0  0  0  0  0  0  0  0
    6.6838   -0.6051    1.0172 C   0  0  0  0  0  0  0  0  0  0  0  0
    7.3800    0.1693   -0.0666 C   0  0  0  0  0  0  0  0  0  0  0  0
    6.5366    1.4175   -0.3344 C   0  0  0  0  0  0  0  0  0  0  0  0
    5.2351    1.0257   -0.9878 C   0  0  0  0  0  0  0  0  0  0  0  0
    1.1534    0.1470   -0.2115 N   0  0  0  0  0  0  0  0  0  0  0  0
   -1.7723    2.8697   -0.8664 C   0  0  0  0  0  0  0  0  0  0  0  0
   -1.6481    3.9825   -0.0698 C   0  0  0  0  0  0  0  0  0  0  0  0
   -1.5560    5.2506   -0.5805 C   0  0  0  0  0  0  0  0  0  0  0  0
   -1.5873    5.4443   -1.9570 C   0  0  0  0  0  0  0  0  0  0  0  0
   -1.4616    7.1166   -2.5093 Cl  0  0  0  0  0  0  0  0  0  0  0  0
   -1.7107    4.3590   -2.7990 C   0  0  0  0  0  0  0  0  0  0  0  0
   -1.7434    4.6793   -4.5046 Cl  0  0  0  0  0  0  0  0  0  0  0  0
   -1.8023    3.0830   -2.2517 C   0  0  0  0  0  0  0  0  0  0  0  0
   -4.1328   -1.3866   -0.6197 C   0  0  0  0  0  0  0  0  0  0  0  0
   -3.7929   -2.5426   -1.5682 C   0  0  0  0  0  0  0  0  0  0  0  0
   -5.1459   -3.2361   -1.7904 C   0  0  0  0  0  0  0  0  0  0  0  0
   -5.4632   -3.9437   -0.5674 N   0  0  0  0  0  0  0  0  0  0  0  0
   -4.8372   -3.3553    0.5983 C   0  0  0  0  0  0  0  0  0  0  0  0
   -4.9361   -1.8236    0.5414 C   0  0  0  0  0  0  0  0  0  0  0  0
   -3.0247   -2.6551    2.7185 H   0  0  0  0  0  0  0  0  0  0  0  0
   -2.9239   -0.8194    2.9290 H   0  0  0  0  0  0  0  0  0  0  0  0
   -2.1618   -1.9562    4.0802 H   0  0  0  0  0  0  0  0  0  0  0  0
   -0.5112   -0.9420    2.6739 H   0  0  0  0  0  0  0  0  0  0  0  0
   -0.5223   -2.6937    2.5585 H   0  0  0  0  0  0  0  0  0  0  0  0
   -0.0922   -1.7969    0.4213 H   0  0  0  0  0  0  0  0  0  0  0  0
   -1.5433   -2.7768    0.4622 H   0  0  0  0  0  0  0  0  0  0  0  0
   -0.1582    2.1896    1.9778 H   0  0  0  0  0  0  0  0  0  0  0  0
    2.2942    2.5368    2.4507 H   0  0  0  0  0  0  0  0  0  0  0  0
    2.9930   -1.1367   -1.5472 H   0  0  0  0  0  0  0  0  0  0  0  0
    5.3172   -1.1006   -1.3702 H   0  0  0  0  0  0  0  0  0  0  0  0
    4.5826   -0.4229    1.5284 H   0  0  0  0  0  0  0  0  0  0  0  0
    5.0505   -1.9346    0.7591 H   0  0  0  0  0  0  0  0  0  0  0  0
    6.7588   -0.0163    1.9542 H   0  0  0  0  0  0  0  0  0  0  0  0
    7.2282   -1.5656    1.2145 H   0  0  0  0  0  0  0  0  0  0  0  0
    7.4817   -0.4563   -0.9778 H   0  0  0  0  0  0  0  0  0  0  0  0
    8.3490    0.5169    0.3051 H   0  0  0  0  0  0  0  0  0  0  0  0
    7.1552    2.0932   -0.9245 H   0  0  0  0  0  0  0  0  0  0  0  0
    6.3483    1.8625    0.6535 H   0  0  0  0  0  0  0  0  0  0  0  0
    4.4451    1.7635   -0.7689 H   0  0  0  0  0  0  0  0  0  0  0  0
    5.4037    1.0657   -2.0933 H   0  0  0  0  0  0  0  0  0  0  0  0
   -1.6333    3.7642    0.9696 H   0  0  0  0  0  0  0  0  0  0  0  0
   -1.4590    6.0675    0.1489 H   0  0  0  0  0  0  0  0  0  0  0  0
   -1.8956    2.3153   -3.0231 H   0  0  0  0  0  0  0  0  0  0  0  0
   -4.8823   -0.8022   -1.2692 H   0  0  0  0  0  0  0  0  0  0  0  0
   -3.1392   -3.2928   -1.1551 H   0  0  0  0  0  0  0  0  0  0  0  0
   -3.4978   -2.1090   -2.5314 H   0  0  0  0  0  0  0  0  0  0  0  0
   -5.1198   -3.8710   -2.6895 H   0  0  0  0  0  0  0  0  0  0  0  0
   -5.8861   -2.4200   -1.9115 H   0  0  0  0  0  0  0  0  0  0  0  0
   -6.4820   -3.9902   -0.3891 H   0  0  0  0  0  0  0  0  0  0  0  0
   -3.7961   -3.7052    0.7227 H   0  0  0  0  0  0  0  0  0  0  0  0
   -5.4191   -3.6733    1.4865 H   0  0  0  0  0  0  0  0  0  0  0  0
   -6.0564   -1.6663    0.3789 H   0  0  0  0  0  0  0  0  0  0  0  0
   -4.7396   -1.3951    1.5076 H   0  0  0  0  0  0  0  0  0  0  0  0
  1  2  1  0
  2  3  1  0
  3  4  1  0
  4  5  1  0
  5  6  2  0
  6  7  1  0
  7  8  2  0
  8  9  1  0
  9 10  2  0
 10 11  1  0
 11 12  2  0
 12 13  1  0
 13 14  1  0
 14 15  1  0
 15 16  1  0
 16 17  1  0
 17 18  1  0
 18 19  1  0
 19 20  1  0
 13 21  2  0
  7 22  1  0
 22 23  2  0
 23 24  1  0
 24 25  2  0
 25 26  1  0
 25 27  1  0
 27 28  1  0
 27 29  2  0
  5 30  1  0
 30 31  1  0
 31 32  1  0
 32 33  1  0
 33 34  1  0
 34 35  1  0
  8  4  1  0
 21  9  1  0
 29 22  1  0
 35 30  1  0
 20 15  1  0
  1 36  1  0
  1 37  1  0
  1 38  1  0
  2 39  1  0
  2 40  1  0
  3 41  1  0
  3 42  1  0
 10 43  1  0
 11 44  1  0
 14 45  1  0
 15 46  1  0
 16 47  1  0
 16 48  1  0
 17 49  1  0
 17 50  1  0
 18 51  1  0
 18 52  1  0
 19 53  1  0
 19 54  1  0
 20 55  1  0
 20 56  1  0
 23 57  1  0
 24 58  1  0
 29 59  1  0
 30 60  1  0
 31 61  1  0
 31 62  1  0
 32 63  1  0
 32 64  1  0
 33 65  1  0
 34 66  1  0
 34 67  1  0
 35 68  1  0
 35 69  1  0
M  END
$$$$
