@<TRIPOS>MOLECULE
*****
 42 43 0 0 0
SMALL
GASTEIGER

@<TRIPOS>ATOM
      1 C          -4.7716   -0.0251    1.7216 C.3     1  UNL1       -0.0607
      2 C          -4.1713   -0.9544    0.7209 C.3     1  UNL1       -0.0194
      3 C          -5.1586   -1.1443   -0.4071 C.3     1  UNL1       -0.0607
      4 C          -2.8176   -0.5161    0.2223 C.3     1  UNL1        0.1276
      5 N          -2.7979    0.7381   -0.4154 N.3     1  UNL1       -0.1759
      6 S          -1.7123    1.8897    0.1287 S.O2    1  UNL1        0.0591
      7 O          -1.8836    3.1399   -0.7299 O.2     1  UNL1       -0.1530
      8 O          -1.9365    2.3488    1.5434 O.2     1  UNL1       -0.1530
      9 C          -0.0386    1.4384   -0.0115 C.ar    1  UNL1        0.1053
     10 C           0.5481    0.7823    1.0495 C.ar    1  UNL1       -0.0348
     11 C           1.8888    0.3799    1.0260 C.ar    1  UNL1       -0.0522
     12 C           2.6661    0.6382   -0.0841 C.ar    1  UNL1       -0.0178
     13 C           4.0762    0.2425   -0.1791 C.ar    1  UNL1       -0.0177
     14 C           4.9935    0.9789   -0.9051 C.ar    1  UNL1       -0.0513
     15 C           6.3227    0.6364   -1.0194 C.ar    1  UNL1       -0.0259
     16 C           6.7858   -0.4972   -0.3845 C.ar    1  UNL1        0.1234
     17 F           8.0905   -0.8895   -0.4598 F       1  UNL1       -0.2055
     18 C           5.8787   -1.2402    0.3434 C.ar    1  UNL1       -0.0259
     19 C           4.5490   -0.8840    0.4487 C.ar    1  UNL1       -0.0513
     20 C           2.0583    1.2957   -1.1331 C.ar    1  UNL1       -0.0522
     21 C           0.7363    1.6901   -1.1052 C.ar    1  UNL1       -0.0348
     22 C          -2.4142   -1.5510   -0.8016 C.2     1  UNL1        0.3238
     23 O          -2.1316   -1.2371   -1.9870 O.2     1  UNL1       -0.2492
     24 O          -2.3391   -2.8992   -0.4711 O.3     1  UNL1       -0.4795
     25 H          -4.5732    1.0468    1.4968 H       1  UNL1        0.0233
     26 H          -4.4926   -0.2826    2.7702 H       1  UNL1        0.0233
     27 H          -5.8772   -0.1438    1.6740 H       1  UNL1        0.0233
     28 H          -4.0460   -1.9465    1.2145 H       1  UNL1        0.0316
     29 H          -4.6651   -1.2152   -1.3952 H       1  UNL1        0.0233
     30 H          -5.7760   -2.0632   -0.2914 H       1  UNL1        0.0233
     31 H          -5.8784   -0.3031   -0.4787 H       1  UNL1        0.0233
     32 H          -2.0804   -0.5702    1.0372 H       1  UNL1        0.0595
     33 H          -3.6892    1.1511   -0.6923 H       1  UNL1        0.1489
     34 H          -0.0468    0.5666    1.9394 H       1  UNL1        0.0637
     35 H           2.3397   -0.1367    1.8695 H       1  UNL1        0.0624
     36 H           4.6204    1.8804   -1.4079 H       1  UNL1        0.0624
     37 H           7.0349    1.2160   -1.5878 H       1  UNL1        0.0646
     38 H           6.2255   -2.1338    0.8483 H       1  UNL1        0.0646
     39 H           3.8433   -1.4859    1.0303 H       1  UNL1        0.0624
     40 H           2.6948    1.4918   -2.0085 H       1  UNL1        0.0624
     41 H           0.3121    2.1959   -1.9431 H       1  UNL1        0.0637
     42 H          -2.3668   -3.6284   -1.1860 H       1  UNL1        0.2951
@<TRIPOS>BOND
     1     1     2    1
     2     2     3    1
     3     2     4    1
     4     4     5    1
     5     5     6    1
     6     6     7    2
     7     6     8    2
     8     6     9    1
     9     9    10   ar
    10    10    11   ar
    11    11    12   ar
    12    12    13    1
    13    13    14   ar
    14    14    15   ar
    15    15    16   ar
    16    16    17    1
    17    16    18   ar
    18    18    19   ar
    19    12    20   ar
    20    20    21   ar
    21     4    22    1
    22    22    23    2
    23    22    24    1
    24    21     9   ar
    25    19    13   ar
    26     1    25    1
    27     1    26    1
    28     1    27    1
    29     2    28    1
    30     3    29    1
    31     3    30    1
    32     3    31    1
    33     4    32    1
    34     5    33    1
    35    10    34    1
    36    11    35    1
    37    14    36    1
    38    15    37    1
    39    18    38    1
    40    19    39    1
    41    20    40    1
    42    21    41    1
    43    24    42    1
