
     RDKit          3D

 42 43  0  0  0  0  0  0  0  0999 V2000
   -4.7716   -0.0251    1.7216 C   0  0  0  0  0  0  0  0  0  0  0  0
   -4.1713   -0.9544    0.7209 C   0  0  0  0  0  0  0  0  0  0  0  0
   -5.1586   -1.1443   -0.4071 C   0  0  0  0  0  0  0  0  0  0  0  0
   -2.8176   -0.5161    0.2223 C   0  0  2  0  0  0  0  0  0  0  0  0
   -2.7979    0.7381   -0.4154 N   0  0  0  0  0  0  0  0  0  0  0  0
   -1.7123    1.8897    0.1287 S   0  0  0  0  0  6  0  0  0  0  0  0
   -1.8836    3.1399   -0.7299 O   0  0  0  0  0  0  0  0  0  0  0  0
   -1.9365    2.3488    1.5434 O   0  0  0  0  0  0  0  0  0  0  0  0
   -0.0386    1.4384   -0.0115 C   0  0  0  0  0  0  0  0  0  0  0  0
    0.5481    0.7823    1.0495 C   0  0  0  0  0  0  0  0  0  0  0  0
    1.8888    0.3799    1.0260 C   0  0  0  0  0  0  0  0  0  0  0  0
    2.6661    0.6382   -0.0841 C   0  0  0  0  0  0  0  0  0  0  0  0
    4.0762    0.2425   -0.1791 C   0  0  0  0  0  0  0  0  0  0  0  0
    4.9935    0.9789   -0.9051 C   0  0  0  0  0  0  0  0  0  0  0  0
    6.3227    0.6364   -1.0194 C   0  0  0  0  0  0  0  0  0  0  0  0
    6.7858   -0.4972   -0.3845 C   0  0  0  0  0  0  0  0  0  0  0  0
    8.0905   -0.8895   -0.4598 F   0  0  0  0  0  0  0  0  0  0  0  0
    5.8787   -1.2402    0.3434 C   0  0  0  0  0  0  0  0  0  0  0  0
    4.5490   -0.8840    0.4487 C   0  0  0  0  0  0  0  0  0  0  0  0
    2.0583    1.2957   -1.1331 C   0  0  0  0  0  0  0  0  0  0  0  0
    0.7363    1.6901   -1.1052 C   0  0  0  0  0  0  0  0  0  0  0  0
   -2.4142   -1.5510   -0.8016 C   0  0  0  0  0  0  0  0  0  0  0  0
   -2.1316   -1.2371   -1.9870 O   0  0  0  0  0  0  0  0  0  0  0  0
   -2.3391   -2.8992   -0.4711 O   0  0  0  0  0  0  0  0  0  0  0  0
   -4.5732    1.0468    1.4968 H   0  0  0  0  0  0  0  0  0  0  0  0
   -4.4926   -0.2826    2.7702 H   0  0  0  0  0  0  0  0  0  0  0  0
   -5.8772   -0.1438    1.6740 H   0  0  0  0  0  0  0  0  0  0  0  0
   -4.0460   -1.9465    1.2145 H   0  0  0  0  0  0  0  0  0  0  0  0
   -4.6651   -1.2152   -1.3952 H   0  0  0  0  0  0  0  0  0  0  0  0
   -5.7760   -2.0632   -0.2914 H   0  0  0  0  0  0  0  0  0  0  0  0
   -5.8784   -0.3031   -0.4787 H   0  0  0  0  0  0  0  0  0  0  0  0
   -2.0804   -0.5702    1.0372 H   0  0  0  0  0  0  0  0  0  0  0  0
   -3.6892    1.1511   -0.6923 H   0  0  0  0  0  0  0  0  0  0  0  0
   -0.0468    0.5666    1.9394 H   0  0  0  0  0  0  0  0  0  0  0  0
    2.3397   -0.1367    1.8695 H   0  0  0  0  0  0  0  0  0  0  0  0
    4.6204    1.8804   -1.4079 H   0  0  0  0  0  0  0  0  0  0  0  0
    7.0349    1.2160   -1.5878 H   0  0  0  0  0  0  0  0  0  0  0  0
    6.2255   -2.1338    0.8483 H   0  0  0  0  0  0  0  0  0  0  0  0
    3.8433   -1.4859    1.0303 H   0  0  0  0  0  0  0  0  0  0  0  0
    2.6948    1.4918   -2.0085 H   0  0  0  0  0  0  0  0  0  0  0  0
    0.3121    2.1959   -1.9431 H   0  0  0  0  0  0  0  0  0  0  0  0
   -2.3668   -3.6284   -1.1860 H   0  0  0  0  0  0  0  0  0  0  0  0
  1  2  1  0
  2  3  1  0
  2  4  1  0
  4  5  1  0
  5  6  1  0
  6  7  2  0
  6  8  2  0
  6  9  1  0
  9 10  2  0
 10 11  1  0
 11 12  2  0
 12 13  1  0
 13 14  2  0
 14 15  1  0
 15 16  2  0
 16 17  1  0
 16 18  1  0
 18 19  2  0
 12 20  1  0
 20 21  2  0
  4 22  1  0
 22 23  2  0
 22 24  1  0
 21  9  1  0
 19 13  1  0
  1 25  1  0
  1 26  1  0
  1 27  1  0
  2 28  1  0
  3 29  1  0
  3 30  1  0
  3 31  1  0
  4 32  1  1
  5 33  1  0
 10 34  1  0
 11 35  1  0
 14 36  1  0
 15 37  1  0
 18 38  1  0
 19 39  1  0
 20 40  1  0
 21 41  1  0
 24 42  1  0
M  END
$$$$
