@<TRIPOS>MOLECULE
*****
 59 61 0 0 0
SMALL
GASTEIGER

@<TRIPOS>ATOM
      1 C           9.8781   -0.1684   -0.5414 C.3     1  UNL1        0.0029
      2 N           8.7602   -0.8974   -1.0652 N.am    1  UNL1       -0.3063
      3 C           8.7776   -1.3501   -2.4324 C.3     1  UNL1        0.0029
      4 C           7.6425   -1.1744   -0.2496 C.2     1  UNL1        0.2323
      5 O           6.6544   -1.8182   -0.7115 O.2     1  UNL1       -0.2739
      6 C           7.6246   -0.7048    1.1691 C.3     1  UNL1        0.0897
      7 N           6.3926   -1.0933    1.8212 N.am    1  UNL1       -0.2905
      8 C           5.1522   -0.6242    1.2930 C.2     1  UNL1        0.3065
      9 O           5.1272    0.1228    0.2665 O.2     1  UNL1       -0.2524
     10 N           3.8922   -0.9524    1.8645 N.am    1  UNL1       -0.2371
     11 C           2.6526   -0.4938    1.3507 C.ar    1  UNL1        0.2427
     12 N           2.0932    0.6687    1.7677 N.ar    1  UNL1       -0.1938
     13 C           0.9462    0.8271    1.1117 C.ar    1  UNL1        0.1577
     14 C          -0.0141    1.8369    1.1580 C.ar    1  UNL1       -0.0167
     15 C          -1.1291    1.7618    0.3648 C.ar    1  UNL1       -0.0490
     16 C          -1.2747    0.6794   -0.4671 C.ar    1  UNL1        0.0019
     17 C          -2.4520    0.5806   -1.3179 C.ar    1  UNL1        0.0035
     18 C          -2.3644   -0.0469   -2.5329 C.ar    1  UNL1        0.0354
     19 N          -3.4503   -0.1335   -3.3095 N.ar    1  UNL1       -0.2607
     20 C          -4.6484    0.3852   -2.9291 C.ar    1  UNL1        0.0539
     21 C          -4.7778    1.0153   -1.7319 C.ar    1  UNL1        0.1238
     22 S          -6.3020    1.6861   -1.2514 S.O2    1  UNL1        0.0603
     23 O          -6.1195    2.9955   -0.5030 O.2     1  UNL1       -0.1530
     24 O          -6.9934    2.1185   -2.5466 O.2     1  UNL1       -0.1530
     25 N          -7.3565    0.6360   -0.4722 N.3     1  UNL1       -0.1846
     26 C          -6.9911    0.0480    0.7469 C.3     1  UNL1        0.0316
     27 C          -6.6436    0.9861    1.8599 C.3     1  UNL1       -0.0457
     28 C          -5.8420   -0.9075    0.5425 C.3     1  UNL1       -0.0457
     29 C          -8.1978   -0.7938    1.2058 C.3     1  UNL1       -0.0457
     30 C          -3.6803    1.1194   -0.9138 C.ar    1  UNL1       -0.0246
     31 C          -0.3064   -0.2856   -0.4777 C.ar    1  UNL1        0.0393
     32 N           0.7825   -0.2223    0.2901 N.ar    1  UNL1       -0.2180
     33 N           1.8394   -1.0248    0.4488 N.ar    1  UNL1       -0.1286
     34 H          10.8357   -0.4260   -1.0534 H       1  UNL1        0.0428
     35 H           9.7255    0.9460   -0.6107 H       1  UNL1        0.0428
     36 H           9.9814   -0.3915    0.5307 H       1  UNL1        0.0428
     37 H           8.6838   -2.4568   -2.4650 H       1  UNL1        0.0428
     38 H           9.7010   -1.0349   -2.9559 H       1  UNL1        0.0428
     39 H           7.8583   -0.9575   -2.9322 H       1  UNL1        0.0428
     40 H           8.4790   -1.1631    1.7030 H       1  UNL1        0.0558
     41 H           7.7486    0.3867    1.1661 H       1  UNL1        0.0558
     42 H           6.3885   -1.7073    2.6671 H       1  UNL1        0.1507
     43 H           3.8807   -1.5644    2.7086 H       1  UNL1        0.1593
     44 H           0.1491    2.6641    1.8283 H       1  UNL1        0.0655
     45 H          -1.8986    2.5168    0.3651 H       1  UNL1        0.0625
     46 H          -1.4068   -0.4654   -2.8451 H       1  UNL1        0.0836
     47 H          -5.4588    0.2630   -3.6244 H       1  UNL1        0.0849
     48 H          -8.3372    0.9149   -0.5929 H       1  UNL1        0.1486
     49 H          -6.1412    1.8989    1.5638 H       1  UNL1        0.0248
     50 H          -5.9793    0.4691    2.6107 H       1  UNL1        0.0248
     51 H          -7.5593    1.2660    2.4205 H       1  UNL1        0.0248
     52 H          -4.9328   -0.5533    1.0721 H       1  UNL1        0.0248
     53 H          -6.1258   -1.9102    0.9081 H       1  UNL1        0.0248
     54 H          -5.6134   -0.9961   -0.5602 H       1  UNL1        0.0248
     55 H          -7.8817   -1.5586    1.9376 H       1  UNL1        0.0248
     56 H          -8.9345   -0.1306    1.7338 H       1  UNL1        0.0248
     57 H          -8.7256   -1.2408    0.3581 H       1  UNL1        0.0248
     58 H          -3.7063    1.6026    0.0448 H       1  UNL1        0.0644
     59 H          -0.4025   -1.1476   -1.1270 H       1  UNL1        0.0837
@<TRIPOS>BOND
     1     1     2    1
     2     2     3    1
     3     2     4   am
     4     4     5    2
     5     4     6    1
     6     6     7    1
     7     7     8   am
     8     8     9    2
     9     8    10   am
    10    10    11    1
    11    11    12   ar
    12    12    13   ar
    13    13    14   ar
    14    14    15   ar
    15    15    16   ar
    16    16    17    1
    17    17    18   ar
    18    18    19   ar
    19    19    20   ar
    20    20    21   ar
    21    21    22    1
    22    22    23    2
    23    22    24    2
    24    22    25    1
    25    25    26    1
    26    26    27    1
    27    26    28    1
    28    26    29    1
    29    21    30   ar
    30    16    31   ar
    31    31    32   ar
    32    32    33   ar
    33    33    11   ar
    34    32    13   ar
    35    30    17   ar
    36     1    34    1
    37     1    35    1
    38     1    36    1
    39     3    37    1
    40     3    38    1
    41     3    39    1
    42     6    40    1
    43     6    41    1
    44     7    42    1
    45    10    43    1
    46    14    44    1
    47    15    45    1
    48    18    46    1
    49    20    47    1
    50    25    48    1
    51    27    49    1
    52    27    50    1
    53    27    51    1
    54    28    52    1
    55    28    53    1
    56    28    54    1
    57    29    55    1
    58    29    56    1
    59    29    57    1
    60    30    58    1
    61    31    59    1
