@<TRIPOS>MOLECULE
*****
 73 75 0 0 0
SMALL
GASTEIGER

@<TRIPOS>ATOM
      1 C           7.2817    0.0974   -0.1949 C.3     1  UNL1       -0.0621
      2 C           6.9301   -1.3039   -0.6666 C.3     1  UNL1       -0.0407
      3 C           6.9121   -2.2455    0.5132 C.3     1  UNL1       -0.0621
      4 C           5.5942   -1.3105   -1.4121 C.3     1  UNL1       -0.0234
      5 C           5.2276   -2.6930   -1.8887 C.3     1  UNL1       -0.0587
      6 C           4.5819   -0.7451   -0.4829 C.2     1  UNL1       -0.0846
      7 C           3.9143    0.3752   -0.7179 C.2     1  UNL1       -0.0846
      8 C           2.9110    0.8270    0.3261 C.3     1  UNL1       -0.0224
      9 C           3.3393    2.2378    0.6884 C.3     1  UNL1       -0.0587
     10 C           1.5433    0.9084   -0.2627 C.3     1  UNL1       -0.0291
     11 C           1.0993   -0.4618   -0.8274 C.3     1  UNL1       -0.0486
     12 C          -0.3991   -0.3211   -0.9965 C.3     1  UNL1       -0.0457
     13 C          -0.6939    1.0135   -0.3916 C.3     1  UNL1       -0.0139
     14 C          -2.0462    1.1448    0.1752 C.2     1  UNL1       -0.0659
     15 C          -2.2515    1.9251    1.4379 C.3     1  UNL1       -0.0312
     16 C          -1.0690    2.6004    1.9807 C.3     1  UNL1       -0.0488
     17 C           0.2394    2.4465    1.2807 C.3     1  UNL1       -0.0465
     18 C           0.4067    1.1099    0.6737 C.3     1  UNL1       -0.0222
     19 C           0.2949   -0.0235    1.6624 C.3     1  UNL1       -0.0587
     20 C          -3.1405    0.5934   -0.3898 C.2     1  UNL1       -0.0620
     21 C          -4.4245    0.7936    0.2677 C.2     1  UNL1       -0.0583
     22 C          -5.5963    0.3372   -0.1471 C.2     1  UNL1       -0.0423
     23 C          -6.9118    0.5595    0.5618 C.3     1  UNL1       -0.0013
     24 C          -7.5226   -0.8027    0.7448 C.3     1  UNL1        0.0595
     25 O          -8.9184   -0.7658    0.6042 O.3     1  UNL1       -0.3915
     26 C          -6.8987   -1.8990   -0.0448 C.3     1  UNL1       -0.0226
     27 C          -6.6065   -1.5658   -1.4899 C.3     1  UNL1       -0.0256
     28 C          -5.6137   -0.4228   -1.4067 C.2     1  UNL1       -0.0511
     29 C          -4.7565   -0.0072   -2.3239 C.2     1  UNL1       -0.0952
     30 H           7.0235    0.2496    0.8877 H       1  UNL1        0.0233
     31 H           8.3741    0.2840   -0.2751 H       1  UNL1        0.0233
     32 H           6.7640    0.8438   -0.8134 H       1  UNL1        0.0233
     33 H           7.7434   -1.6346   -1.3450 H       1  UNL1        0.0301
     34 H           5.8798   -2.6729    0.5717 H       1  UNL1        0.0233
     35 H           7.1298   -1.6660    1.4547 H       1  UNL1        0.0233
     36 H           7.6746   -3.0277    0.4259 H       1  UNL1        0.0233
     37 H           5.7167   -0.5818   -2.2487 H       1  UNL1        0.0343
     38 H           4.6196   -2.5882   -2.8276 H       1  UNL1        0.0235
     39 H           4.6544   -3.1964   -1.0780 H       1  UNL1        0.0235
     40 H           6.1309   -3.2820   -2.1478 H       1  UNL1        0.0235
     41 H           4.3829   -1.2927    0.4467 H       1  UNL1        0.0572
     42 H           4.0868    0.9270   -1.6102 H       1  UNL1        0.0572
     43 H           3.0022    0.2172    1.2377 H       1  UNL1        0.0343
     44 H           4.3476    2.4924    0.2297 H       1  UNL1        0.0235
     45 H           3.4147    2.4030    1.7842 H       1  UNL1        0.0235
     46 H           2.6558    3.0108    0.2866 H       1  UNL1        0.0235
     47 H           1.4657    1.6147   -1.1018 H       1  UNL1        0.0312
     48 H           1.5477   -0.6316   -1.8214 H       1  UNL1        0.0268
     49 H           1.3848   -1.2871   -0.1640 H       1  UNL1        0.0268
     50 H          -0.9503   -1.1679   -0.5458 H       1  UNL1        0.0271
     51 H          -0.6953   -0.2867   -2.0746 H       1  UNL1        0.0271
     52 H          -0.4839    1.7970   -1.1429 H       1  UNL1        0.0351
     53 H          -3.0247    2.7336    1.2526 H       1  UNL1        0.0310
     54 H          -2.7529    1.2649    2.2079 H       1  UNL1        0.0310
     55 H          -1.2391    3.7040    2.1756 H       1  UNL1        0.0268
     56 H          -0.8958    2.1946    3.0260 H       1  UNL1        0.0268
     57 H           1.0795    2.6076    2.0161 H       1  UNL1        0.0271
     58 H           0.2969    3.2194    0.5075 H       1  UNL1        0.0271
     59 H          -0.5116   -0.7473    1.4221 H       1  UNL1        0.0235
     60 H           1.2294   -0.6104    1.7472 H       1  UNL1        0.0235
     61 H           0.1464    0.4274    2.6876 H       1  UNL1        0.0235
     62 H          -2.7613    0.0851   -1.2626 H       1  UNL1        0.0617
     63 H          -4.4889    1.3567    1.1773 H       1  UNL1        0.0620
     64 H          -7.5839    1.1796   -0.0713 H       1  UNL1        0.0338
     65 H          -6.7293    1.0268    1.5499 H       1  UNL1        0.0338
     66 H          -7.3750   -1.0796    1.8322 H       1  UNL1        0.0596
     67 H          -9.2096   -1.7177    0.7746 H       1  UNL1        0.2098
     68 H          -5.9239   -2.2358    0.3892 H       1  UNL1        0.0293
     69 H          -7.5573   -2.8092    0.0199 H       1  UNL1        0.0293
     70 H          -6.0839   -2.4302   -1.9236 H       1  UNL1        0.0314
     71 H          -7.5166   -1.2464   -2.0083 H       1  UNL1        0.0314
     72 H          -4.1978    0.0749   -3.2428 H       1  UNL1        0.0538
     73 H          -4.1966    0.0760   -3.2432 H       1  UNL1        0.0538
@<TRIPOS>BOND
     1     1     2    1
     2     2     3    1
     3     2     4    1
     4     4     5    1
     5     4     6    1
     6     6     7    2
     7     7     8    1
     8     8     9    1
     9     8    10    1
    10    10    11    1
    11    11    12    1
    12    12    13    1
    13    13    14    1
    14    14    15    1
    15    15    16    1
    16    16    17    1
    17    17    18    1
    18    18    19    1
    19    14    20    2
    20    20    21    1
    21    21    22    2
    22    22    23    1
    23    23    24    1
    24    24    25    1
    25    24    26    1
    26    26    27    1
    27    27    28    1
    28    28    29    2
    29    18    10    1
    30    28    22    1
    31    18    13    1
    32     1    30    1
    33     1    31    1
    34     1    32    1
    35     2    33    1
    36     3    34    1
    37     3    35    1
    38     3    36    1
    39     4    37    1
    40     5    38    1
    41     5    39    1
    42     5    40    1
    43     6    41    1
    44     7    42    1
    45     8    43    1
    46     9    44    1
    47     9    45    1
    48     9    46    1
    49    10    47    1
    50    11    48    1
    51    11    49    1
    52    12    50    1
    53    12    51    1
    54    13    52    1
    55    15    53    1
    56    15    54    1
    57    16    55    1
    58    16    56    1
    59    17    57    1
    60    17    58    1
    61    19    59    1
    62    19    60    1
    63    19    61    1
    64    20    62    1
    65    21    63    1
    66    23    64    1
    67    23    65    1
    68    24    66    1
    69    25    67    1
    70    26    68    1
    71    26    69    1
    72    27    70    1
    73    27    71    1
    74    29    72    1
    75    29    73    1
