@<TRIPOS>MOLECULE
*****
 35 34 0 0 0
SMALL
GASTEIGER

@<TRIPOS>ATOM
      1 C          -3.8562    1.5180   -0.5119 C.3     1  UNL1       -0.0653
      2 C          -3.8823    0.0154   -0.5149 C.3     1  UNL1       -0.0559
      3 C          -3.3468   -0.5611    0.7720 C.3     1  UNL1       -0.0533
      4 C          -1.9373   -0.1793    1.0591 C.3     1  UNL1       -0.0530
      5 C          -0.9607   -0.6197    0.0061 C.3     1  UNL1       -0.0523
      6 C           0.4151   -0.1575    0.4455 C.3     1  UNL1       -0.0401
      7 C           1.4452   -0.5805   -0.5914 C.3     1  UNL1        0.0563
      8 C           2.8278   -0.1541   -0.2177 C.3     1  UNL1       -0.0404
      9 C           2.9919    1.3372   -0.0673 C.3     1  UNL1       -0.0552
     10 C           4.4593    1.5497    0.3118 C.3     1  UNL1       -0.0653
     11 C           1.4481   -2.0839   -0.5398 C.2     1  UNL1        0.3078
     12 O           1.7931   -2.5828    0.7095 O.3     1  UNL1       -0.4804
     13 O           1.1890   -2.9299   -1.4449 O.2     1  UNL1       -0.2507
     14 H          -4.5552    1.9577   -1.2340 H       1  UNL1        0.0230
     15 H          -2.8277    1.8813   -0.7733 H       1  UNL1        0.0230
     16 H          -4.0805    1.8320    0.5295 H       1  UNL1        0.0230
     17 H          -3.3401   -0.3288   -1.4099 H       1  UNL1        0.0263
     18 H          -4.9405   -0.3067   -0.6046 H       1  UNL1        0.0263
     19 H          -3.5124   -1.6468    0.8525 H       1  UNL1        0.0265
     20 H          -3.9698   -0.1065    1.5904 H       1  UNL1        0.0265
     21 H          -1.8128    0.8787    1.3069 H       1  UNL1        0.0265
     22 H          -1.6438   -0.7490    1.9854 H       1  UNL1        0.0265
     23 H          -1.1426   -0.1380   -0.9782 H       1  UNL1        0.0265
     24 H          -0.9312   -1.7191   -0.0792 H       1  UNL1        0.0265
     25 H           0.3381    0.9563    0.4958 H       1  UNL1        0.0273
     26 H           0.6698   -0.5478    1.4353 H       1  UNL1        0.0273
     27 H           1.1492   -0.2263   -1.5820 H       1  UNL1        0.0413
     28 H           3.5028   -0.4756   -1.0281 H       1  UNL1        0.0273
     29 H           3.0754   -0.6395    0.7460 H       1  UNL1        0.0273
     30 H           2.4125    1.7603    0.7638 H       1  UNL1        0.0263
     31 H           2.8199    1.8302   -1.0310 H       1  UNL1        0.0263
     32 H           5.1046    0.9074   -0.3302 H       1  UNL1        0.0230
     33 H           4.5770    1.2764    1.3786 H       1  UNL1        0.0230
     34 H           4.6850    2.6125    0.2023 H       1  UNL1        0.0230
     35 H           1.8358   -3.5804    0.8640 H       1  UNL1        0.2951
@<TRIPOS>BOND
     1     1     2    1
     2     2     3    1
     3     3     4    1
     4     4     5    1
     5     5     6    1
     6     6     7    1
     7     7     8    1
     8     8     9    1
     9     9    10    1
    10     7    11    1
    11    11    12    1
    12    11    13    2
    13     1    14    1
    14     1    15    1
    15     1    16    1
    16     2    17    1
    17     2    18    1
    18     3    19    1
    19     3    20    1
    20     4    21    1
    21     4    22    1
    22     5    23    1
    23     5    24    1
    24     6    25    1
    25     6    26    1
    26     7    27    1
    27     8    28    1
    28     8    29    1
    29     9    30    1
    30     9    31    1
    31    10    32    1
    32    10    33    1
    33    10    34    1
    34    12    35    1
