@<TRIPOS>MOLECULE
*****
 53 56 0 0 0
SMALL
GASTEIGER

@<TRIPOS>ATOM
      1 C          -4.1091    2.8015   -1.0704 C.3     1  UNL1       -0.0348
      2 C          -4.4282    1.3983   -1.5227 C.3     1  UNL1        0.0815
      3 C          -5.9316    1.2408   -1.7299 C.3     1  UNL1       -0.0348
      4 O          -3.8587    1.2601   -2.8134 O.3     1  UNL1       -0.3875
      5 C          -3.8863    0.3212   -0.6306 C.3     1  UNL1        0.1257
      6 S          -4.2927   -1.3694   -1.2289 S.3     1  UNL1       -0.0749
      7 C          -3.3576   -2.4716   -0.1852 C.2     1  UNL1        0.1483
      8 N          -3.8518   -3.7555    0.0987 N.pl3   1  UNL1       -0.3380
      9 N          -2.2426   -2.0409    0.2797 N.2     1  UNL1       -0.2519
     10 C          -1.7159   -0.7427    0.0093 C.3     1  UNL1        0.0988
     11 C          -1.1763   -0.6698   -1.4377 C.3     1  UNL1       -0.0350
     12 C          -0.5214   -0.5499    0.8897 C.ar    1  UNL1        0.0159
     13 C           0.7530   -0.2949    0.3766 C.ar    1  UNL1       -0.0463
     14 C           1.8297   -0.1247    1.2219 C.ar    1  UNL1       -0.0217
     15 C           3.1597    0.1519    0.6843 C.2     1  UNL1       -0.0172
     16 C           4.2665   -0.3975    1.1852 C.2     1  UNL1        0.1492
     17 F           4.1328   -1.2386    2.2263 F       1  UNL1       -0.2032
     18 C           5.5854   -0.1084    0.6412 C.ar    1  UNL1        0.0990
     19 C           6.7059   -0.7019    1.1704 C.ar    1  UNL1       -0.0322
     20 C           7.9686   -0.4420    0.6722 C.ar    1  UNL1       -0.0408
     21 C           8.0708    0.4387   -0.3811 C.ar    1  UNL1        0.0699
     22 C           9.4023    0.7141   -0.9211 C.1     1  UNL1        0.1007
     23 N          10.4521    0.9109   -1.3424 N.1     1  UNL1       -0.1908
     24 C           6.9470    1.0231   -0.8985 C.ar    1  UNL1        0.0457
     25 N           5.7209    0.7577   -0.3995 N.ar    1  UNL1       -0.2514
     26 C           1.6033   -0.2146    2.5786 C.ar    1  UNL1       -0.0518
     27 C           0.3555   -0.4649    3.1030 C.ar    1  UNL1       -0.0255
     28 C          -0.7296   -0.6367    2.2509 C.ar    1  UNL1        0.1289
     29 F          -1.9452   -0.8903    2.7893 F       1  UNL1       -0.2051
     30 C          -2.6497    0.4054    0.1406 C.3     1  UNL1        0.0762
     31 C          -3.9107    0.4587    0.8579 C.3     1  UNL1        0.2736
     32 F          -4.5382   -0.5523    1.5078 F       1  UNL1       -0.2036
     33 F          -4.2546    1.7127    1.3949 F       1  UNL1       -0.2036
     34 H          -4.7695    3.1751   -0.2613 H       1  UNL1        0.0258
     35 H          -4.3020    3.4434   -1.9906 H       1  UNL1        0.0258
     36 H          -3.0405    2.8799   -0.8872 H       1  UNL1        0.0258
     37 H          -6.1967    0.9463   -2.7633 H       1  UNL1        0.0258
     38 H          -6.3567    0.4860   -1.0460 H       1  UNL1        0.0258
     39 H          -6.4222    2.2311   -1.5507 H       1  UNL1        0.0258
     40 H          -4.3208    0.4499   -3.2002 H       1  UNL1        0.2102
     41 H          -4.5668   -4.1786   -0.5216 H       1  UNL1        0.1442
     42 H          -3.5270   -4.3143    0.9202 H       1  UNL1        0.1442
     43 H          -0.4387   -1.4462   -1.6430 H       1  UNL1        0.0256
     44 H          -0.8342    0.3752   -1.5751 H       1  UNL1        0.0256
     45 H          -2.0334   -0.7649   -2.1629 H       1  UNL1        0.0256
     46 H           0.8702   -0.2354   -0.7081 H       1  UNL1        0.0628
     47 H           3.3241    0.8311   -0.1649 H       1  UNL1        0.0653
     48 H           6.6358   -1.3937    1.9983 H       1  UNL1        0.0640
     49 H           8.8711   -0.8979    1.0738 H       1  UNL1        0.0631
     50 H           7.0103    1.7114   -1.7177 H       1  UNL1        0.0843
     51 H           2.4448   -0.0811    3.2403 H       1  UNL1        0.0624
     52 H           0.1864   -0.5359    4.1870 H       1  UNL1        0.0646
     53 H          -2.0875    1.3903    0.0345 H       1  UNL1        0.0402
@<TRIPOS>BOND
     1     1     2    1
     2     2     3    1
     3     2     4    1
     4     5     2    1
     5     5     6    1
     6     6     7    1
     7     7     8    1
     8     7     9    2
     9     9    10    1
    10    10    11    1
    11    10    12    1
    12    12    13   ar
    13    13    14   ar
    14    14    15    1
    15    15    16    2
    16    16    17    1
    17    16    18    1
    18    18    19   ar
    19    19    20   ar
    20    20    21   ar
    21    21    22    1
    22    22    23    3
    23    21    24   ar
    24    24    25   ar
    25    14    26   ar
    26    26    27   ar
    27    27    28   ar
    28    28    29    1
    29    10    30    1
    30    30    31    1
    31    31    32    1
    32    31    33    1
    33    30     5    1
    34    31     5    1
    35    28    12   ar
    36    25    18   ar
    37     1    34    1
    38     1    35    1
    39     1    36    1
    40     3    37    1
    41     3    38    1
    42     3    39    1
    43     4    40    1
    44     8    41    1
    45     8    42    1
    46    11    43    1
    47    11    44    1
    48    11    45    1
    49    13    46    1
    50    15    47    1
    51    19    48    1
    52    20    49    1
    53    24    50    1
    54    26    51    1
    55    27    52    1
    56    30    53    1
