
     RDKit          3D

 47 50  0  0  0  0  0  0  0  0999 V2000
    1.8236   -0.7277   -0.0365 C   0  0  2  0  0  0  0  0  0  0  0  0
    2.7930   -1.4390    0.8102 C   0  0  0  0  0  0  0  0  0  0  0  0
    4.1018   -1.1918    0.0684 C   0  0  0  0  0  0  0  0  0  0  0  0
    3.8170   -0.0595   -0.8892 C   0  0  0  0  0  0  0  0  0  0  0  0
    4.5236    0.2186   -1.8149 O   0  0  0  0  0  0  0  0  0  0  0  0
    2.5677    0.5418   -0.4212 C   0  0  2  0  0  0  0  0  0  0  0  0
    2.8265    1.4354    0.7463 C   0  0  0  0  0  0  0  0  0  0  0  0
    1.7547    1.1801   -1.5185 C   0  0  0  0  0  0  0  0  0  0  0  0
    0.3376    1.4274   -1.1067 C   0  0  0  0  0  0  0  0  0  0  0  0
   -0.3166    0.1086   -0.6706 C   0  0  1  0  0  0  0  0  0  0  0  0
    0.5241   -0.3266    0.5125 C   0  0  1  0  0  0  0  0  0  0  0  0
   -0.1514   -1.3046    1.4147 C   0  0  0  0  0  0  0  0  0  0  0  0
   -1.3237   -0.4985    1.9971 C   0  0  0  0  0  0  0  0  0  0  0  0
   -2.2498   -0.2939    0.8479 C   0  0  0  0  0  0  0  0  0  0  0  0
   -3.5340   -0.5611    1.0227 C   0  0  0  0  0  0  0  0  0  0  0  0
   -4.4912   -0.3825   -0.0599 C   0  0  0  0  0  0  0  0  0  0  0  0
   -5.6854   -0.1346    0.1505 O   0  0  0  0  0  0  0  0  0  0  0  0
   -3.9732   -0.5109   -1.4457 C   0  0  0  0  0  0  0  0  0  0  0  0
   -2.4912   -0.6531   -1.5014 C   0  0  0  0  0  0  0  0  0  0  0  0
   -1.7632    0.1889   -0.4437 C   0  0  2  0  0  0  0  0  0  0  0  0
   -2.2294    1.6177   -0.7117 C   0  0  0  0  0  0  0  0  0  0  0  0
    1.6846   -1.2921   -0.9810 H   0  0  0  0  0  0  0  0  0  0  0  0
    2.5930   -2.5449    0.7108 H   0  0  0  0  0  0  0  0  0  0  0  0
    2.8269   -1.1941    1.8701 H   0  0  0  0  0  0  0  0  0  0  0  0
    4.4171   -2.0609   -0.5243 H   0  0  0  0  0  0  0  0  0  0  0  0
    4.8415   -0.8486    0.8069 H   0  0  0  0  0  0  0  0  0  0  0  0
    3.8434    1.8918    0.6375 H   0  0  0  0  0  0  0  0  0  0  0  0
    2.1223    2.2794    0.8605 H   0  0  0  0  0  0  0  0  0  0  0  0
    2.8496    0.9240    1.7228 H   0  0  0  0  0  0  0  0  0  0  0  0
    1.7479    0.4759   -2.3712 H   0  0  0  0  0  0  0  0  0  0  0  0
    2.2098    2.1311   -1.8335 H   0  0  0  0  0  0  0  0  0  0  0  0
   -0.1779    1.8915   -1.9586 H   0  0  0  0  0  0  0  0  0  0  0  0
    0.3731    2.1104   -0.2079 H   0  0  0  0  0  0  0  0  0  0  0  0
   -0.0735   -0.5833   -1.5305 H   0  0  0  0  0  0  0  0  0  0  0  0
    0.6907    0.5980    1.1402 H   0  0  0  0  0  0  0  0  0  0  0  0
    0.5295   -1.5296    2.2323 H   0  0  0  0  0  0  0  0  0  0  0  0
   -0.4932   -2.2132    0.9148 H   0  0  0  0  0  0  0  0  0  0  0  0
   -1.7936   -1.0056    2.8383 H   0  0  0  0  0  0  0  0  0  0  0  0
   -0.9287    0.5054    2.2607 H   0  0  0  0  0  0  0  0  0  0  0  0
   -3.8938   -0.9246    1.9983 H   0  0  0  0  0  0  0  0  0  0  0  0
   -4.3979   -1.4842   -1.8305 H   0  0  0  0  0  0  0  0  0  0  0  0
   -4.3862    0.2900   -2.0969 H   0  0  0  0  0  0  0  0  0  0  0  0
   -2.1182   -1.6916   -1.5117 H   0  0  0  0  0  0  0  0  0  0  0  0
   -2.1502   -0.2099   -2.4793 H   0  0  0  0  0  0  0  0  0  0  0  0
   -3.3185    1.7478   -0.4617 H   0  0  0  0  0  0  0  0  0  0  0  0
   -2.2080    1.7430   -1.8280 H   0  0  0  0  0  0  0  0  0  0  0  0
   -1.6505    2.3598   -0.1621 H   0  0  0  0  0  0  0  0  0  0  0  0
  1  2  1  0
  2  3  1  0
  3  4  1  0
  4  5  2  0
  4  6  1  0
  6  7  1  1
  6  8  1  0
  8  9  1  0
  9 10  1  0
 10 11  1  0
 11 12  1  0
 12 13  1  0
 13 14  1  0
 14 15  2  0
 15 16  1  0
 16 17  2  0
 16 18  1  0
 18 19  1  0
 19 20  1  0
 20 21  1  6
  6  1  1  0
 20 10  1  0
 11  1  1  0
 20 14  1  0
  1 22  1  6
  2 23  1  0
  2 24  1  0
  3 25  1  0
  3 26  1  0
  7 27  1  0
  7 28  1  0
  7 29  1  0
  8 30  1  0
  8 31  1  0
  9 32  1  0
  9 33  1  0
 10 34  1  6
 11 35  1  1
 12 36  1  0
 12 37  1  0
 13 38  1  0
 13 39  1  0
 15 40  1  0
 18 41  1  0
 18 42  1  0
 19 43  1  0
 19 44  1  0
 21 45  1  0
 21 46  1  0
 21 47  1  0
M  END
$$$$
