@<TRIPOS>MOLECULE
*****
 52 55 0 0 0
SMALL
GASTEIGER

@<TRIPOS>ATOM
      1 N          -6.9126   -0.8270   -0.8262 N.3     1  UNL1       -0.3272
      2 C          -5.8037   -1.5261   -0.2522 C.3     1  UNL1        0.0049
      3 C          -4.5827   -1.2945   -1.0767 C.3     1  UNL1       -0.0363
      4 C          -4.0952    0.1399   -0.8343 C.3     1  UNL1       -0.0361
      5 C          -3.6284    0.1941    0.5870 C.3     1  UNL1        0.0080
      6 N          -2.8912    1.2815    1.0408 N.3     1  UNL1       -0.3099
      7 C          -1.6160    1.6307    0.6478 C.3     1  UNL1        0.0153
      8 C          -1.3631    2.1802   -0.7385 C.3     1  UNL1       -0.0287
      9 C          -0.8380    0.8148   -0.3252 C.3     1  UNL1        0.0010
     10 C           0.6366    0.7569   -0.2203 C.ar    1  UNL1       -0.0427
     11 C           1.2892   -0.3840   -0.6240 C.ar    1  UNL1       -0.0577
     12 C           2.6601   -0.5242   -0.5613 C.ar    1  UNL1       -0.0538
     13 C           3.4207    0.5129   -0.0765 C.ar    1  UNL1       -0.0179
     14 C           4.8620    0.3475   -0.0157 C.ar    1  UNL1       -0.0174
     15 C           5.7507    1.3895   -0.1643 C.ar    1  UNL1       -0.0540
     16 C           7.1076    1.1630   -0.0924 C.ar    1  UNL1       -0.0607
     17 C           7.6081   -0.1015    0.1283 C.ar    1  UNL1       -0.0501
     18 C           6.7149   -1.1498    0.2778 C.ar    1  UNL1        0.0554
     19 C           7.2205   -2.5268    0.5171 C.3     1  UNL1        0.4174
     20 F           7.7319   -2.9715   -0.7021 F       1  UNL1       -0.1659
     21 F           6.2091   -3.3454    0.9723 F       1  UNL1       -0.1659
     22 F           8.2202   -2.5090    1.4862 F       1  UNL1       -0.1659
     23 C           5.3622   -0.9151    0.2048 C.ar    1  UNL1       -0.0424
     24 C           2.7825    1.6665    0.3337 C.ar    1  UNL1       -0.0538
     25 C           1.4005    1.7909    0.2636 C.ar    1  UNL1       -0.0577
     26 C          -4.9424    0.1212    1.4214 C.3     1  UNL1       -0.0361
     27 C          -5.5903   -1.2057    1.2100 C.3     1  UNL1       -0.0363
     28 H          -7.7222   -1.4192   -1.0805 H       1  UNL1        0.1185
     29 H          -7.1465    0.0704   -0.3745 H       1  UNL1        0.1185
     30 H          -6.0466   -2.6265   -0.3008 H       1  UNL1        0.0458
     31 H          -3.7477   -1.9551   -0.7920 H       1  UNL1        0.0281
     32 H          -4.8378   -1.3713   -2.1377 H       1  UNL1        0.0281
     33 H          -3.4086    0.4539   -1.6045 H       1  UNL1        0.0281
     34 H          -5.0407    0.7526   -0.9095 H       1  UNL1        0.0281
     35 H          -3.1441   -0.7956    0.8398 H       1  UNL1        0.0460
     36 H          -3.4367    2.0224    1.5214 H       1  UNL1        0.1225
     37 H          -0.9974    2.1132    1.4876 H       1  UNL1        0.0466
     38 H          -2.1457    2.3013   -1.4758 H       1  UNL1        0.0287
     39 H          -0.6202    3.0258   -0.7468 H       1  UNL1        0.0287
     40 H          -1.3084   -0.1020   -0.7209 H       1  UNL1        0.0364
     41 H           0.7112   -1.2206   -1.0120 H       1  UNL1        0.0621
     42 H           3.1486   -1.4175   -0.8811 H       1  UNL1        0.0624
     43 H           5.3597    2.4002   -0.3403 H       1  UNL1        0.0624
     44 H           7.8266    1.9711   -0.2068 H       1  UNL1        0.0618
     45 H           8.6880   -0.2481    0.1798 H       1  UNL1        0.0623
     46 H           4.7202   -1.7960    0.3351 H       1  UNL1        0.0629
     47 H           3.3856    2.4695    0.7103 H       1  UNL1        0.0624
     48 H           0.8890    2.6867    0.5807 H       1  UNL1        0.0621
     49 H          -4.6595    0.2247    2.4747 H       1  UNL1        0.0281
     50 H          -5.6033    0.9594    1.1343 H       1  UNL1        0.0281
     51 H          -4.9874   -1.9951    1.6974 H       1  UNL1        0.0281
     52 H          -6.5891   -1.2131    1.6846 H       1  UNL1        0.0281
@<TRIPOS>BOND
     1     1     2    1
     2     2     3    1
     3     3     4    1
     4     4     5    1
     5     5     6    1
     6     6     7    1
     7     7     8    1
     8     8     9    1
     9     9    10    1
    10    10    11   ar
    11    11    12   ar
    12    12    13   ar
    13    13    14    1
    14    14    15   ar
    15    15    16   ar
    16    16    17   ar
    17    17    18   ar
    18    18    19    1
    19    19    20    1
    20    19    21    1
    21    19    22    1
    22    18    23   ar
    23    13    24   ar
    24    24    25   ar
    25     5    26    1
    26    26    27    1
    27    27     2    1
    28     9     7    1
    29    25    10   ar
    30    23    14   ar
    31     1    28    1
    32     1    29    1
    33     2    30    1
    34     3    31    1
    35     3    32    1
    36     4    33    1
    37     4    34    1
    38     5    35    1
    39     6    36    1
    40     7    37    1
    41     8    38    1
    42     8    39    1
    43     9    40    1
    44    11    41    1
    45    12    42    1
    46    15    43    1
    47    16    44    1
    48    17    45    1
    49    23    46    1
    50    24    47    1
    51    25    48    1
    52    26    49    1
    53    26    50    1
    54    27    51    1
    55    27    52    1
