
     RDKit          3D

 52 55  0  0  0  0  0  0  0  0999 V2000
   -6.9126   -0.8270   -0.8262 N   0  0  0  0  0  0  0  0  0  0  0  0
   -5.8037   -1.5261   -0.2522 C   0  0  1  0  0  0  0  0  0  0  0  0
   -4.5827   -1.2945   -1.0767 C   0  0  0  0  0  0  0  0  0  0  0  0
   -4.0952    0.1399   -0.8343 C   0  0  0  0  0  0  0  0  0  0  0  0
   -3.6284    0.1941    0.5870 C   0  0  1  0  0  0  0  0  0  0  0  0
   -2.8912    1.2815    1.0408 N   0  0  0  0  0  0  0  0  0  0  0  0
   -1.6160    1.6307    0.6478 C   0  0  2  0  0  0  0  0  0  0  0  0
   -1.3631    2.1802   -0.7385 C   0  0  0  0  0  0  0  0  0  0  0  0
   -0.8380    0.8148   -0.3252 C   0  0  1  0  0  0  0  0  0  0  0  0
    0.6366    0.7569   -0.2203 C   0  0  0  0  0  0  0  0  0  0  0  0
    1.2892   -0.3840   -0.6240 C   0  0  0  0  0  0  0  0  0  0  0  0
    2.6601   -0.5242   -0.5613 C   0  0  0  0  0  0  0  0  0  0  0  0
    3.4207    0.5129   -0.0765 C   0  0  0  0  0  0  0  0  0  0  0  0
    4.8620    0.3475   -0.0157 C   0  0  0  0  0  0  0  0  0  0  0  0
    5.7507    1.3895   -0.1643 C   0  0  0  0  0  0  0  0  0  0  0  0
    7.1076    1.1630   -0.0924 C   0  0  0  0  0  0  0  0  0  0  0  0
    7.6081   -0.1015    0.1283 C   0  0  0  0  0  0  0  0  0  0  0  0
    6.7149   -1.1498    0.2778 C   0  0  0  0  0  0  0  0  0  0  0  0
    7.2205   -2.5268    0.5171 C   0  0  0  0  0  0  0  0  0  0  0  0
    7.7319   -2.9715   -0.7021 F   0  0  0  0  0  0  0  0  0  0  0  0
    6.2091   -3.3454    0.9723 F   0  0  0  0  0  0  0  0  0  0  0  0
    8.2202   -2.5090    1.4862 F   0  0  0  0  0  0  0  0  0  0  0  0
    5.3622   -0.9151    0.2048 C   0  0  0  0  0  0  0  0  0  0  0  0
    2.7825    1.6665    0.3337 C   0  0  0  0  0  0  0  0  0  0  0  0
    1.4005    1.7909    0.2636 C   0  0  0  0  0  0  0  0  0  0  0  0
   -4.9424    0.1212    1.4214 C   0  0  0  0  0  0  0  0  0  0  0  0
   -5.5903   -1.2057    1.2100 C   0  0  0  0  0  0  0  0  0  0  0  0
   -7.7222   -1.4192   -1.0805 H   0  0  0  0  0  0  0  0  0  0  0  0
   -7.1465    0.0704   -0.3745 H   0  0  0  0  0  0  0  0  0  0  0  0
   -6.0466   -2.6265   -0.3008 H   0  0  0  0  0  0  0  0  0  0  0  0
   -3.7477   -1.9551   -0.7920 H   0  0  0  0  0  0  0  0  0  0  0  0
   -4.8378   -1.3713   -2.1377 H   0  0  0  0  0  0  0  0  0  0  0  0
   -3.4086    0.4539   -1.6045 H   0  0  0  0  0  0  0  0  0  0  0  0
   -5.0407    0.7526   -0.9095 H   0  0  0  0  0  0  0  0  0  0  0  0
   -3.1441   -0.7956    0.8398 H   0  0  0  0  0  0  0  0  0  0  0  0
   -3.4367    2.0224    1.5214 H   0  0  0  0  0  0  0  0  0  0  0  0
   -0.9974    2.1132    1.4876 H   0  0  0  0  0  0  0  0  0  0  0  0
   -2.1457    2.3013   -1.4758 H   0  0  0  0  0  0  0  0  0  0  0  0
   -0.6202    3.0258   -0.7468 H   0  0  0  0  0  0  0  0  0  0  0  0
   -1.3084   -0.1020   -0.7209 H   0  0  0  0  0  0  0  0  0  0  0  0
    0.7112   -1.2206   -1.0120 H   0  0  0  0  0  0  0  0  0  0  0  0
    3.1486   -1.4175   -0.8811 H   0  0  0  0  0  0  0  0  0  0  0  0
    5.3597    2.4002   -0.3403 H   0  0  0  0  0  0  0  0  0  0  0  0
    7.8266    1.9711   -0.2068 H   0  0  0  0  0  0  0  0  0  0  0  0
    8.6880   -0.2481    0.1798 H   0  0  0  0  0  0  0  0  0  0  0  0
    4.7202   -1.7960    0.3351 H   0  0  0  0  0  0  0  0  0  0  0  0
    3.3856    2.4695    0.7103 H   0  0  0  0  0  0  0  0  0  0  0  0
    0.8890    2.6867    0.5807 H   0  0  0  0  0  0  0  0  0  0  0  0
   -4.6595    0.2247    2.4747 H   0  0  0  0  0  0  0  0  0  0  0  0
   -5.6033    0.9594    1.1343 H   0  0  0  0  0  0  0  0  0  0  0  0
   -4.9874   -1.9951    1.6974 H   0  0  0  0  0  0  0  0  0  0  0  0
   -6.5891   -1.2131    1.6846 H   0  0  0  0  0  0  0  0  0  0  0  0
  1  2  1  0
  2  3  1  0
  3  4  1  0
  4  5  1  0
  5  6  1  0
  6  7  1  0
  7  8  1  0
  8  9  1  0
  9 10  1  0
 10 11  2  0
 11 12  1  0
 12 13  2  0
 13 14  1  0
 14 15  2  0
 15 16  1  0
 16 17  2  0
 17 18  1  0
 18 19  1  0
 19 20  1  0
 19 21  1  0
 19 22  1  0
 18 23  2  0
 13 24  1  0
 24 25  2  0
  5 26  1  0
 26 27  1  0
 27  2  1  0
  9  7  1  0
 25 10  1  0
 23 14  1  0
  1 28  1  0
  1 29  1  0
  2 30  1  1
  3 31  1  0
  3 32  1  0
  4 33  1  0
  4 34  1  0
  5 35  1  1
  6 36  1  0
  7 37  1  1
  8 38  1  0
  8 39  1  0
  9 40  1  6
 11 41  1  0
 12 42  1  0
 15 43  1  0
 16 44  1  0
 17 45  1  0
 23 46  1  0
 24 47  1  0
 25 48  1  0
 26 49  1  0
 26 50  1  0
 27 51  1  0
 27 52  1  0
M  END
$$$$
