
     RDKit          3D

 42 44  0  0  0  0  0  0  0  0999 V2000
   -6.7623   -0.5052    0.2811 C   0  0  0  0  0  0  0  0  0  0  0  0
   -6.0340    0.6677   -0.2254 N   0  0  0  0  0  0  0  0  0  0  0  0
   -6.7447    1.8389   -0.7022 C   0  0  0  0  0  0  0  0  0  0  0  0
   -4.6133    0.6458   -0.2448 C   0  0  0  0  0  0  0  0  0  0  0  0
   -3.8869    1.7192   -0.7096 C   0  0  0  0  0  0  0  0  0  0  0  0
   -2.5161    1.7082   -0.7325 C   0  0  0  0  0  0  0  0  0  0  0  0
   -1.7647    0.6130   -0.2882 C   0  0  0  0  0  0  0  0  0  0  0  0
   -0.3561    0.6517   -0.3326 N   0  0  0  0  0  0  0  0  0  0  0  0
    0.5485   -0.3604    0.0756 C   0  0  0  0  0  0  0  0  0  0  0  0
    1.8482   -0.1028   -0.0570 N   0  0  0  0  0  0  0  0  0  0  0  0
    2.8595   -0.9133    0.2652 C   0  0  0  0  0  0  0  0  0  0  0  0
    2.4081   -2.1033    0.7742 C   0  0  0  0  0  0  0  0  0  0  0  0
    1.0996   -2.4695    0.9527 C   0  0  0  0  0  0  0  0  0  0  0  0
    0.1998   -1.5474    0.5815 N   0  0  0  0  0  0  0  0  0  0  0  0
    4.2189   -0.4251    0.0383 C   0  0  0  0  0  0  0  0  0  0  0  0
    5.4928   -0.9193    0.2390 C   0  0  0  0  0  0  0  0  0  0  0  0
    5.7033   -2.2688    0.8225 C   0  0  0  0  0  0  0  0  0  0  0  0
    6.4586   -0.1082   -0.1218 N   0  0  0  0  0  0  0  0  0  0  0  0
    6.4280    0.9426   -0.5761 C   0  0  0  0  0  0  0  0  0  0  0  0
    7.4191    1.9563   -1.0246 C   0  0  0  0  0  0  0  0  0  0  0  0
    4.5502    1.1710   -0.6555 S   0  0  0  0  0  0  0  0  0  0  0  0
   -2.5517   -0.4193    0.1605 C   0  0  0  0  0  0  0  0  0  0  0  0
   -3.9264   -0.4604    0.2054 C   0  0  0  0  0  0  0  0  0  0  0  0
   -6.4783   -0.6483    1.3633 H   0  0  0  0  0  0  0  0  0  0  0  0
   -6.3784   -1.3686   -0.2715 H   0  0  0  0  0  0  0  0  0  0  0  0
   -7.8382   -0.3711    0.1582 H   0  0  0  0  0  0  0  0  0  0  0  0
   -6.7119    1.9336   -1.8029 H   0  0  0  0  0  0  0  0  0  0  0  0
   -7.8076    1.7200   -0.4107 H   0  0  0  0  0  0  0  0  0  0  0  0
   -6.2901    2.7513   -0.2770 H   0  0  0  0  0  0  0  0  0  0  0  0
   -4.4163    2.6051   -1.0705 H   0  0  0  0  0  0  0  0  0  0  0  0
   -2.0161    2.6095   -1.1206 H   0  0  0  0  0  0  0  0  0  0  0  0
    0.0429    1.5577   -0.7223 H   0  0  0  0  0  0  0  0  0  0  0  0
    3.1479   -2.8049    1.0544 H   0  0  0  0  0  0  0  0  0  0  0  0
    0.8646   -3.4378    1.3644 H   0  0  0  0  0  0  0  0  0  0  0  0
    6.7869   -2.5030    0.9449 H   0  0  0  0  0  0  0  0  0  0  0  0
    5.2626   -3.0481    0.2026 H   0  0  0  0  0  0  0  0  0  0  0  0
    5.2405   -2.2734    1.8296 H   0  0  0  0  0  0  0  0  0  0  0  0
    8.1575    2.0344   -0.2085 H   0  0  0  0  0  0  0  0  0  0  0  0
    6.9458    2.9462   -1.1922 H   0  0  0  0  0  0  0  0  0  0  0  0
    7.9601    1.6193   -1.9325 H   0  0  0  0  0  0  0  0  0  0  0  0
   -2.0796   -1.3158    0.5270 H   0  0  0  0  0  0  0  0  0  0  0  0
   -4.4708   -1.3175    0.5757 H   0  0  0  0  0  0  0  0  0  0  0  0
  1  2  1  0
  2  3  1  0
  2  4  1  0
  4  5  2  0
  5  6  1  0
  6  7  2  0
  7  8  1  0
  8  9  1  0
  9 10  2  0
 10 11  1  0
 11 12  2  0
 12 13  1  0
 13 14  2  0
 11 15  1  0
 15 16  2  0
 16 17  1  0
 16 18  1  0
 18 19  2  0
 19 20  1  0
 19 21  1  0
  7 22  1  0
 22 23  2  0
 23  4  1  0
 14  9  1  0
 21 15  1  0
  1 24  1  0
  1 25  1  0
  1 26  1  0
  3 27  1  0
  3 28  1  0
  3 29  1  0
  5 30  1  0
  6 31  1  0
  8 32  1  0
 12 33  1  0
 13 34  1  0
 17 35  1  0
 17 36  1  0
 17 37  1  0
 20 38  1  0
 20 39  1  0
 20 40  1  0
 22 41  1  0
 23 42  1  0
M  END
$$$$
