@<TRIPOS>MOLECULE
*****
 53 56 0 0 0
SMALL
GASTEIGER

@<TRIPOS>ATOM
      1 C          -7.5916    0.9854    1.3061 C.3     1  UNL1       -0.0444
      2 C          -6.9448   -0.0725    0.4069 C.3     1  UNL1        0.0308
      3 C          -7.5315   -1.4302    0.5724 C.3     1  UNL1       -0.0444
      4 N          -7.0538    0.4159   -0.9663 N.ar    1  UNL1       -0.3212
      5 C          -8.1077    0.8555   -1.5985 C.ar    1  UNL1        0.0970
      6 N          -7.7941    1.1977   -2.8356 N.ar    1  UNL1       -0.2428
      7 C          -6.4745    0.9643   -2.9971 C.ar    1  UNL1        0.0613
      8 C          -5.9183    0.4401   -1.7939 C.ar    1  UNL1        0.1128
      9 C          -4.7250    0.0297   -1.5595 C.1     1  UNL1       -0.0414
     10 C          -3.6590   -0.3243   -1.3359 C.1     1  UNL1       -0.0594
     11 C          -2.0087   -0.8806   -1.0161 C.ar    1  UNL1        0.0288
     12 C          -2.1408   -1.9595   -0.4621 C.ar    1  UNL1       -0.0454
     13 C          -0.7040   -2.2064    0.0876 C.ar    1  UNL1       -0.0462
     14 C           0.2049   -1.1856   -0.2116 C.ar    1  UNL1        0.0646
     15 C           1.5440   -1.3223    0.2408 C.ar    1  UNL1        0.2001
     16 O           1.8145   -2.3707    0.8946 O.2     1  UNL1       -0.2864
     17 C           2.5062   -0.3595   -0.0256 C.ar    1  UNL1        0.0643
     18 C           3.8728   -0.3987    0.4422 C.ar    1  UNL1       -0.0112
     19 C           4.6456    0.7281    0.2147 C.ar    1  UNL1       -0.0520
     20 C           5.9759    0.7467    0.6392 C.ar    1  UNL1       -0.0388
     21 C           6.5559   -0.2684    1.2631 C.ar    1  UNL1        0.0477
     22 N           7.9318   -0.2657    1.6182 N.pl3   1  UNL1       -0.2209
     23 S           9.0765    0.7600    0.8850 S.O2    1  UNL1        0.0403
     24 C           8.7906    2.4919    1.1592 C.3     1  UNL1        0.0736
     25 O           9.1481    0.5174   -0.6149 O.2     1  UNL1       -0.1555
     26 O          10.4807    0.4489    1.4101 O.2     1  UNL1       -0.1555
     27 C           5.7793   -1.4123    1.5001 C.ar    1  UNL1       -0.0388
     28 C           4.4635   -1.4604    1.0903 C.ar    1  UNL1       -0.0520
     29 C           2.1088    0.7566   -0.7545 C.ar    1  UNL1        0.1038
     30 O           0.8476    0.8638   -1.1596 O.2     1  UNL1       -0.4621
     31 C          -0.0094   -0.0295   -0.9070 C.ar    1  UNL1        0.1396
     32 C          -1.3956    0.2137   -1.4392 C.ar    1  UNL1       -0.0032
     33 H          -7.0854    1.0307    2.2894 H       1  UNL1        0.0249
     34 H          -7.4868    1.9838    0.8529 H       1  UNL1        0.0249
     35 H          -8.6663    0.7422    1.4931 H       1  UNL1        0.0249
     36 H          -5.8607   -0.1477    0.6983 H       1  UNL1        0.0523
     37 H          -6.7878   -2.0705    1.0909 H       1  UNL1        0.0249
     38 H          -7.7490   -1.9086   -0.4441 H       1  UNL1        0.0249
     39 H          -8.4546   -1.3430    1.1618 H       1  UNL1        0.0249
     40 H          -9.1228    0.9503   -1.2086 H       1  UNL1        0.1029
     41 H          -5.8693    1.1293   -3.8686 H       1  UNL1        0.0858
     42 H          -2.8190   -2.7206   -0.2414 H       1  UNL1        0.0630
     43 H          -0.5513   -3.0711    0.6059 H       1  UNL1        0.0626
     44 H           4.2705    1.6281   -0.2921 H       1  UNL1        0.0624
     45 H           6.4861    1.6688    0.3896 H       1  UNL1        0.0637
     46 H           8.2539   -0.9386    2.3656 H       1  UNL1        0.1733
     47 H           8.4167    2.6793    2.1900 H       1  UNL1        0.0482
     48 H           9.8140    2.9869    1.1221 H       1  UNL1        0.0482
     49 H           8.2247    2.9434    0.3434 H       1  UNL1        0.0482
     50 H           6.2037   -2.2556    2.0047 H       1  UNL1        0.0637
     51 H           3.8744   -2.3491    1.2923 H       1  UNL1        0.0624
     52 H           2.7912    1.5444   -0.9922 H       1  UNL1        0.1037
     53 H          -1.5699    1.0484   -1.9510 H       1  UNL1        0.0667
@<TRIPOS>BOND
     1     1     2    1
     2     2     3    1
     3     2     4    1
     4     4     5   ar
     5     5     6   ar
     6     6     7   ar
     7     7     8   ar
     8     8     9    1
     9     9    10    3
    10    10    11    1
    11    11    12   ar
    12    12    13   ar
    13    13    14   ar
    14    14    15   ar
    15    15    16    2
    16    15    17   ar
    17    17    18    1
    18    18    19   ar
    19    19    20   ar
    20    20    21   ar
    21    21    22    1
    22    22    23    1
    23    23    24    1
    24    23    25    2
    25    23    26    2
    26    21    27   ar
    27    27    28   ar
    28    17    29   ar
    29    29    30   ar
    30    30    31   ar
    31    31    32   ar
    32     8     4   ar
    33    32    11   ar
    34    31    14   ar
    35    28    18   ar
    36     1    33    1
    37     1    34    1
    38     1    35    1
    39     2    36    1
    40     3    37    1
    41     3    38    1
    42     3    39    1
    43     5    40    1
    44     7    41    1
    45    12    42    1
    46    13    43    1
    47    19    44    1
    48    20    45    1
    49    22    46    1
    50    24    47    1
    51    24    48    1
    52    24    49    1
    53    27    50    1
    54    28    51    1
    55    29    52    1
    56    32    53    1
