@<TRIPOS>MOLECULE
*****
 59 62 0 0 0
SMALL
GASTEIGER

@<TRIPOS>ATOM
      1 N           1.8097    0.0281    5.5443 N.1     1  UNL1       -0.1943
      2 C           1.8429   -0.2882    4.5540 C.1     1  UNL1        0.0883
      3 C           1.8735   -0.7551    3.1007 C.3     1  UNL1        0.1215
      4 N           0.6426   -0.4768    2.4006 N.am    1  UNL1       -0.2958
      5 C          -0.5796   -0.9693    2.8460 C.2     1  UNL1        0.2348
      6 O          -0.7522   -1.6662    3.8669 O.2     1  UNL1       -0.2737
      7 C          -1.8935   -0.7032    2.1089 C.3     1  UNL1        0.1036
      8 C          -2.4895   -2.0354    1.7768 C.3     1  UNL1       -0.0006
      9 C          -1.6167   -2.7788    0.7382 C.ar    1  UNL1       -0.0435
     10 C          -0.3398   -3.1768    1.0333 C.ar    1  UNL1       -0.0550
     11 C           0.5796   -3.6276    0.0276 C.ar    1  UNL1       -0.0182
     12 C           0.1557   -3.6456   -1.2426 C.ar    1  UNL1        0.1387
     13 C          -1.1046   -3.2843   -1.5652 C.ar    1  UNL1        0.0828
     14 CL         -1.9504   -3.3395   -3.1739 Cl      1  UNL1       -0.0797
     15 C          -2.0410   -2.8313   -0.5695 C.ar    1  UNL1       -0.0366
     16 O           1.0928   -4.0174   -2.2768 O.3     1  UNL1       -0.4905
     17 C           2.0883   -2.8181   -2.4296 C.3     1  UNL1        0.0898
     18 C           1.1588   -1.6932   -2.5640 C.3     1  UNL1       -0.0156
     19 C           1.7564   -0.3350   -2.1425 C.3     1  UNL1       -0.0156
     20 C           0.4467    0.4980   -2.0627 C.3     1  UNL1        0.0897
     21 O           0.6595    1.6868   -1.3710 O.3     1  UNL1       -0.4912
     22 C          -0.2844    2.6773   -1.0460 C.ar    1  UNL1        0.1331
     23 C          -0.1984    3.8879   -1.7541 C.ar    1  UNL1       -0.0076
     24 C          -1.0483    4.9476   -1.5649 C.ar    1  UNL1        0.0583
     25 C          -0.9552    6.2051   -2.3269 C.3     1  UNL1        0.4175
     26 F           0.0971    6.1524   -3.2580 F       1  UNL1       -0.1659
     27 F          -2.1587    6.4339   -3.0100 F       1  UNL1       -0.1659
     28 F          -0.7599    7.3255   -1.5644 F       1  UNL1       -0.1659
     29 C          -2.0249    4.7977   -0.6292 C.ar    1  UNL1       -0.0492
     30 C          -2.1335    3.6523    0.0700 C.ar    1  UNL1       -0.0456
     31 C          -1.2789    2.5431   -0.0964 C.ar    1  UNL1        0.0783
     32 C          -1.5256    1.4217    0.8012 C.2     1  UNL1        0.2482
     33 O          -1.9081    1.8916    2.0021 O.2     1  UNL1       -0.2701
     34 N          -1.5109    0.0662    0.8689 N.am    1  UNL1       -0.2996
     35 C           2.9460   -1.5398    2.5426 C.3     1  UNL1       -0.0154
     36 C           3.1044   -0.0873    2.3798 C.3     1  UNL1       -0.0154
     37 H           0.6709    0.1146    1.5037 H       1  UNL1        0.1503
     38 H          -2.4820   -0.1535    2.8038 H       1  UNL1        0.0598
     39 H          -3.5051   -1.8254    1.5208 H       1  UNL1        0.0336
     40 H          -2.5911   -2.5967    2.7173 H       1  UNL1        0.0336
     41 H           0.2437   -3.2858    1.9895 H       1  UNL1        0.0621
     42 H           1.5554   -3.9796    0.4993 H       1  UNL1        0.0655
     43 H          -3.0121   -2.6049   -1.0801 H       1  UNL1        0.0636
     44 H           2.7394   -2.9109   -1.6035 H       1  UNL1        0.0696
     45 H           2.5569   -3.0947   -3.3723 H       1  UNL1        0.0696
     46 H           0.2897   -1.8082   -1.8354 H       1  UNL1        0.0299
     47 H           0.6857   -1.5814   -3.5554 H       1  UNL1        0.0299
     48 H           2.3640    0.0129   -2.9683 H       1  UNL1        0.0299
     49 H           2.2127   -0.4343   -1.1642 H       1  UNL1        0.0299
     50 H           0.2424    0.6565   -3.1875 H       1  UNL1        0.0696
     51 H          -0.3707   -0.0945   -1.6927 H       1  UNL1        0.0696
     52 H           0.5782    4.0834   -2.5009 H       1  UNL1        0.0660
     53 H          -2.7369    5.6156   -0.4427 H       1  UNL1        0.0623
     54 H          -2.9599    3.6164    0.8139 H       1  UNL1        0.0626
     55 H          -1.2666   -0.6704    0.1882 H       1  UNL1        0.1498
     56 H           2.7301   -2.1543    1.6351 H       1  UNL1        0.0297
     57 H           3.6962   -2.0204    3.2164 H       1  UNL1        0.0297
     58 H           3.8049    0.4907    3.0318 H       1  UNL1        0.0297
     59 H           2.8542    0.4788    1.4691 H       1  UNL1        0.0297
@<TRIPOS>BOND
     1     1     2    3
     2     2     3    1
     3     3     4    1
     4     4     5   am
     5     5     6    2
     6     5     7    1
     7     7     8    1
     8     8     9    1
     9     9    10   ar
    10    10    11   ar
    11    11    12   ar
    12    12    13   ar
    13    13    14    1
    14    13    15   ar
    15    12    16    1
    16    16    17    1
    17    17    18    1
    18    18    19    1
    19    19    20    1
    20    20    21    1
    21    21    22    1
    22    22    23   ar
    23    23    24   ar
    24    24    25    1
    25    25    26    1
    26    25    27    1
    27    25    28    1
    28    24    29   ar
    29    29    30   ar
    30    30    31   ar
    31    31    32    1
    32    32    33    2
    33    32    34   am
    34     3    35    1
    35    35    36    1
    36    36     3    1
    37    34     7    1
    38    15     9   ar
    39    31    22   ar
    40     4    37    1
    41     7    38    1
    42     8    39    1
    43     8    40    1
    44    10    41    1
    45    11    42    1
    46    15    43    1
    47    17    44    1
    48    17    45    1
    49    18    46    1
    50    18    47    1
    51    19    48    1
    52    19    49    1
    53    20    50    1
    54    20    51    1
    55    23    52    1
    56    29    53    1
    57    30    54    1
    58    34    55    1
    59    35    56    1
    60    35    57    1
    61    36    58    1
    62    36    59    1
