
     RDKit          3D

 59 62  0  0  0  0  0  0  0  0999 V2000
    1.8097    0.0281    5.5443 N   0  0  0  0  0  0  0  0  0  0  0  0
    1.8429   -0.2882    4.5540 C   0  0  0  0  0  0  0  0  0  0  0  0
    1.8735   -0.7551    3.1007 C   0  0  0  0  0  0  0  0  0  0  0  0
    0.6426   -0.4768    2.4006 N   0  0  0  0  0  0  0  0  0  0  0  0
   -0.5796   -0.9693    2.8460 C   0  0  0  0  0  0  0  0  0  0  0  0
   -0.7522   -1.6662    3.8669 O   0  0  0  0  0  0  0  0  0  0  0  0
   -1.8935   -0.7032    2.1089 C   0  0  2  0  0  0  0  0  0  0  0  0
   -2.4895   -2.0354    1.7768 C   0  0  0  0  0  0  0  0  0  0  0  0
   -1.6167   -2.7788    0.7382 C   0  0  0  0  0  0  0  0  0  0  0  0
   -0.3398   -3.1768    1.0333 C   0  0  0  0  0  0  0  0  0  0  0  0
    0.5796   -3.6276    0.0276 C   0  0  0  0  0  0  0  0  0  0  0  0
    0.1557   -3.6456   -1.2426 C   0  0  0  0  0  0  0  0  0  0  0  0
   -1.1046   -3.2843   -1.5652 C   0  0  0  0  0  0  0  0  0  0  0  0
   -1.9504   -3.3395   -3.1739 Cl  0  0  0  0  0  0  0  0  0  0  0  0
   -2.0410   -2.8313   -0.5695 C   0  0  0  0  0  0  0  0  0  0  0  0
    1.0928   -4.0174   -2.2768 O   0  0  0  0  0  0  0  0  0  0  0  0
    2.0883   -2.8181   -2.4296 C   0  0  0  0  0  0  0  0  0  0  0  0
    1.1588   -1.6932   -2.5640 C   0  0  0  0  0  0  0  0  0  0  0  0
    1.7564   -0.3350   -2.1425 C   0  0  0  0  0  0  0  0  0  0  0  0
    0.4467    0.4980   -2.0627 C   0  0  0  0  0  0  0  0  0  0  0  0
    0.6595    1.6868   -1.3710 O   0  0  0  0  0  0  0  0  0  0  0  0
   -0.2844    2.6773   -1.0460 C   0  0  0  0  0  0  0  0  0  0  0  0
   -0.1984    3.8879   -1.7541 C   0  0  0  0  0  0  0  0  0  0  0  0
   -1.0483    4.9476   -1.5649 C   0  0  0  0  0  0  0  0  0  0  0  0
   -0.9552    6.2051   -2.3269 C   0  0  0  0  0  0  0  0  0  0  0  0
    0.0971    6.1524   -3.2580 F   0  0  0  0  0  0  0  0  0  0  0  0
   -2.1587    6.4339   -3.0100 F   0  0  0  0  0  0  0  0  0  0  0  0
   -0.7599    7.3255   -1.5644 F   0  0  0  0  0  0  0  0  0  0  0  0
   -2.0249    4.7977   -0.6292 C   0  0  0  0  0  0  0  0  0  0  0  0
   -2.1335    3.6523    0.0700 C   0  0  0  0  0  0  0  0  0  0  0  0
   -1.2789    2.5431   -0.0964 C   0  0  0  0  0  0  0  0  0  0  0  0
   -1.5256    1.4217    0.8012 C   0  0  0  0  0  0  0  0  0  0  0  0
   -1.9081    1.8916    2.0021 O   0  0  0  0  0  0  0  0  0  0  0  0
   -1.5109    0.0662    0.8689 N   0  0  0  0  0  0  0  0  0  0  0  0
    2.9460   -1.5398    2.5426 C   0  0  0  0  0  0  0  0  0  0  0  0
    3.1044   -0.0873    2.3798 C   0  0  0  0  0  0  0  0  0  0  0  0
    0.6709    0.1146    1.5037 H   0  0  0  0  0  0  0  0  0  0  0  0
   -2.4820   -0.1535    2.8038 H   0  0  0  0  0  0  0  0  0  0  0  0
   -3.5051   -1.8254    1.5208 H   0  0  0  0  0  0  0  0  0  0  0  0
   -2.5911   -2.5967    2.7173 H   0  0  0  0  0  0  0  0  0  0  0  0
    0.2437   -3.2858    1.9895 H   0  0  0  0  0  0  0  0  0  0  0  0
    1.5554   -3.9796    0.4993 H   0  0  0  0  0  0  0  0  0  0  0  0
   -3.0121   -2.6049   -1.0801 H   0  0  0  0  0  0  0  0  0  0  0  0
    2.7394   -2.9109   -1.6035 H   0  0  0  0  0  0  0  0  0  0  0  0
    2.5569   -3.0947   -3.3723 H   0  0  0  0  0  0  0  0  0  0  0  0
    0.2897   -1.8082   -1.8354 H   0  0  0  0  0  0  0  0  0  0  0  0
    0.6857   -1.5814   -3.5554 H   0  0  0  0  0  0  0  0  0  0  0  0
    2.3640    0.0129   -2.9683 H   0  0  0  0  0  0  0  0  0  0  0  0
    2.2127   -0.4343   -1.1642 H   0  0  0  0  0  0  0  0  0  0  0  0
    0.2424    0.6565   -3.1875 H   0  0  0  0  0  0  0  0  0  0  0  0
   -0.3707   -0.0945   -1.6927 H   0  0  0  0  0  0  0  0  0  0  0  0
    0.5782    4.0834   -2.5009 H   0  0  0  0  0  0  0  0  0  0  0  0
   -2.7369    5.6156   -0.4427 H   0  0  0  0  0  0  0  0  0  0  0  0
   -2.9599    3.6164    0.8139 H   0  0  0  0  0  0  0  0  0  0  0  0
   -1.2666   -0.6704    0.1882 H   0  0  0  0  0  0  0  0  0  0  0  0
    2.7301   -2.1543    1.6351 H   0  0  0  0  0  0  0  0  0  0  0  0
    3.6962   -2.0204    3.2164 H   0  0  0  0  0  0  0  0  0  0  0  0
    3.8049    0.4907    3.0318 H   0  0  0  0  0  0  0  0  0  0  0  0
    2.8542    0.4788    1.4691 H   0  0  0  0  0  0  0  0  0  0  0  0
  1  2  3  0
  2  3  1  0
  3  4  1  0
  4  5  1  0
  5  6  2  0
  5  7  1  0
  7  8  1  0
  8  9  1  0
  9 10  2  0
 10 11  1  0
 11 12  2  0
 12 13  1  0
 13 14  1  0
 13 15  2  0
 12 16  1  0
 16 17  1  0
 17 18  1  0
 18 19  1  0
 19 20  1  0
 20 21  1  0
 21 22  1  0
 22 23  2  0
 23 24  1  0
 24 25  1  0
 25 26  1  0
 25 27  1  0
 25 28  1  0
 24 29  2  0
 29 30  1  0
 30 31  2  0
 31 32  1  0
 32 33  2  0
 32 34  1  0
  3 35  1  0
 35 36  1  0
 36  3  1  0
 34  7  1  0
 15  9  1  0
 31 22  1  0
  4 37  1  0
  7 38  1  1
  8 39  1  0
  8 40  1  0
 10 41  1  0
 11 42  1  0
 15 43  1  0
 17 44  1  0
 17 45  1  0
 18 46  1  0
 18 47  1  0
 19 48  1  0
 19 49  1  0
 20 50  1  0
 20 51  1  0
 23 52  1  0
 29 53  1  0
 30 54  1  0
 34 55  1  0
 35 56  1  0
 35 57  1  0
 36 58  1  0
 36 59  1  0
M  END
$$$$
