@<TRIPOS>MOLECULE
*****
 76 80 0 0 0
SMALL
GASTEIGER

@<TRIPOS>ATOM
      1 C         -10.4083    2.2400   -0.6090 C.3     1  UNL1       -0.0306
      2 C          -9.5224    1.9960   -1.8172 C.3     1  UNL1        0.0885
      3 O          -8.3361    1.3934   -1.3442 O.3     1  UNL1       -0.4744
      4 C          -8.4138    0.1899   -0.6679 C.ar    1  UNL1        0.2555
      5 N          -9.5165   -0.5334   -0.3774 N.ar    1  UNL1       -0.1317
      6 N          -9.1901   -1.6267    0.2815 N.ar    1  UNL1       -0.2692
      7 C         -10.1145   -2.6479    0.7622 C.3     1  UNL1        0.0304
      8 C          -7.8472   -1.6172    0.4240 C.ar    1  UNL1        0.0503
      9 C          -7.3108   -0.4986   -0.1540 C.ar    1  UNL1        0.1152
     10 N          -5.9693   -0.0423   -0.2750 N.pl3   1  UNL1       -0.2782
     11 C          -4.8560   -0.6796    0.2939 C.ar    1  UNL1        0.2202
     12 N          -5.0059   -1.7863    1.0273 N.ar    1  UNL1       -0.2224
     13 C          -3.9674   -2.4200    1.6080 C.ar    1  UNL1        0.0361
     14 C          -2.7022   -1.8946    1.4297 C.ar    1  UNL1       -0.0062
     15 C          -1.5626   -2.6077    2.0627 C.3     1  UNL1       -0.0362
     16 C          -2.5380   -0.7568    0.6767 C.ar    1  UNL1        0.0809
     17 C          -1.2222   -0.1991    0.4700 C.ar    1  UNL1        0.0258
     18 C          -0.3402    0.2889    1.4308 C.ar    1  UNL1        0.0120
     19 N           0.7765    0.7505    0.8197 N.ar    1  UNL1       -0.3586
     20 C           0.6764    0.5906   -0.5069 C.ar    1  UNL1        0.0686
     21 C           1.5709    0.9077   -1.5164 C.ar    1  UNL1        0.0576
     22 N           2.8283    1.5185   -1.2726 N.am    1  UNL1       -0.2825
     23 C           3.9780    0.7315   -0.9984 C.2     1  UNL1        0.2342
     24 O           3.8541   -0.5050   -0.9740 O.2     1  UNL1       -0.2738
     25 C           5.2944    1.4201   -0.7493 C.3     1  UNL1        0.0850
     26 C           5.0277    2.5120    0.2585 C.3     1  UNL1       -0.0409
     27 N           6.3382    0.5489   -0.4108 N.3     1  UNL1       -0.2866
     28 C           6.2683   -0.2316    0.7462 C.3     1  UNL1        0.0127
     29 C           7.5474   -0.3489    1.5294 C.3     1  UNL1        0.0115
     30 N           8.7408   -0.1958    0.7639 N.3     1  UNL1       -0.3027
     31 C           9.8097    0.2012    1.6847 C.3     1  UNL1       -0.0127
     32 C           8.7020    0.7695   -0.2865 C.3     1  UNL1        0.0140
     33 C           7.5107    0.5183   -1.1860 C.3     1  UNL1        0.0211
     34 C           7.6545   -0.8035   -1.9150 C.3     1  UNL1       -0.0483
     35 C           1.1682    0.6020   -2.8143 C.ar    1  UNL1       -0.0384
     36 C          -0.0635    0.0149   -3.0471 C.ar    1  UNL1       -0.0593
     37 C          -0.9252   -0.2862   -2.0341 C.ar    1  UNL1       -0.0518
     38 C          -0.5504    0.0061   -0.7397 C.ar    1  UNL1        0.0107
     39 N          -3.6249   -0.1798    0.1277 N.ar    1  UNL1       -0.2139
     40 H         -11.1298    1.4194   -0.4721 H       1  UNL1        0.0262
     41 H         -10.9956    3.1669   -0.7841 H       1  UNL1        0.0262
     42 H          -9.7750    2.3199    0.3031 H       1  UNL1        0.0262
     43 H          -9.2997    2.9991   -2.2752 H       1  UNL1        0.0694
     44 H         -10.0295    1.4133   -2.6048 H       1  UNL1        0.0694
     45 H          -9.8297   -2.8527    1.8173 H       1  UNL1        0.0473
     46 H         -11.1525   -2.2781    0.6548 H       1  UNL1        0.0473
     47 H          -9.9637   -3.6009    0.2058 H       1  UNL1        0.0473
     48 H          -7.2769   -2.3851    0.9246 H       1  UNL1        0.0846
     49 H          -5.7639    0.8428   -0.8320 H       1  UNL1        0.1552
     50 H          -4.0841   -3.3044    2.1962 H       1  UNL1        0.0834
     51 H          -1.9401   -3.4937    2.6116 H       1  UNL1        0.0279
     52 H          -0.9905   -2.0203    2.7781 H       1  UNL1        0.0279
     53 H          -0.8971   -3.0388    1.2568 H       1  UNL1        0.0279
     54 H          -0.5554    0.2867    2.4979 H       1  UNL1        0.0814
     55 H           1.5868    1.1672    1.3304 H       1  UNL1        0.1654
     56 H           2.9066    2.5517   -1.2947 H       1  UNL1        0.1549
     57 H           5.5444    1.9158   -1.7272 H       1  UNL1        0.0556
     58 H           4.7060    3.4299   -0.2936 H       1  UNL1        0.0249
     59 H           5.9007    2.7782    0.8538 H       1  UNL1        0.0249
     60 H           4.1466    2.2172    0.8851 H       1  UNL1        0.0249
     61 H           5.5121    0.2036    1.4531 H       1  UNL1        0.0439
     62 H           5.8568   -1.2427    0.5000 H       1  UNL1        0.0439
     63 H           7.5573   -1.3652    1.9884 H       1  UNL1        0.0439
     64 H           7.5661    0.3655    2.3999 H       1  UNL1        0.0439
     65 H           9.8670    1.3092    1.6431 H       1  UNL1        0.0391
     66 H          10.7656   -0.1953    1.3254 H       1  UNL1        0.0391
     67 H           9.5658   -0.0936    2.7254 H       1  UNL1        0.0391
     68 H           9.6187    0.5916   -0.9225 H       1  UNL1        0.0442
     69 H           8.6696    1.8043    0.0810 H       1  UNL1        0.0442
     70 H           7.4990    1.3176   -1.9515 H       1  UNL1        0.0473
     71 H           8.5303   -1.3923   -1.5544 H       1  UNL1        0.0245
     72 H           6.7259   -1.4144   -1.7565 H       1  UNL1        0.0245
     73 H           7.7607   -0.6570   -2.9952 H       1  UNL1        0.0245
     74 H           1.8523    0.8412   -3.6136 H       1  UNL1        0.0637
     75 H          -0.3242   -0.2023   -4.0813 H       1  UNL1        0.0618
     76 H          -1.8891   -0.7432   -2.1815 H       1  UNL1        0.0624
@<TRIPOS>BOND
     1     1     2    1
     2     2     3    1
     3     3     4    1
     4     4     5   ar
     5     5     6   ar
     6     6     7    1
     7     6     8   ar
     8     8     9   ar
     9     9    10    1
    10    10    11    1
    11    11    12   ar
    12    12    13   ar
    13    13    14   ar
    14    14    15    1
    15    14    16   ar
    16    16    17    1
    17    17    18   ar
    18    18    19   ar
    19    19    20   ar
    20    20    21   ar
    21    21    22    1
    22    22    23   am
    23    23    24    2
    24    23    25    1
    25    25    26    1
    26    25    27    1
    27    27    28    1
    28    28    29    1
    29    29    30    1
    30    30    31    1
    31    30    32    1
    32    32    33    1
    33    33    34    1
    34    21    35   ar
    35    35    36   ar
    36    36    37   ar
    37    37    38   ar
    38    16    39   ar
    39     9     4   ar
    40    39    11   ar
    41    38    17   ar
    42    38    20   ar
    43    33    27    1
    44     1    40    1
    45     1    41    1
    46     1    42    1
    47     2    43    1
    48     2    44    1
    49     7    45    1
    50     7    46    1
    51     7    47    1
    52     8    48    1
    53    10    49    1
    54    13    50    1
    55    15    51    1
    56    15    52    1
    57    15    53    1
    58    18    54    1
    59    19    55    1
    60    22    56    1
    61    25    57    1
    62    26    58    1
    63    26    59    1
    64    26    60    1
    65    28    61    1
    66    28    62    1
    67    29    63    1
    68    29    64    1
    69    31    65    1
    70    31    66    1
    71    31    67    1
    72    32    68    1
    73    32    69    1
    74    33    70    1
    75    34    71    1
    76    34    72    1
    77    34    73    1
    78    35    74    1
    79    36    75    1
    80    37    76    1
