
     RDKit          3D

 76 80  0  0  0  0  0  0  0  0999 V2000
  -10.4083    2.2400   -0.6090 C   0  0  0  0  0  0  0  0  0  0  0  0
   -9.5224    1.9960   -1.8172 C   0  0  0  0  0  0  0  0  0  0  0  0
   -8.3361    1.3934   -1.3442 O   0  0  0  0  0  0  0  0  0  0  0  0
   -8.4138    0.1899   -0.6679 C   0  0  0  0  0  0  0  0  0  0  0  0
   -9.5165   -0.5334   -0.3774 N   0  0  0  0  0  0  0  0  0  0  0  0
   -9.1901   -1.6267    0.2815 N   0  0  0  0  0  0  0  0  0  0  0  0
  -10.1145   -2.6479    0.7622 C   0  0  0  0  0  0  0  0  0  0  0  0
   -7.8472   -1.6172    0.4240 C   0  0  0  0  0  0  0  0  0  0  0  0
   -7.3108   -0.4986   -0.1540 C   0  0  0  0  0  0  0  0  0  0  0  0
   -5.9693   -0.0423   -0.2750 N   0  0  0  0  0  0  0  0  0  0  0  0
   -4.8560   -0.6796    0.2939 C   0  0  0  0  0  0  0  0  0  0  0  0
   -5.0059   -1.7863    1.0273 N   0  0  0  0  0  0  0  0  0  0  0  0
   -3.9674   -2.4200    1.6080 C   0  0  0  0  0  0  0  0  0  0  0  0
   -2.7022   -1.8946    1.4297 C   0  0  0  0  0  0  0  0  0  0  0  0
   -1.5626   -2.6077    2.0627 C   0  0  0  0  0  0  0  0  0  0  0  0
   -2.5380   -0.7568    0.6767 C   0  0  0  0  0  0  0  0  0  0  0  0
   -1.2222   -0.1991    0.4700 C   0  0  0  0  0  0  0  0  0  0  0  0
   -0.3402    0.2889    1.4308 C   0  0  0  0  0  0  0  0  0  0  0  0
    0.7765    0.7505    0.8197 N   0  0  0  0  0  0  0  0  0  0  0  0
    0.6764    0.5906   -0.5069 C   0  0  0  0  0  0  0  0  0  0  0  0
    1.5709    0.9077   -1.5164 C   0  0  0  0  0  0  0  0  0  0  0  0
    2.8283    1.5185   -1.2726 N   0  0  0  0  0  0  0  0  0  0  0  0
    3.9780    0.7315   -0.9984 C   0  0  0  0  0  0  0  0  0  0  0  0
    3.8541   -0.5050   -0.9740 O   0  0  0  0  0  0  0  0  0  0  0  0
    5.2944    1.4201   -0.7493 C   0  0  1  0  0  0  0  0  0  0  0  0
    5.0277    2.5120    0.2585 C   0  0  0  0  0  0  0  0  0  0  0  0
    6.3382    0.5489   -0.4108 N   0  0  0  0  0  0  0  0  0  0  0  0
    6.2683   -0.2316    0.7462 C   0  0  0  0  0  0  0  0  0  0  0  0
    7.5474   -0.3489    1.5294 C   0  0  0  0  0  0  0  0  0  0  0  0
    8.7408   -0.1958    0.7639 N   0  0  0  0  0  0  0  0  0  0  0  0
    9.8097    0.2012    1.6847 C   0  0  0  0  0  0  0  0  0  0  0  0
    8.7020    0.7695   -0.2865 C   0  0  0  0  0  0  0  0  0  0  0  0
    7.5107    0.5183   -1.1860 C   0  0  1  0  0  0  0  0  0  0  0  0
    7.6545   -0.8035   -1.9150 C   0  0  0  0  0  0  0  0  0  0  0  0
    1.1682    0.6020   -2.8143 C   0  0  0  0  0  0  0  0  0  0  0  0
   -0.0635    0.0149   -3.0471 C   0  0  0  0  0  0  0  0  0  0  0  0
   -0.9252   -0.2862   -2.0341 C   0  0  0  0  0  0  0  0  0  0  0  0
   -0.5504    0.0061   -0.7397 C   0  0  0  0  0  0  0  0  0  0  0  0
   -3.6249   -0.1798    0.1277 N   0  0  0  0  0  0  0  0  0  0  0  0
  -11.1298    1.4194   -0.4721 H   0  0  0  0  0  0  0  0  0  0  0  0
  -10.9956    3.1669   -0.7841 H   0  0  0  0  0  0  0  0  0  0  0  0
   -9.7750    2.3199    0.3031 H   0  0  0  0  0  0  0  0  0  0  0  0
   -9.2997    2.9991   -2.2752 H   0  0  0  0  0  0  0  0  0  0  0  0
  -10.0295    1.4133   -2.6048 H   0  0  0  0  0  0  0  0  0  0  0  0
   -9.8297   -2.8527    1.8173 H   0  0  0  0  0  0  0  0  0  0  0  0
  -11.1525   -2.2781    0.6548 H   0  0  0  0  0  0  0  0  0  0  0  0
   -9.9637   -3.6009    0.2058 H   0  0  0  0  0  0  0  0  0  0  0  0
   -7.2769   -2.3851    0.9246 H   0  0  0  0  0  0  0  0  0  0  0  0
   -5.7639    0.8428   -0.8320 H   0  0  0  0  0  0  0  0  0  0  0  0
   -4.0841   -3.3044    2.1962 H   0  0  0  0  0  0  0  0  0  0  0  0
   -1.9401   -3.4937    2.6116 H   0  0  0  0  0  0  0  0  0  0  0  0
   -0.9905   -2.0203    2.7781 H   0  0  0  0  0  0  0  0  0  0  0  0
   -0.8971   -3.0388    1.2568 H   0  0  0  0  0  0  0  0  0  0  0  0
   -0.5554    0.2867    2.4979 H   0  0  0  0  0  0  0  0  0  0  0  0
    1.5868    1.1672    1.3304 H   0  0  0  0  0  0  0  0  0  0  0  0
    2.9066    2.5517   -1.2947 H   0  0  0  0  0  0  0  0  0  0  0  0
    5.5444    1.9158   -1.7272 H   0  0  0  0  0  0  0  0  0  0  0  0
    4.7060    3.4299   -0.2936 H   0  0  0  0  0  0  0  0  0  0  0  0
    5.9007    2.7782    0.8538 H   0  0  0  0  0  0  0  0  0  0  0  0
    4.1466    2.2172    0.8851 H   0  0  0  0  0  0  0  0  0  0  0  0
    5.5121    0.2036    1.4531 H   0  0  0  0  0  0  0  0  0  0  0  0
    5.8568   -1.2427    0.5000 H   0  0  0  0  0  0  0  0  0  0  0  0
    7.5573   -1.3652    1.9884 H   0  0  0  0  0  0  0  0  0  0  0  0
    7.5661    0.3655    2.3999 H   0  0  0  0  0  0  0  0  0  0  0  0
    9.8670    1.3092    1.6431 H   0  0  0  0  0  0  0  0  0  0  0  0
   10.7656   -0.1953    1.3254 H   0  0  0  0  0  0  0  0  0  0  0  0
    9.5658   -0.0936    2.7254 H   0  0  0  0  0  0  0  0  0  0  0  0
    9.6187    0.5916   -0.9225 H   0  0  0  0  0  0  0  0  0  0  0  0
    8.6696    1.8043    0.0810 H   0  0  0  0  0  0  0  0  0  0  0  0
    7.4990    1.3176   -1.9515 H   0  0  0  0  0  0  0  0  0  0  0  0
    8.5303   -1.3923   -1.5544 H   0  0  0  0  0  0  0  0  0  0  0  0
    6.7259   -1.4144   -1.7565 H   0  0  0  0  0  0  0  0  0  0  0  0
    7.7607   -0.6570   -2.9952 H   0  0  0  0  0  0  0  0  0  0  0  0
    1.8523    0.8412   -3.6136 H   0  0  0  0  0  0  0  0  0  0  0  0
   -0.3242   -0.2023   -4.0813 H   0  0  0  0  0  0  0  0  0  0  0  0
   -1.8891   -0.7432   -2.1815 H   0  0  0  0  0  0  0  0  0  0  0  0
  1  2  1  0
  2  3  1  0
  3  4  1  0
  4  5  2  0
  5  6  1  0
  6  7  1  0
  6  8  1  0
  8  9  2  0
  9 10  1  0
 10 11  1  0
 11 12  2  0
 12 13  1  0
 13 14  2  0
 14 15  1  0
 14 16  1  0
 16 17  1  0
 17 18  2  0
 18 19  1  0
 19 20  1  0
 20 21  2  0
 21 22  1  0
 22 23  1  0
 23 24  2  0
 23 25  1  0
 25 26  1  0
 25 27  1  0
 27 28  1  0
 28 29  1  0
 29 30  1  0
 30 31  1  0
 30 32  1  0
 32 33  1  0
 33 34  1  0
 21 35  1  0
 35 36  2  0
 36 37  1  0
 37 38  2  0
 16 39  2  0
  9  4  1  0
 39 11  1  0
 38 17  1  0
 38 20  1  0
 33 27  1  0
  1 40  1  0
  1 41  1  0
  1 42  1  0
  2 43  1  0
  2 44  1  0
  7 45  1  0
  7 46  1  0
  7 47  1  0
  8 48  1  0
 10 49  1  0
 13 50  1  0
 15 51  1  0
 15 52  1  0
 15 53  1  0
 18 54  1  0
 19 55  1  0
 22 56  1  0
 25 57  1  6
 26 58  1  0
 26 59  1  0
 26 60  1  0
 28 61  1  0
 28 62  1  0
 29 63  1  0
 29 64  1  0
 31 65  1  0
 31 66  1  0
 31 67  1  0
 32 68  1  0
 32 69  1  0
 33 70  1  6
 34 71  1  0
 34 72  1  0
 34 73  1  0
 35 74  1  0
 36 75  1  0
 37 76  1  0
M  END
$$$$
