
     RDKit          3D

 69 74  0  0  0  0  0  0  0  0999 V2000
   -4.1732   -0.1324   -0.5663 O   0  0  0  0  0  0  0  0  0  0  0  0
   -2.9863    0.3344   -0.5279 C   0  0  0  0  0  0  0  0  0  0  0  0
   -2.6313    1.6084   -0.7507 N   0  0  0  0  0  0  0  0  0  0  0  0
   -3.5200    2.7098   -1.0810 C   0  0  0  0  0  0  0  0  0  0  0  0
   -4.0368    3.4337    0.1262 C   0  0  0  0  0  0  0  0  0  0  0  0
   -4.9433    4.5475   -0.3661 C   0  0  0  0  0  0  0  0  0  0  0  0
   -5.3225    5.3649    0.8529 C   0  0  0  0  0  0  0  0  0  0  0  0
   -4.9186    4.7867    2.0306 O   0  0  0  0  0  0  0  0  0  0  0  0
   -5.3099    3.4749    2.1954 C   0  0  0  0  0  0  0  0  0  0  0  0
   -4.8302    2.5772    1.0524 C   0  0  0  0  0  0  0  0  0  0  0  0
   -1.3162    1.6372   -0.6072 N   0  0  0  0  0  0  0  0  0  0  0  0
   -0.8501    0.4251   -0.3040 C   0  0  0  0  0  0  0  0  0  0  0  0
    0.5452    0.0928   -0.0780 C   0  0  0  0  0  0  0  0  0  0  0  0
    0.8631   -0.8144    0.9265 C   0  0  0  0  0  0  0  0  0  0  0  0
    2.1900   -1.1185    1.1263 C   0  0  0  0  0  0  0  0  0  0  0  0
    3.1441   -0.5602    0.3791 N   0  0  0  0  0  0  0  0  0  0  0  0
    2.8835    0.3236   -0.6048 C   0  0  0  0  0  0  0  0  0  0  0  0
    3.9337    0.8995   -1.3836 N   0  0  0  0  0  0  0  0  0  0  0  0
    5.3141    0.5556   -1.1504 C   0  0  0  0  0  0  0  0  0  0  0  0
    5.5961   -0.8973   -1.3491 C   0  0  0  0  0  0  0  0  0  0  0  0
    7.0355   -1.2608   -1.4266 C   0  0  0  0  0  0  0  0  0  0  0  0
    7.8913   -0.0825   -0.9735 C   0  0  0  0  0  0  0  0  0  0  0  0
    7.6442    1.0031   -2.0171 C   0  0  0  0  0  0  0  0  0  0  0  0
    6.2387    1.4774   -1.8929 C   0  0  0  0  0  0  0  0  0  0  0  0
    1.5612    0.6469   -0.8271 C   0  0  0  0  0  0  0  0  0  0  0  0
   -1.8993   -0.3997   -0.2529 N   0  0  0  0  0  0  0  0  0  0  0  0
   -1.8652   -1.8159    0.0427 C   0  0  0  0  0  0  0  0  0  0  0  0
   -1.1019   -2.6700   -0.7175 C   0  0  0  0  0  0  0  0  0  0  0  0
   -1.0460   -4.0321   -0.4622 C   0  0  0  0  0  0  0  0  0  0  0  0
   -1.7952   -4.5010    0.5969 C   0  0  0  0  0  0  0  0  0  0  0  0
   -1.7700   -5.8457    0.8872 C   0  0  0  0  0  0  0  0  0  0  0  0
   -2.5046   -6.3344    1.9326 C   0  0  0  0  0  0  0  0  0  0  0  0
   -3.2809   -5.4668    2.7059 C   0  0  0  0  0  0  0  0  0  0  0  0
   -3.3042   -4.1324    2.4159 C   0  0  0  0  0  0  0  0  0  0  0  0
   -2.5618   -3.6642    1.3656 C   0  0  0  0  0  0  0  0  0  0  0  0
   -2.5974   -2.3073    1.0857 C   0  0  0  0  0  0  0  0  0  0  0  0
   -4.3739    2.2653   -1.6649 H   0  0  0  0  0  0  0  0  0  0  0  0
   -3.0248    3.4183   -1.7747 H   0  0  0  0  0  0  0  0  0  0  0  0
   -3.1816    3.8556    0.6805 H   0  0  0  0  0  0  0  0  0  0  0  0
   -4.3621    5.1859   -1.0846 H   0  0  0  0  0  0  0  0  0  0  0  0
   -5.8309    4.0940   -0.8616 H   0  0  0  0  0  0  0  0  0  0  0  0
   -4.7961    6.3603    0.7904 H   0  0  0  0  0  0  0  0  0  0  0  0
   -6.4059    5.5966    0.8043 H   0  0  0  0  0  0  0  0  0  0  0  0
   -6.4231    3.3877    2.3166 H   0  0  0  0  0  0  0  0  0  0  0  0
   -4.8968    3.1367    3.1767 H   0  0  0  0  0  0  0  0  0  0  0  0
   -5.7193    2.1964    0.5216 H   0  0  0  0  0  0  0  0  0  0  0  0
   -4.2332    1.7614    1.5188 H   0  0  0  0  0  0  0  0  0  0  0  0
    0.0723   -1.2691    1.5362 H   0  0  0  0  0  0  0  0  0  0  0  0
    2.4181   -1.8379    1.9254 H   0  0  0  0  0  0  0  0  0  0  0  0
    3.6916    1.5759   -2.1282 H   0  0  0  0  0  0  0  0  0  0  0  0
    5.4914    0.7652   -0.0533 H   0  0  0  0  0  0  0  0  0  0  0  0
    5.1119   -1.5039   -0.5502 H   0  0  0  0  0  0  0  0  0  0  0  0
    5.1098   -1.2212   -2.2982 H   0  0  0  0  0  0  0  0  0  0  0  0
    7.2620   -2.0890   -0.7433 H   0  0  0  0  0  0  0  0  0  0  0  0
    7.3771   -1.5247   -2.4486 H   0  0  0  0  0  0  0  0  0  0  0  0
    7.4741    0.2561   -0.0040 H   0  0  0  0  0  0  0  0  0  0  0  0
    8.9625   -0.3596   -0.9166 H   0  0  0  0  0  0  0  0  0  0  0  0
    7.8874    0.6080   -3.0264 H   0  0  0  0  0  0  0  0  0  0  0  0
    8.3332    1.8394   -1.8382 H   0  0  0  0  0  0  0  0  0  0  0  0
    5.8241    1.5490   -2.9414 H   0  0  0  0  0  0  0  0  0  0  0  0
    6.2169    2.5093   -1.5091 H   0  0  0  0  0  0  0  0  0  0  0  0
    1.3262    1.3551   -1.6130 H   0  0  0  0  0  0  0  0  0  0  0  0
   -0.5278   -2.2720   -1.5380 H   0  0  0  0  0  0  0  0  0  0  0  0
   -0.4438   -4.7158   -1.0600 H   0  0  0  0  0  0  0  0  0  0  0  0
   -1.1645   -6.4845    0.2748 H   0  0  0  0  0  0  0  0  0  0  0  0
   -2.5107   -7.3884    2.1924 H   0  0  0  0  0  0  0  0  0  0  0  0
   -3.8498   -5.8742    3.5220 H   0  0  0  0  0  0  0  0  0  0  0  0
   -3.8948   -3.4356    2.9954 H   0  0  0  0  0  0  0  0  0  0  0  0
   -3.1955   -1.6034    1.6731 H   0  0  0  0  0  0  0  0  0  0  0  0
  1  2  2  0
  2  3  1  0
  3  4  1  0
  4  5  1  0
  5  6  1  0
  6  7  1  0
  7  8  1  0
  8  9  1  0
  9 10  1  0
  3 11  1  0
 11 12  2  0
 12 13  1  0
 13 14  2  0
 14 15  1  0
 15 16  2  0
 16 17  1  0
 17 18  1  0
 18 19  1  0
 19 20  1  0
 20 21  1  0
 21 22  1  0
 22 23  1  0
 23 24  1  0
 17 25  2  0
 12 26  1  0
 26 27  1  0
 27 28  2  0
 28 29  1  0
 29 30  2  0
 30 31  1  0
 31 32  2  0
 32 33  1  0
 33 34  2  0
 34 35  1  0
 35 36  2  0
 26  2  1  0
 36 27  1  0
 10  5  1  0
 25 13  1  0
 35 30  1  0
 24 19  1  0
  4 37  1  0
  4 38  1  0
  5 39  1  0
  6 40  1  0
  6 41  1  0
  7 42  1  0
  7 43  1  0
  9 44  1  0
  9 45  1  0
 10 46  1  0
 10 47  1  0
 14 48  1  0
 15 49  1  0
 18 50  1  0
 19 51  1  0
 20 52  1  0
 20 53  1  0
 21 54  1  0
 21 55  1  0
 22 56  1  0
 22 57  1  0
 23 58  1  0
 23 59  1  0
 24 60  1  0
 24 61  1  0
 25 62  1  0
 28 63  1  0
 29 64  1  0
 31 65  1  0
 32 66  1  0
 33 67  1  0
 34 68  1  0
 36 69  1  0
M  END
$$$$
