@<TRIPOS>MOLECULE
*****
 69 74 0 0 0
SMALL
GASTEIGER

@<TRIPOS>ATOM
      1 O          -4.1732   -0.1324   -0.5663 O.2     1  UNL1       -0.2444
      2 C          -2.9863    0.3344   -0.5279 C.ar    1  UNL1        0.3515
      3 N          -2.6313    1.6084   -0.7507 N.ar    1  UNL1       -0.2120
      4 C          -3.5200    2.7098   -1.0810 C.3     1  UNL1        0.0497
      5 C          -4.0368    3.4337    0.1262 C.3     1  UNL1       -0.0171
      6 C          -4.9433    4.5475   -0.3661 C.3     1  UNL1       -0.0249
      7 C          -5.3225    5.3649    0.8529 C.3     1  UNL1        0.0480
      8 O          -4.9186    4.7867    2.0306 O.3     1  UNL1       -0.3797
      9 C          -5.3099    3.4749    2.1954 C.3     1  UNL1        0.0480
     10 C          -4.8302    2.5772    1.0524 C.3     1  UNL1       -0.0249
     11 N          -1.3162    1.6372   -0.6072 N.ar    1  UNL1       -0.1481
     12 C          -0.8501    0.4251   -0.3040 C.ar    1  UNL1        0.1695
     13 C           0.5452    0.0928   -0.0780 C.ar    1  UNL1        0.0243
     14 C           0.8631   -0.8144    0.9265 C.ar    1  UNL1       -0.0327
     15 C           2.1900   -1.1185    1.1263 C.ar    1  UNL1        0.0304
     16 N           3.1441   -0.5602    0.3791 N.ar    1  UNL1       -0.2405
     17 C           2.8835    0.3236   -0.6048 C.ar    1  UNL1        0.1195
     18 N           3.9337    0.8995   -1.3836 N.pl3   1  UNL1       -0.3262
     19 C           5.3141    0.5556   -1.1504 C.3     1  UNL1        0.0220
     20 C           5.5961   -0.8973   -1.3491 C.3     1  UNL1       -0.0345
     21 C           7.0355   -1.2608   -1.4266 C.3     1  UNL1       -0.0514
     22 C           7.8913   -0.0825   -0.9735 C.3     1  UNL1       -0.0529
     23 C           7.6442    1.0031   -2.0171 C.3     1  UNL1       -0.0514
     24 C           6.2387    1.4774   -1.8929 C.3     1  UNL1       -0.0345
     25 C           1.5612    0.6469   -0.8271 C.ar    1  UNL1       -0.0112
     26 N          -1.8993   -0.3997   -0.2529 N.ar    1  UNL1       -0.2435
     27 C          -1.8652   -1.8159    0.0427 C.ar    1  UNL1        0.0535
     28 C          -1.1019   -2.6700   -0.7175 C.ar    1  UNL1       -0.0370
     29 C          -1.0460   -4.0321   -0.4622 C.ar    1  UNL1       -0.0521
     30 C          -1.7952   -4.5010    0.5969 C.ar    1  UNL1       -0.0178
     31 C          -1.7700   -5.8457    0.8872 C.ar    1  UNL1       -0.0540
     32 C          -2.5046   -6.3344    1.9326 C.ar    1  UNL1       -0.0612
     33 C          -3.2809   -5.4668    2.7059 C.ar    1  UNL1       -0.0612
     34 C          -3.3042   -4.1324    2.4159 C.ar    1  UNL1       -0.0540
     35 C          -2.5618   -3.6642    1.3656 C.ar    1  UNL1       -0.0159
     36 C          -2.5974   -2.3073    1.0857 C.ar    1  UNL1       -0.0299
     37 H          -4.3739    2.2653   -1.6649 H       1  UNL1        0.0513
     38 H          -3.0248    3.4183   -1.7747 H       1  UNL1        0.0513
     39 H          -3.1816    3.8556    0.6805 H       1  UNL1        0.0320
     40 H          -4.3621    5.1859   -1.0846 H       1  UNL1        0.0291
     41 H          -5.8309    4.0940   -0.8616 H       1  UNL1        0.0291
     42 H          -4.7961    6.3603    0.7904 H       1  UNL1        0.0560
     43 H          -6.4059    5.5966    0.8043 H       1  UNL1        0.0560
     44 H          -6.4231    3.3877    2.3166 H       1  UNL1        0.0560
     45 H          -4.8968    3.1367    3.1767 H       1  UNL1        0.0560
     46 H          -5.7193    2.1964    0.5216 H       1  UNL1        0.0291
     47 H          -4.2332    1.7614    1.5188 H       1  UNL1        0.0291
     48 H           0.0723   -1.2691    1.5362 H       1  UNL1        0.0640
     49 H           2.4181   -1.8379    1.9254 H       1  UNL1        0.0830
     50 H           3.6916    1.5759   -2.1282 H       1  UNL1        0.1477
     51 H           5.4914    0.7652   -0.0533 H       1  UNL1        0.0498
     52 H           5.1119   -1.5039   -0.5502 H       1  UNL1        0.0283
     53 H           5.1098   -1.2212   -2.2982 H       1  UNL1        0.0283
     54 H           7.2620   -2.0890   -0.7433 H       1  UNL1        0.0266
     55 H           7.3771   -1.5247   -2.4486 H       1  UNL1        0.0266
     56 H           7.4741    0.2561   -0.0040 H       1  UNL1        0.0265
     57 H           8.9625   -0.3596   -0.9166 H       1  UNL1        0.0265
     58 H           7.8874    0.6080   -3.0264 H       1  UNL1        0.0266
     59 H           8.3332    1.8394   -1.8382 H       1  UNL1        0.0266
     60 H           5.8241    1.5490   -2.9414 H       1  UNL1        0.0283
     61 H           6.2169    2.5093   -1.5091 H       1  UNL1        0.0283
     62 H           1.3262    1.3551   -1.6130 H       1  UNL1        0.0659
     63 H          -0.5278   -2.2720   -1.5380 H       1  UNL1        0.0638
     64 H          -0.4438   -4.7158   -1.0600 H       1  UNL1        0.0624
     65 H          -1.1645   -6.4845    0.2748 H       1  UNL1        0.0624
     66 H          -2.5107   -7.3884    2.1924 H       1  UNL1        0.0618
     67 H          -3.8498   -5.8742    3.5220 H       1  UNL1        0.0618
     68 H          -3.8948   -3.4356    2.9954 H       1  UNL1        0.0624
     69 H          -3.1955   -1.6034    1.6731 H       1  UNL1        0.0644
@<TRIPOS>BOND
     1     1     2    2
     2     2     3   ar
     3     3     4    1
     4     4     5    1
     5     5     6    1
     6     6     7    1
     7     7     8    1
     8     8     9    1
     9     9    10    1
    10     3    11   ar
    11    11    12   ar
    12    12    13    1
    13    13    14   ar
    14    14    15   ar
    15    15    16   ar
    16    16    17   ar
    17    17    18    1
    18    18    19    1
    19    19    20    1
    20    20    21    1
    21    21    22    1
    22    22    23    1
    23    23    24    1
    24    17    25   ar
    25    12    26   ar
    26    26    27    1
    27    27    28   ar
    28    28    29   ar
    29    29    30   ar
    30    30    31   ar
    31    31    32   ar
    32    32    33   ar
    33    33    34   ar
    34    34    35   ar
    35    35    36   ar
    36    26     2   ar
    37    36    27   ar
    38    10     5    1
    39    25    13   ar
    40    35    30   ar
    41    24    19    1
    42     4    37    1
    43     4    38    1
    44     5    39    1
    45     6    40    1
    46     6    41    1
    47     7    42    1
    48     7    43    1
    49     9    44    1
    50     9    45    1
    51    10    46    1
    52    10    47    1
    53    14    48    1
    54    15    49    1
    55    18    50    1
    56    19    51    1
    57    20    52    1
    58    20    53    1
    59    21    54    1
    60    21    55    1
    61    22    56    1
    62    22    57    1
    63    23    58    1
    64    23    59    1
    65    24    60    1
    66    24    61    1
    67    25    62    1
    68    28    63    1
    69    29    64    1
    70    31    65    1
    71    32    66    1
    72    33    67    1
    73    34    68    1
    74    36    69    1
