@<TRIPOS>MOLECULE
*****
 32 35 0 0 0
SMALL
GASTEIGER

@<TRIPOS>ATOM
      1 O           0.9311    2.8659    0.9181 O.2     1  UNL1       -0.4087
      2 N           0.3108    1.7263    0.5521 N.2     1  UNL1       -0.0851
      3 C           0.8257    0.6444    0.2535 C.2     1  UNL1        0.1331
      4 C           0.2905   -0.6197   -0.1457 C.2     1  UNL1        0.0738
      5 N           1.4274   -1.4384   -0.3386 N.pl3   1  UNL1       -0.3116
      6 C           2.6474   -0.7672   -0.0853 C.ar    1  UNL1        0.0408
      7 C           2.2661    0.5263    0.2821 C.ar    1  UNL1        0.0265
      8 C           3.3307    1.3715    0.5802 C.ar    1  UNL1       -0.0506
      9 C           4.6508    0.9979    0.5275 C.ar    1  UNL1       -0.0610
     10 C           4.9371   -0.2942    0.1563 C.ar    1  UNL1       -0.0600
     11 C           3.9636   -1.2093   -0.1585 C.ar    1  UNL1       -0.0399
     12 C          -0.9381   -1.0090   -0.3156 C.2     1  UNL1        0.0692
     13 C          -1.3726   -2.3154   -0.7229 C.2     1  UNL1        0.2508
     14 O          -0.6997   -3.3214   -0.9920 O.2     1  UNL1       -0.2698
     15 N          -2.7932   -2.3181   -0.7865 N.am    1  UNL1       -0.2809
     16 C          -3.1765   -0.9784   -0.4055 C.ar    1  UNL1        0.0416
     17 C          -2.0822   -0.1994   -0.1257 C.ar    1  UNL1        0.0102
     18 C          -2.3960    1.0554    0.2332 C.ar    1  UNL1       -0.0520
     19 C          -3.6706    1.5574    0.3259 C.ar    1  UNL1       -0.0611
     20 C          -4.7667    0.7342    0.0329 C.ar    1  UNL1       -0.0600
     21 C          -4.5100   -0.5639   -0.3413 C.ar    1  UNL1       -0.0399
     22 H           0.9333    3.7297    0.3572 H       1  UNL1        0.3278
     23 H           1.3936   -2.4315   -0.6351 H       1  UNL1        0.1522
     24 H           3.1775    2.3927    0.8768 H       1  UNL1        0.0625
     25 H           5.4738    1.6308    0.7519 H       1  UNL1        0.0618
     26 H           5.9474   -0.6459    0.0965 H       1  UNL1        0.0618
     27 H           4.1870   -2.2262   -0.4507 H       1  UNL1        0.0636
     28 H          -3.3933   -3.1382   -1.0566 H       1  UNL1        0.1552
     29 H          -1.7561    1.8197    0.4885 H       1  UNL1        0.0624
     30 H          -4.0035    2.5666    0.6110 H       1  UNL1        0.0618
     31 H          -5.7865    1.0582    0.0841 H       1  UNL1        0.0618
     32 H          -5.3485   -1.2007   -0.5675 H       1  UNL1        0.0636
@<TRIPOS>BOND
     1     1     2    1
     2     2     3    2
     3     3     4    1
     4     4     5    1
     5     5     6    1
     6     6     7   ar
     7     7     8   ar
     8     8     9   ar
     9     9    10   ar
    10    10    11   ar
    11     4    12    2
    12    12    13    1
    13    13    14    2
    14    13    15   am
    15    15    16    1
    16    16    17   ar
    17    17    18   ar
    18    18    19   ar
    19    19    20   ar
    20    20    21   ar
    21     7     3    1
    22    17    12    1
    23    11     6   ar
    24    21    16   ar
    25     1    22    1
    26     5    23    1
    27     8    24    1
    28     9    25    1
    29    10    26    1
    30    11    27    1
    31    15    28    1
    32    18    29    1
    33    19    30    1
    34    20    31    1
    35    21    32    1
