@<TRIPOS>MOLECULE
*****
 38 40 0 0 0
SMALL
GASTEIGER

@<TRIPOS>ATOM
      1 O           2.0483    1.3718   -0.5024 O.2     1  UNL1       -0.2525
      2 C           1.3797    0.3334   -0.3314 C.2     1  UNL1        0.3047
      3 N          -0.0009    0.3433   -0.0593 N.am    1  UNL1       -0.2688
      4 C          -0.7920    1.4960    0.0535 C.ar    1  UNL1        0.0452
      5 C          -0.3512    2.7900   -0.0822 C.ar    1  UNL1       -0.0214
      6 C          -1.2064    3.8931    0.0450 C.ar    1  UNL1        0.0441
      7 CL         -0.5537    5.5163   -0.1449 Cl      1  UNL1       -0.0834
      8 C          -2.5309    3.6799    0.3145 C.ar    1  UNL1       -0.0243
      9 C          -3.0159    2.4001    0.4584 C.ar    1  UNL1        0.0518
     10 CL         -4.7028    2.0840    0.8033 Cl      1  UNL1       -0.0828
     11 C          -2.1603    1.3289    0.3299 C.ar    1  UNL1        0.0218
     12 C          -2.6718   -0.0229    0.4817 C.ar    1  UNL1       -0.0147
     13 C          -2.7135   -0.6807    1.6916 C.ar    1  UNL1       -0.0539
     14 C          -3.2123   -1.9644    1.7637 C.ar    1  UNL1       -0.0612
     15 C          -3.6762   -2.6137    0.6402 C.ar    1  UNL1       -0.0617
     16 C          -3.6394   -1.9667   -0.5726 C.ar    1  UNL1       -0.0612
     17 C          -3.1409   -0.6843   -0.6436 C.ar    1  UNL1       -0.0539
     18 N           2.1328   -0.8828   -0.4343 N.am    1  UNL1       -0.2834
     19 C           3.5218   -0.9754   -0.7052 C.3     1  UNL1        0.1327
     20 C           4.0745   -2.3685   -0.7601 C.2     1  UNL1        0.3285
     21 O           5.2979   -2.5336   -0.9955 O.2     1  UNL1       -0.2486
     22 O           3.2995   -3.4984   -0.5628 O.3     1  UNL1       -0.4791
     23 C           4.3263    0.0650   -1.3407 C.3     1  UNL1       -0.0187
     24 C           4.3985   -0.0219    0.1477 C.3     1  UNL1       -0.0187
     25 H          -0.4561   -0.5928    0.0657 H       1  UNL1        0.1564
     26 H           0.6843    3.0112   -0.2950 H       1  UNL1        0.0651
     27 H          -3.2265    4.5023    0.4209 H       1  UNL1        0.0647
     28 H          -2.3565   -0.2000    2.5973 H       1  UNL1        0.0624
     29 H          -3.2256   -2.4495    2.7514 H       1  UNL1        0.0618
     30 H          -4.0653   -3.6128    0.6919 H       1  UNL1        0.0618
     31 H          -4.0044   -2.4852   -1.4395 H       1  UNL1        0.0618
     32 H          -3.1210   -0.1914   -1.6124 H       1  UNL1        0.0624
     33 H           1.5744   -1.7627   -0.2907 H       1  UNL1        0.1513
     34 H           3.6610   -4.3032   -0.0429 H       1  UNL1        0.2951
     35 H           3.9708    1.0045   -1.7527 H       1  UNL1        0.0292
     36 H           5.2733   -0.2734   -1.8556 H       1  UNL1        0.0292
     37 H           5.2931   -0.4545    0.6392 H       1  UNL1        0.0292
     38 H           3.8874    0.7191    0.7727 H       1  UNL1        0.0292
@<TRIPOS>BOND
     1     1     2    2
     2     2     3   am
     3     3     4    1
     4     4     5   ar
     5     5     6   ar
     6     6     7    1
     7     6     8   ar
     8     8     9   ar
     9     9    10    1
    10     9    11   ar
    11    11    12    1
    12    12    13   ar
    13    13    14   ar
    14    14    15   ar
    15    15    16   ar
    16    16    17   ar
    17     2    18   am
    18    18    19    1
    19    19    20    1
    20    20    21    2
    21    20    22    1
    22    19    23    1
    23    23    24    1
    24    11     4   ar
    25    17    12   ar
    26    24    19    1
    27     3    25    1
    28     5    26    1
    29     8    27    1
    30    13    28    1
    31    14    29    1
    32    15    30    1
    33    16    31    1
    34    17    32    1
    35    18    33    1
    36    22    34    1
    37    23    35    1
    38    23    36    1
    39    24    37    1
    40    24    38    1
