
     RDKit          3D

 38 40  0  0  0  0  0  0  0  0999 V2000
    2.0483    1.3718   -0.5024 O   0  0  0  0  0  0  0  0  0  0  0  0
    1.3797    0.3334   -0.3314 C   0  0  0  0  0  0  0  0  0  0  0  0
   -0.0009    0.3433   -0.0593 N   0  0  0  0  0  0  0  0  0  0  0  0
   -0.7920    1.4960    0.0535 C   0  0  0  0  0  0  0  0  0  0  0  0
   -0.3512    2.7900   -0.0822 C   0  0  0  0  0  0  0  0  0  0  0  0
   -1.2064    3.8931    0.0450 C   0  0  0  0  0  0  0  0  0  0  0  0
   -0.5537    5.5163   -0.1449 Cl  0  0  0  0  0  0  0  0  0  0  0  0
   -2.5309    3.6799    0.3145 C   0  0  0  0  0  0  0  0  0  0  0  0
   -3.0159    2.4001    0.4584 C   0  0  0  0  0  0  0  0  0  0  0  0
   -4.7028    2.0840    0.8033 Cl  0  0  0  0  0  0  0  0  0  0  0  0
   -2.1603    1.3289    0.3299 C   0  0  0  0  0  0  0  0  0  0  0  0
   -2.6718   -0.0229    0.4817 C   0  0  0  0  0  0  0  0  0  0  0  0
   -2.7135   -0.6807    1.6916 C   0  0  0  0  0  0  0  0  0  0  0  0
   -3.2123   -1.9644    1.7637 C   0  0  0  0  0  0  0  0  0  0  0  0
   -3.6762   -2.6137    0.6402 C   0  0  0  0  0  0  0  0  0  0  0  0
   -3.6394   -1.9667   -0.5726 C   0  0  0  0  0  0  0  0  0  0  0  0
   -3.1409   -0.6843   -0.6436 C   0  0  0  0  0  0  0  0  0  0  0  0
    2.1328   -0.8828   -0.4343 N   0  0  0  0  0  0  0  0  0  0  0  0
    3.5218   -0.9754   -0.7052 C   0  0  0  0  0  0  0  0  0  0  0  0
    4.0745   -2.3685   -0.7601 C   0  0  0  0  0  0  0  0  0  0  0  0
    5.2979   -2.5336   -0.9955 O   0  0  0  0  0  0  0  0  0  0  0  0
    3.2995   -3.4984   -0.5628 O   0  0  0  0  0  0  0  0  0  0  0  0
    4.3263    0.0650   -1.3407 C   0  0  0  0  0  0  0  0  0  0  0  0
    4.3985   -0.0219    0.1477 C   0  0  0  0  0  0  0  0  0  0  0  0
   -0.4561   -0.5928    0.0657 H   0  0  0  0  0  0  0  0  0  0  0  0
    0.6843    3.0112   -0.2950 H   0  0  0  0  0  0  0  0  0  0  0  0
   -3.2265    4.5023    0.4209 H   0  0  0  0  0  0  0  0  0  0  0  0
   -2.3565   -0.2000    2.5973 H   0  0  0  0  0  0  0  0  0  0  0  0
   -3.2256   -2.4495    2.7514 H   0  0  0  0  0  0  0  0  0  0  0  0
   -4.0653   -3.6128    0.6919 H   0  0  0  0  0  0  0  0  0  0  0  0
   -4.0044   -2.4852   -1.4395 H   0  0  0  0  0  0  0  0  0  0  0  0
   -3.1210   -0.1914   -1.6124 H   0  0  0  0  0  0  0  0  0  0  0  0
    1.5744   -1.7627   -0.2907 H   0  0  0  0  0  0  0  0  0  0  0  0
    3.6610   -4.3032   -0.0429 H   0  0  0  0  0  0  0  0  0  0  0  0
    3.9708    1.0045   -1.7527 H   0  0  0  0  0  0  0  0  0  0  0  0
    5.2733   -0.2734   -1.8556 H   0  0  0  0  0  0  0  0  0  0  0  0
    5.2931   -0.4545    0.6392 H   0  0  0  0  0  0  0  0  0  0  0  0
    3.8874    0.7191    0.7727 H   0  0  0  0  0  0  0  0  0  0  0  0
  1  2  2  0
  2  3  1  0
  3  4  1  0
  4  5  2  0
  5  6  1  0
  6  7  1  0
  6  8  2  0
  8  9  1  0
  9 10  1  0
  9 11  2  0
 11 12  1  0
 12 13  2  0
 13 14  1  0
 14 15  2  0
 15 16  1  0
 16 17  2  0
  2 18  1  0
 18 19  1  0
 19 20  1  0
 20 21  2  0
 20 22  1  0
 19 23  1  0
 23 24  1  0
 11  4  1  0
 17 12  1  0
 24 19  1  0
  3 25  1  0
  5 26  1  0
  8 27  1  0
 13 28  1  0
 14 29  1  0
 15 30  1  0
 16 31  1  0
 17 32  1  0
 18 33  1  0
 22 34  1  0
 23 35  1  0
 23 36  1  0
 24 37  1  0
 24 38  1  0
M  END
$$$$
