@<TRIPOS>MOLECULE
*****
 26 27 0 0 0
SMALL
GASTEIGER

@<TRIPOS>ATOM
      1 C          -1.8273   -0.6695    1.4426 C.3     1  UNL1       -0.0379
      2 C          -0.8099   -0.5096    0.3794 C.3     1  UNL1        0.1130
      3 C          -1.3133   -0.9680   -0.9716 C.3     1  UNL1       -0.0379
      4 C          -0.1570    0.8345    0.3224 C.3     1  UNL1        0.1488
      5 C          -1.0073    1.8375   -0.3844 C.2     1  UNL1        0.3277
      6 O          -0.5357    2.4393   -1.3730 O.2     1  UNL1       -0.2488
      7 O          -2.2972    2.1239    0.0161 O.3     1  UNL1       -0.4793
      8 N           1.1067    0.7415   -0.2937 N.am    1  UNL1       -0.2633
      9 C           2.3167    1.1445   -0.8756 C.2     1  UNL1        0.2211
     10 O           2.7643    2.0608   -1.5914 O.2     1  UNL1       -0.2754
     11 C           2.9234   -0.0882   -0.2310 C.3     1  UNL1        0.0629
     12 C           1.5893   -0.6202   -0.5331 C.3     1  UNL1        0.1535
     13 S           0.6777   -1.4810    0.7176 S.O2    1  UNL1       -0.0042
     14 O           1.1546   -1.1827    2.0842 O.2     1  UNL1       -0.1720
     15 O           0.4718   -2.9100    0.4223 O.2     1  UNL1       -0.1720
     16 H          -2.4737   -1.5529    1.1685 H       1  UNL1        0.0251
     17 H          -2.5162    0.2045    1.4100 H       1  UNL1        0.0251
     18 H          -1.4158   -0.8658    2.4406 H       1  UNL1        0.0251
     19 H          -1.3859   -2.0816   -0.9276 H       1  UNL1        0.0251
     20 H          -0.5759   -0.7296   -1.7558 H       1  UNL1        0.0251
     21 H          -2.3012   -0.5009   -1.1920 H       1  UNL1        0.0251
     22 H          -0.0936    1.1637    1.4111 H       1  UNL1        0.0639
     23 H          -2.6597    3.0862   -0.0368 H       1  UNL1        0.2951
     24 H           3.6980   -0.5087   -0.9192 H       1  UNL1        0.0393
     25 H           3.2275    0.0455    0.8018 H       1  UNL1        0.0393
     26 H           1.4400   -1.0132   -1.5314 H       1  UNL1        0.0750
@<TRIPOS>BOND
     1     1     2    1
     2     2     3    1
     3     2     4    1
     4     4     5    1
     5     5     6    2
     6     5     7    1
     7     4     8    1
     8     8     9   am
     9     9    10    2
    10     9    11    1
    11    11    12    1
    12    12    13    1
    13    13    14    2
    14    13    15    2
    15    13     2    1
    16    12     8    1
    17     1    16    1
    18     1    17    1
    19     1    18    1
    20     3    19    1
    21     3    20    1
    22     3    21    1
    23     4    22    1
    24     7    23    1
    25    11    24    1
    26    11    25    1
    27    12    26    1
