
     RDKit          3D

 66 70  0  0  0  0  0  0  0  0999 V2000
   -4.3400   -2.2029   -1.1673 O   0  0  0  0  0  0  0  0  0  0  0  0
   -3.2384   -1.8284   -0.6823 C   0  0  0  0  0  0  0  0  0  0  0  0
   -3.1239   -1.6657    0.7865 C   0  0  0  0  0  0  0  0  0  0  0  0
   -4.4036   -2.1212    1.4628 C   0  0  0  0  0  0  0  0  0  0  0  0
   -5.5580   -1.1850    1.2553 C   0  0  0  0  0  0  0  0  0  0  0  0
   -5.1146    0.1967    1.5454 N   0  0  0  0  0  0  0  0  0  0  0  0
   -5.9416    1.2919    1.2056 C   0  0  0  0  0  0  0  0  0  0  0  0
   -7.2044    1.0434    0.7073 C   0  0  0  0  0  0  0  0  0  0  0  0
   -8.0297    2.1048    0.3605 C   0  0  0  0  0  0  0  0  0  0  0  0
   -7.6247    3.3744    0.4995 N   0  0  0  0  0  0  0  0  0  0  0  0
   -6.4091    3.6480    0.9787 C   0  0  0  0  0  0  0  0  0  0  0  0
   -5.5673    2.6020    1.3319 C   0  0  0  0  0  0  0  0  0  0  0  0
   -3.8273    0.2901    2.1711 C   0  0  0  0  0  0  0  0  0  0  0  0
   -2.8158   -0.2233    1.1571 C   0  0  0  0  0  0  0  0  0  0  0  0
   -2.1374   -1.5723   -1.5420 N   0  0  0  0  0  0  0  0  0  0  0  0
   -2.1785   -1.6912   -2.9719 C   0  0  0  0  0  0  0  0  0  0  0  0
   -0.9783   -0.9749   -3.4802 C   0  0  0  0  0  0  0  0  0  0  0  0
    0.0493   -1.2303   -2.3744 C   0  0  1  0  0  0  0  0  0  0  0  0
    1.0518   -0.1253   -2.3015 C   0  0  0  0  0  0  0  0  0  0  0  0
    1.7841    0.0278   -3.5411 N   0  0  0  0  0  0  0  0  0  0  0  0
    2.9174    1.3395   -3.3338 S   0  0  0  0  0  6  0  0  0  0  0  0
    3.6047    1.5069   -4.6807 O   0  0  0  0  0  0  0  0  0  0  0  0
    2.1211    2.5407   -2.9782 O   0  0  0  0  0  0  0  0  0  0  0  0
    4.0659    1.0155   -2.0759 C   0  0  0  0  0  0  0  0  0  0  0  0
    4.0609    1.7344   -0.9659 C   0  0  0  0  0  0  0  0  0  0  0  0
    5.0709    1.4064    0.0729 C   0  0  0  0  0  0  0  0  0  0  0  0
    5.2944    1.9501    1.2605 C   0  0  0  0  0  0  0  0  0  0  0  0
    6.2800    1.4848    2.0510 C   0  0  0  0  0  0  0  0  0  0  0  0
    7.0238    0.4433    1.5754 C   0  0  0  0  0  0  0  0  0  0  0  0
    8.1504   -0.3014    2.1487 C   0  0  0  0  0  0  0  0  0  0  0  0
    8.8443   -1.3101    1.6572 C   0  0  0  0  0  0  0  0  0  0  0  0
    9.8506   -1.8537    2.3580 C   0  0  0  0  0  0  0  0  0  0  0  0
   10.1154   -1.3032    3.6089 C   0  0  0  0  0  0  0  0  0  0  0  0
   11.3236   -1.7149    4.8218 Cl  0  0  0  0  0  0  0  0  0  0  0  0
    8.8700    0.0068    3.7212 S   0  0  0  0  0  0  0  0  0  0  0  0
    6.2754    0.1420   -0.0418 S   0  0  0  0  0  0  0  0  0  0  0  0
   -0.8245   -1.1774   -1.1200 C   0  0  0  0  0  0  0  0  0  0  0  0
   -2.3042   -2.2915    1.1845 H   0  0  0  0  0  0  0  0  0  0  0  0
   -4.6753   -3.1019    0.9826 H   0  0  0  0  0  0  0  0  0  0  0  0
   -4.1925   -2.3087    2.5268 H   0  0  0  0  0  0  0  0  0  0  0  0
   -6.3265   -1.4102    2.0225 H   0  0  0  0  0  0  0  0  0  0  0  0
   -5.9871   -1.2669    0.2424 H   0  0  0  0  0  0  0  0  0  0  0  0
   -7.5266    0.0126    0.5960 H   0  0  0  0  0  0  0  0  0  0  0  0
   -9.0048    1.8539   -0.0250 H   0  0  0  0  0  0  0  0  0  0  0  0
   -6.0452    4.6734    1.1052 H   0  0  0  0  0  0  0  0  0  0  0  0
   -4.5926    2.8396    1.7142 H   0  0  0  0  0  0  0  0  0  0  0  0
   -3.7628   -0.3564    3.0838 H   0  0  0  0  0  0  0  0  0  0  0  0
   -3.6032    1.3030    2.4976 H   0  0  0  0  0  0  0  0  0  0  0  0
   -1.8158   -0.1249    1.6109 H   0  0  0  0  0  0  0  0  0  0  0  0
   -2.9198    0.4237    0.2721 H   0  0  0  0  0  0  0  0  0  0  0  0
   -3.1212   -1.2606   -3.3772 H   0  0  0  0  0  0  0  0  0  0  0  0
   -2.1864   -2.7740   -3.2980 H   0  0  0  0  0  0  0  0  0  0  0  0
   -1.1471    0.1069   -3.6335 H   0  0  0  0  0  0  0  0  0  0  0  0
   -0.6140   -1.4115   -4.4163 H   0  0  0  0  0  0  0  0  0  0  0  0
    0.5229   -2.2129   -2.4951 H   0  0  0  0  0  0  0  0  0  0  0  0
    1.8101   -0.4263   -1.5389 H   0  0  0  0  0  0  0  0  0  0  0  0
    0.5629    0.8124   -1.9827 H   0  0  0  0  0  0  0  0  0  0  0  0
    2.3344   -0.8162   -3.7754 H   0  0  0  0  0  0  0  0  0  0  0  0
    4.7852    0.2105   -2.2249 H   0  0  0  0  0  0  0  0  0  0  0  0
    3.3556    2.5112   -0.8389 H   0  0  0  0  0  0  0  0  0  0  0  0
    4.6596    2.8068    1.6156 H   0  0  0  0  0  0  0  0  0  0  0  0
    6.5370    1.8853    3.0694 H   0  0  0  0  0  0  0  0  0  0  0  0
    8.5929   -1.7239    0.6376 H   0  0  0  0  0  0  0  0  0  0  0  0
   10.4829   -2.7246    1.9862 H   0  0  0  0  0  0  0  0  0  0  0  0
   -0.4140   -1.8521   -0.3290 H   0  0  0  0  0  0  0  0  0  0  0  0
   -0.8410   -0.1676   -0.6933 H   0  0  0  0  0  0  0  0  0  0  0  0
  1  2  2  0
  2  3  1  0
  3  4  1  0
  4  5  1  0
  5  6  1  0
  6  7  1  0
  7  8  2  0
  8  9  1  0
  9 10  2  0
 10 11  1  0
 11 12  2  0
  6 13  1  0
 13 14  1  0
  2 15  1  0
 15 16  1  0
 16 17  1  0
 17 18  1  0
 18 19  1  0
 19 20  1  0
 20 21  1  0
 21 22  2  0
 21 23  2  0
 21 24  1  0
 24 25  2  0
 25 26  1  0
 26 27  2  0
 27 28  1  0
 28 29  2  0
 29 30  1  0
 30 31  2  0
 31 32  1  0
 32 33  2  0
 33 34  1  0
 33 35  1  0
 29 36  1  0
 18 37  1  0
 14  3  1  0
 37 15  1  0
 12  7  1  0
 36 26  1  0
 35 30  1  0
  3 38  1  0
  4 39  1  0
  4 40  1  0
  5 41  1  0
  5 42  1  0
  8 43  1  0
  9 44  1  0
 11 45  1  0
 12 46  1  0
 13 47  1  0
 13 48  1  0
 14 49  1  0
 14 50  1  0
 16 51  1  0
 16 52  1  0
 17 53  1  0
 17 54  1  0
 18 55  1  6
 19 56  1  0
 19 57  1  0
 20 58  1  0
 24 59  1  0
 25 60  1  0
 27 61  1  0
 28 62  1  0
 31 63  1  0
 32 64  1  0
 37 65  1  0
 37 66  1  0
M  END
$$$$
