@<TRIPOS>MOLECULE
*****
 66 70 0 0 0
SMALL
GASTEIGER

@<TRIPOS>ATOM
      1 O          -4.3400   -2.2029   -1.1673 O.2     1  UNL1       -0.2753
      2 C          -3.2384   -1.8284   -0.6823 C.2     1  UNL1        0.2188
      3 C          -3.1239   -1.6657    0.7865 C.3     1  UNL1        0.0386
      4 C          -4.4036   -2.1212    1.4628 C.3     1  UNL1       -0.0261
      5 C          -5.5580   -1.1850    1.2553 C.3     1  UNL1        0.0129
      6 N          -5.1146    0.1967    1.5454 N.pl3   1  UNL1       -0.3298
      7 C          -5.9416    1.2919    1.2056 C.ar    1  UNL1        0.0326
      8 C          -7.2044    1.0434    0.7073 C.ar    1  UNL1       -0.0225
      9 C          -8.0297    2.1048    0.3605 C.ar    1  UNL1        0.0293
     10 N          -7.6247    3.3744    0.4995 N.ar    1  UNL1       -0.2631
     11 C          -6.4091    3.6480    0.9787 C.ar    1  UNL1        0.0293
     12 C          -5.5673    2.6020    1.3319 C.ar    1  UNL1       -0.0225
     13 C          -3.8273    0.2901    2.1711 C.3     1  UNL1        0.0129
     14 C          -2.8158   -0.2233    1.1571 C.3     1  UNL1       -0.0261
     15 N          -2.1374   -1.5723   -1.5420 N.am    1  UNL1       -0.3009
     16 C          -2.1785   -1.6912   -2.9719 C.3     1  UNL1        0.0150
     17 C          -0.9783   -0.9749   -3.4802 C.3     1  UNL1       -0.0317
     18 C           0.0493   -1.2303   -2.3744 C.3     1  UNL1       -0.0096
     19 C           1.0518   -0.1253   -2.3015 C.3     1  UNL1        0.0217
     20 N           1.7841    0.0278   -3.5411 N.3     1  UNL1       -0.1902
     21 S           2.9174    1.3395   -3.3338 S.O2    1  UNL1        0.0517
     22 O           3.6047    1.5069   -4.6807 O.2     1  UNL1       -0.1536
     23 O           2.1211    2.5407   -2.9782 O.2     1  UNL1       -0.1536
     24 C           4.0659    1.0155   -2.0759 C.2     1  UNL1        0.0701
     25 C           4.0609    1.7344   -0.9659 C.2     1  UNL1       -0.0289
     26 C           5.0709    1.4064    0.0729 C.ar    1  UNL1        0.0141
     27 C           5.2944    1.9501    1.2605 C.ar    1  UNL1       -0.0469
     28 C           6.2800    1.4848    2.0510 C.ar    1  UNL1       -0.0459
     29 C           7.0238    0.4433    1.5754 C.ar    1  UNL1        0.0265
     30 C           8.1504   -0.3014    2.1487 C.ar    1  UNL1        0.0273
     31 C           8.8443   -1.3101    1.6572 C.ar    1  UNL1       -0.0450
     32 C           9.8506   -1.8537    2.3580 C.ar    1  UNL1       -0.0356
     33 C          10.1154   -1.3032    3.6089 C.ar    1  UNL1        0.0786
     34 CL         11.3236   -1.7149    4.8218 Cl      1  UNL1       -0.0758
     35 S           8.8700    0.0068    3.7212 S.2     1  UNL1       -0.0763
     36 S           6.2754    0.1420   -0.0418 S.2     1  UNL1       -0.0883
     37 C          -0.8245   -1.1774   -1.1200 C.3     1  UNL1        0.0188
     38 H          -2.3042   -2.2915    1.1845 H       1  UNL1        0.0395
     39 H          -4.6753   -3.1019    0.9826 H       1  UNL1        0.0288
     40 H          -4.1925   -2.3087    2.5268 H       1  UNL1        0.0288
     41 H          -6.3265   -1.4102    2.0225 H       1  UNL1        0.0464
     42 H          -5.9871   -1.2669    0.2424 H       1  UNL1        0.0464
     43 H          -7.5266    0.0126    0.5960 H       1  UNL1        0.0651
     44 H          -9.0048    1.8539   -0.0250 H       1  UNL1        0.0830
     45 H          -6.0452    4.6734    1.1052 H       1  UNL1        0.0830
     46 H          -4.5926    2.8396    1.7142 H       1  UNL1        0.0651
     47 H          -3.7628   -0.3564    3.0838 H       1  UNL1        0.0464
     48 H          -3.6032    1.3030    2.4976 H       1  UNL1        0.0464
     49 H          -1.8158   -0.1249    1.6109 H       1  UNL1        0.0288
     50 H          -2.9198    0.4237    0.2721 H       1  UNL1        0.0288
     51 H          -3.1212   -1.2606   -3.3772 H       1  UNL1        0.0465
     52 H          -2.1864   -2.7740   -3.2980 H       1  UNL1        0.0465
     53 H          -1.1471    0.1069   -3.6335 H       1  UNL1        0.0284
     54 H          -0.6140   -1.4115   -4.4163 H       1  UNL1        0.0284
     55 H           0.5229   -2.2129   -2.4951 H       1  UNL1        0.0329
     56 H           1.8101   -0.4263   -1.5389 H       1  UNL1        0.0444
     57 H           0.5629    0.8124   -1.9827 H       1  UNL1        0.0444
     58 H           2.3344   -0.8162   -3.7754 H       1  UNL1        0.1480
     59 H           4.7852    0.2105   -2.2249 H       1  UNL1        0.0835
     60 H           3.3556    2.5112   -0.8389 H       1  UNL1        0.0642
     61 H           4.6596    2.8068    1.6156 H       1  UNL1        0.0629
     62 H           6.5370    1.8853    3.0694 H       1  UNL1        0.0629
     63 H           8.5929   -1.7239    0.6376 H       1  UNL1        0.0630
     64 H          10.4829   -2.7246    1.9862 H       1  UNL1        0.0638
     65 H          -0.4140   -1.8521   -0.3290 H       1  UNL1        0.0468
     66 H          -0.8410   -0.1676   -0.6933 H       1  UNL1        0.0468
@<TRIPOS>BOND
     1     1     2    2
     2     2     3    1
     3     3     4    1
     4     4     5    1
     5     5     6    1
     6     6     7    1
     7     7     8   ar
     8     8     9   ar
     9     9    10   ar
    10    10    11   ar
    11    11    12   ar
    12     6    13    1
    13    13    14    1
    14     2    15   am
    15    15    16    1
    16    16    17    1
    17    17    18    1
    18    18    19    1
    19    19    20    1
    20    20    21    1
    21    21    22    2
    22    21    23    2
    23    21    24    1
    24    24    25    2
    25    25    26    1
    26    26    27   ar
    27    27    28   ar
    28    28    29   ar
    29    29    30    1
    30    30    31   ar
    31    31    32   ar
    32    32    33   ar
    33    33    34    1
    34    33    35   ar
    35    29    36   ar
    36    18    37    1
    37    14     3    1
    38    37    15    1
    39    12     7   ar
    40    36    26   ar
    41    35    30   ar
    42     3    38    1
    43     4    39    1
    44     4    40    1
    45     5    41    1
    46     5    42    1
    47     8    43    1
    48     9    44    1
    49    11    45    1
    50    12    46    1
    51    13    47    1
    52    13    48    1
    53    14    49    1
    54    14    50    1
    55    16    51    1
    56    16    52    1
    57    17    53    1
    58    17    54    1
    59    18    55    1
    60    19    56    1
    61    19    57    1
    62    20    58    1
    63    24    59    1
    64    25    60    1
    65    27    61    1
    66    28    62    1
    67    31    63    1
    68    32    64    1
    69    37    65    1
    70    37    66    1
