@<TRIPOS>MOLECULE
*****
 133 132 0 0 0
SMALL
GASTEIGER

@<TRIPOS>ATOM
      1 C         -16.0715    0.9805   -3.1194 C.3     1  UNL1       -0.0653
      2 C         -16.1751    0.5851   -1.6799 C.3     1  UNL1       -0.0559
      3 C         -14.7466    0.1956   -1.1678 C.3     1  UNL1       -0.0533
      4 C         -14.9210   -0.1839    0.2526 C.3     1  UNL1       -0.0531
      5 C         -13.7816   -0.6696    1.0374 C.3     1  UNL1       -0.0531
      6 C         -12.6234    0.1744    1.2795 C.3     1  UNL1       -0.0531
      7 C         -11.7512    0.6169    0.1641 C.3     1  UNL1       -0.0531
      8 C         -11.1820   -0.5751   -0.5872 C.3     1  UNL1       -0.0531
      9 C         -10.3908   -1.4336    0.3303 C.3     1  UNL1       -0.0531
     10 C          -9.2091   -0.7546    0.9919 C.3     1  UNL1       -0.0531
     11 C          -8.1782   -0.2487    0.0612 C.3     1  UNL1       -0.0531
     12 C          -7.0156    0.4180    0.8157 C.3     1  UNL1       -0.0531
     13 C          -7.5059    1.6123    1.5592 C.3     1  UNL1       -0.0531
     14 C          -6.4754    2.3124    2.3312 C.3     1  UNL1       -0.0530
     15 C          -5.3057    2.9535    1.7294 C.3     1  UNL1       -0.0526
     16 C          -4.3177    2.1836    0.9537 C.3     1  UNL1       -0.0430
     17 C          -3.7145    1.0264    1.7208 C.3     1  UNL1        0.0449
     18 C          -2.7206    0.3079    0.8946 C.2     1  UNL1        0.3072
     19 O          -2.4155   -0.7267    1.5253 O.2     1  UNL1       -0.2509
     20 O          -2.2149    0.6643   -0.3050 O.3     1  UNL1       -0.4608
     21 C          -1.2739    0.0650   -1.1256 C.3     1  UNL1        0.1315
     22 C           0.0973    0.0840   -0.6295 C.3     1  UNL1        0.1605
     23 C           0.4449   -0.3755    0.7350 C.3     1  UNL1        0.0993
     24 O           0.3495   -1.7319    0.9698 O.3     1  UNL1       -0.2828
     25 P           1.1481   -2.2556    2.3401 P.3     1  UNL1        0.4751
     26 O           0.1195   -2.7668    3.5731 O.3     1  UNL1       -0.3025
     27 O           1.9063   -1.0370    2.8834 O.2     1  UNL1       -0.2273
     28 O           2.3470   -3.3947    1.9885 O.3     1  UNL1       -0.2854
     29 C           2.1585   -4.5550    2.7650 C.3     1  UNL1        0.0713
     30 C           3.3560   -5.4388    2.4303 C.3     1  UNL1        0.0172
     31 N           4.5225   -4.6648    2.8141 N.3     1  UNL1       -0.3279
     32 O           1.0255   -0.5725   -1.5255 O.3     1  UNL1       -0.4555
     33 C           2.0522    0.1117   -2.1043 C.2     1  UNL1        0.3075
     34 O           2.2168    1.3498   -1.8783 O.2     1  UNL1       -0.2508
     35 C           2.9345   -0.7015   -2.9887 C.3     1  UNL1        0.0450
     36 C           3.6858   -1.7357   -2.2422 C.3     1  UNL1       -0.0430
     37 C           4.5624   -1.3838   -1.1337 C.3     1  UNL1       -0.0526
     38 C           5.7594   -0.5392   -1.2755 C.3     1  UNL1       -0.0530
     39 C           5.6364    0.8560   -1.7466 C.3     1  UNL1       -0.0531
     40 C           7.0162    1.5265   -1.8020 C.3     1  UNL1       -0.0531
     41 C           7.6014    1.5421   -0.4250 C.3     1  UNL1       -0.0531
     42 C           8.9774    2.2482   -0.5206 C.3     1  UNL1       -0.0531
     43 C           9.5464    2.2864    0.8780 C.3     1  UNL1       -0.0531
     44 C           9.7111    0.9342    1.4670 C.3     1  UNL1       -0.0531
     45 C          10.6371    0.0509    0.7081 C.3     1  UNL1       -0.0531
     46 C          12.0362    0.6636    0.6816 C.3     1  UNL1       -0.0531
     47 C          12.9256   -0.2788   -0.0861 C.3     1  UNL1       -0.0531
     48 C          14.3429    0.1903   -0.1690 C.3     1  UNL1       -0.0531
     49 C          14.5216    1.5237   -0.8393 C.3     1  UNL1       -0.0533
     50 C          16.0020    1.8603   -0.8498 C.3     1  UNL1       -0.0559
     51 C          16.7603    0.7980   -1.6090 C.3     1  UNL1       -0.0653
     52 H         -15.0733    1.3442   -3.3622 H       1  UNL1        0.0230
     53 H         -16.8450    1.7744   -3.3435 H       1  UNL1        0.0230
     54 H         -16.3337    0.1017   -3.7492 H       1  UNL1        0.0230
     55 H         -16.5630    1.4196   -1.0665 H       1  UNL1        0.0263
     56 H         -16.8113   -0.3116   -1.5127 H       1  UNL1        0.0263
     57 H         -14.4798   -0.6590   -1.8000 H       1  UNL1        0.0265
     58 H         -14.1302    1.0857   -1.3036 H       1  UNL1        0.0265
     59 H         -15.7590   -0.9661    0.3261 H       1  UNL1        0.0265
     60 H         -15.4144    0.6798    0.8170 H       1  UNL1        0.0265
     61 H         -13.3859   -1.6214    0.5294 H       1  UNL1        0.0265
     62 H         -14.1352   -1.0432    2.0680 H       1  UNL1        0.0265
     63 H         -12.9222    1.1372    1.8265 H       1  UNL1        0.0265
     64 H         -11.9206   -0.3157    2.0528 H       1  UNL1        0.0265
     65 H         -10.8589    1.1368    0.7086 H       1  UNL1        0.0265
     66 H         -12.1785    1.3193   -0.5297 H       1  UNL1        0.0265
     67 H         -10.6295   -0.2569   -1.4955 H       1  UNL1        0.0265
     68 H         -12.0448   -1.1756   -0.9416 H       1  UNL1        0.0265
     69 H         -10.0026   -2.3300   -0.2485 H       1  UNL1        0.0265
     70 H         -11.0451   -1.8647    1.1067 H       1  UNL1        0.0265
     71 H          -8.7213   -1.5556    1.6303 H       1  UNL1        0.0265
     72 H          -9.5759   -0.0215    1.7273 H       1  UNL1        0.0265
     73 H          -8.5301    0.5103   -0.6557 H       1  UNL1        0.0265
     74 H          -7.7094   -1.1025   -0.4796 H       1  UNL1        0.0265
     75 H          -6.7175   -0.3427    1.6115 H       1  UNL1        0.0265
     76 H          -6.1942    0.5667    0.1280 H       1  UNL1        0.0265
     77 H          -8.2380    1.2050    2.3336 H       1  UNL1        0.0265
     78 H          -8.1078    2.2964    0.8935 H       1  UNL1        0.0265
     79 H          -7.0257    3.1342    2.9164 H       1  UNL1        0.0265
     80 H          -6.1954    1.6160    3.1881 H       1  UNL1        0.0265
     81 H          -4.7393    3.5719    2.4845 H       1  UNL1        0.0265
     82 H          -5.7133    3.7494    1.0092 H       1  UNL1        0.0265
     83 H          -4.5054    1.9487   -0.0831 H       1  UNL1        0.0270
     84 H          -3.4051    2.9063    0.8629 H       1  UNL1        0.0270
     85 H          -4.4673    0.3627    2.1449 H       1  UNL1        0.0377
     86 H          -3.1287    1.4053    2.6125 H       1  UNL1        0.0377
     87 H          -1.3121    0.6716   -2.0922 H       1  UNL1        0.0736
     88 H          -1.6142   -0.9642   -1.4622 H       1  UNL1        0.0736
     89 H           0.4506    1.1741   -0.6596 H       1  UNL1        0.0792
     90 H           1.5690   -0.1337    0.8314 H       1  UNL1        0.0604
     91 H          -0.0099    0.2027    1.5221 H       1  UNL1        0.0604
     92 H          -0.8224   -2.8089    3.2770 H       1  UNL1        0.2220
     93 H           1.1925   -5.0417    2.4925 H       1  UNL1        0.0578
     94 H           2.2275   -4.3221    3.8439 H       1  UNL1        0.0578
     95 H           3.2669   -6.3748    3.0003 H       1  UNL1        0.0444
     96 H           3.3337   -5.6013    1.3226 H       1  UNL1        0.0444
     97 H           5.2786   -4.6863    2.0654 H       1  UNL1        0.1183
     98 H           4.9682   -5.0716    3.6856 H       1  UNL1        0.1183
     99 H           3.5363   -0.1139   -3.6751 H       1  UNL1        0.0377
    100 H           2.2046   -1.2654   -3.6483 H       1  UNL1        0.0377
    101 H           4.2313   -2.3486   -3.0157 H       1  UNL1        0.0270
    102 H           2.9193   -2.4639   -1.8489 H       1  UNL1        0.0270
    103 H           4.8181   -2.3564   -0.5927 H       1  UNL1        0.0265
    104 H           3.8989   -0.8875   -0.3278 H       1  UNL1        0.0265
    105 H           6.1714   -0.4626   -0.2025 H       1  UNL1        0.0265
    106 H           6.6017   -1.0400   -1.8170 H       1  UNL1        0.0265
    107 H           5.0157    1.4944   -1.0536 H       1  UNL1        0.0265
    108 H           5.2192    1.0255   -2.7391 H       1  UNL1        0.0265
    109 H           7.6302    0.8449   -2.4448 H       1  UNL1        0.0265
    110 H           6.9246    2.5447   -2.2366 H       1  UNL1        0.0265
    111 H           7.7993    0.4775   -0.1359 H       1  UNL1        0.0265
    112 H           6.9598    2.0921    0.2626 H       1  UNL1        0.0265
    113 H           9.6114    1.7178   -1.2420 H       1  UNL1        0.0265
    114 H           8.7534    3.2773   -0.8501 H       1  UNL1        0.0265
    115 H           8.8244    2.8466    1.5152 H       1  UNL1        0.0265
    116 H          10.5191    2.8334    0.8184 H       1  UNL1        0.0265
    117 H           8.7166    0.4803    1.6578 H       1  UNL1        0.0265
    118 H          10.1390    1.0731    2.5018 H       1  UNL1        0.0265
    119 H          10.3630   -0.0645   -0.3643 H       1  UNL1        0.0265
    120 H          10.6725   -0.9431    1.2190 H       1  UNL1        0.0265
    121 H          11.9540    1.5985    0.0804 H       1  UNL1        0.0265
    122 H          12.4531    0.8114    1.6860 H       1  UNL1        0.0265
    123 H          12.5155   -0.5322   -1.0844 H       1  UNL1        0.0265
    124 H          12.9401   -1.2445    0.4864 H       1  UNL1        0.0265
    125 H          14.8951   -0.5567   -0.8038 H       1  UNL1        0.0265
    126 H          14.8229    0.1800    0.8370 H       1  UNL1        0.0265
    127 H          14.1329    1.4321   -1.8822 H       1  UNL1        0.0265
    128 H          14.0124    2.3466   -0.3042 H       1  UNL1        0.0265
    129 H          16.3148    1.9002    0.2131 H       1  UNL1        0.0263
    130 H          16.1885    2.8505   -1.2950 H       1  UNL1        0.0263
    131 H          17.7202    1.2076   -1.9372 H       1  UNL1        0.0230
    132 H          16.9110   -0.0904   -0.9489 H       1  UNL1        0.0230
    133 H          16.1780    0.4876   -2.5018 H       1  UNL1        0.0230
@<TRIPOS>BOND
     1     1     2    1
     2     2     3    1
     3     3     4    1
     4     4     5    1
     5     5     6    1
     6     6     7    1
     7     7     8    1
     8     8     9    1
     9     9    10    1
    10    10    11    1
    11    11    12    1
    12    12    13    1
    13    13    14    1
    14    14    15    1
    15    15    16    1
    16    16    17    1
    17    17    18    1
    18    18    19    2
    19    18    20    1
    20    20    21    1
    21    21    22    1
    22    22    23    1
    23    23    24    1
    24    25    24    1
    25    25    26    1
    26    25    27    2
    27    25    28    1
    28    28    29    1
    29    29    30    1
    30    30    31    1
    31    22    32    1
    32    32    33    1
    33    33    34    2
    34    33    35    1
    35    35    36    1
    36    36    37    1
    37    37    38    1
    38    38    39    1
    39    39    40    1
    40    40    41    1
    41    41    42    1
    42    42    43    1
    43    43    44    1
    44    44    45    1
    45    45    46    1
    46    46    47    1
    47    47    48    1
    48    48    49    1
    49    49    50    1
    50    50    51    1
    51     1    52    1
    52     1    53    1
    53     1    54    1
    54     2    55    1
    55     2    56    1
    56     3    57    1
    57     3    58    1
    58     4    59    1
    59     4    60    1
    60     5    61    1
    61     5    62    1
    62     6    63    1
    63     6    64    1
    64     7    65    1
    65     7    66    1
    66     8    67    1
    67     8    68    1
    68     9    69    1
    69     9    70    1
    70    10    71    1
    71    10    72    1
    72    11    73    1
    73    11    74    1
    74    12    75    1
    75    12    76    1
    76    13    77    1
    77    13    78    1
    78    14    79    1
    79    14    80    1
    80    15    81    1
    81    15    82    1
    82    16    83    1
    83    16    84    1
    84    17    85    1
    85    17    86    1
    86    21    87    1
    87    21    88    1
    88    22    89    1
    89    23    90    1
    90    23    91    1
    91    26    92    1
    92    29    93    1
    93    29    94    1
    94    30    95    1
    95    30    96    1
    96    31    97    1
    97    31    98    1
    98    35    99    1
    99    35   100    1
   100    36   101    1
   101    36   102    1
   102    37   103    1
   103    37   104    1
   104    38   105    1
   105    38   106    1
   106    39   107    1
   107    39   108    1
   108    40   109    1
   109    40   110    1
   110    41   111    1
   111    41   112    1
   112    42   113    1
   113    42   114    1
   114    43   115    1
   115    43   116    1
   116    44   117    1
   117    44   118    1
   118    45   119    1
   119    45   120    1
   120    46   121    1
   121    46   122    1
   122    47   123    1
   123    47   124    1
   124    48   125    1
   125    48   126    1
   126    49   127    1
   127    49   128    1
   128    50   129    1
   129    50   130    1
   130    51   131    1
   131    51   132    1
   132    51   133    1
