
     RDKit          3D

 13 14  0  0  0  0  0  0  0  0999 V2000
   -1.6223   -1.1349    0.1633 N   0  0  0  0  0  0  0  0  0  0  0  0
   -0.2038   -1.1182    0.0193 C   0  0  0  0  0  0  0  0  0  0  0  0
    1.0285   -1.4310   -0.0518 N   0  0  0  0  0  0  0  0  0  0  0  0
    1.9143   -0.3772   -0.3462 C   0  0  0  0  0  0  0  0  0  0  0  0
    3.1591   -0.5077   -0.4299 O   0  0  0  0  0  0  0  0  0  0  0  0
    1.0375    0.7204   -0.4935 N   0  0  0  0  0  0  0  0  0  0  0  0
   -0.2170    1.4566   -0.2651 C   0  0  0  0  0  0  0  0  0  0  0  0
   -0.0507    0.2889    0.4339 C   0  0  0  0  0  0  0  0  0  0  0  0
   -2.2663   -0.9327   -0.6575 H   0  0  0  0  0  0  0  0  0  0  0  0
   -2.1671   -1.3476    1.0495 H   0  0  0  0  0  0  0  0  0  0  0  0
   -0.9054    1.5558   -1.1414 H   0  0  0  0  0  0  0  0  0  0  0  0
    0.0100    2.4542    0.1796 H   0  0  0  0  0  0  0  0  0  0  0  0
    0.2832    0.3733    1.5398 H   0  0  0  0  0  0  0  0  0  0  0  0
  1  2  1  0
  2  3  2  0
  3  4  1  0
  4  5  2  0
  4  6  1  0
  6  7  1  0
  7  8  1  0
  8  2  1  0
  8  6  1  0
  1  9  1  0
  1 10  1  0
  7 11  1  0
  7 12  1  0
  8 13  1  0
M  END
$$$$
