@<TRIPOS>MOLECULE
*****
 13 14 0 0 0
SMALL
GASTEIGER

@<TRIPOS>ATOM
      1 N          -1.6223   -1.1349    0.1633 N.pl3   1  UNL1       -0.2502
      2 C          -0.2038   -1.1182    0.0193 C.2     1  UNL1        0.3030
      3 N           1.0285   -1.4310   -0.0518 N.am    1  UNL1        0.0410
      4 C           1.9143   -0.3772   -0.3462 C.2     1  UNL1        0.4368
      5 O           3.1591   -0.5077   -0.4299 O.2     1  UNL1       -0.2194
      6 N           1.0375    0.7204   -0.4935 N.am    1  UNL1       -0.2443
      7 C          -0.2170    1.4566   -0.2651 C.3     1  UNL1        0.0490
      8 C          -0.0507    0.2889    0.4339 C.3     1  UNL1        0.1460
      9 H          -2.2663   -0.9327   -0.6575 H       1  UNL1        0.2880
     10 H          -2.1671   -1.3476    1.0495 H       1  UNL1        0.2880
     11 H          -0.9054    1.5558   -1.1414 H       1  UNL1        0.0490
     12 H           0.0100    2.4542    0.1796 H       1  UNL1        0.0490
     13 H           0.2832    0.3733    1.5398 H       1  UNL1        0.0641
@<TRIPOS>BOND
     1     1     2    1
     2     2     3    2
     3     3     4    1
     4     4     5    2
     5     4     6   am
     6     6     7    1
     7     7     8    1
     8     8     2    1
     9     8     6    1
    10     1     9    1
    11     1    10    1
    12     7    11    1
    13     7    12    1
    14     8    13    1
