@<TRIPOS>MOLECULE
*****
 60 64 0 0 0
SMALL
GASTEIGER

@<TRIPOS>ATOM
      1 C          -3.4165    1.8238    1.6832 C.3     1  UNL1       -0.0493
      2 C          -3.6887    1.1200    0.3758 C.3     1  UNL1        0.0118
      3 N          -3.2218    1.8161   -0.7843 N.am    1  UNL1       -0.3015
      4 C          -4.0849    2.8090   -1.4591 C.3     1  UNL1        0.0118
      5 C          -3.7893    4.1282   -0.8091 C.3     1  UNL1       -0.0493
      6 C          -1.9313    1.5687   -1.3061 C.2     1  UNL1        0.2239
      7 O          -1.6419    2.2909   -2.3456 O.2     1  UNL1       -0.2749
      8 C          -0.9414    0.6281   -0.8197 C.3     1  UNL1        0.0702
      9 C          -1.3598   -0.7935   -0.7752 C.2     1  UNL1       -0.0652
     10 C          -0.6861   -1.6205   -0.0364 C.2     1  UNL1       -0.0220
     11 C          -1.1076   -3.0361    0.0052 C.ar    1  UNL1       -0.0109
     12 C          -2.3866   -3.4389   -0.3078 C.ar    1  UNL1       -0.0536
     13 C          -2.7024   -4.7768   -0.2312 C.ar    1  UNL1       -0.0592
     14 C          -1.7261   -5.7009    0.1609 C.ar    1  UNL1       -0.0378
     15 C          -0.4291   -5.2902    0.4779 C.ar    1  UNL1        0.0473
     16 N           0.7105   -5.8805    0.8735 N.ar    1  UNL1       -0.3604
     17 C           1.6765   -4.9258    1.0272 C.ar    1  UNL1        0.0060
     18 C           1.1156   -3.6826    0.7136 C.ar    1  UNL1       -0.0197
     19 C          -0.1724   -3.9647    0.3857 C.ar    1  UNL1        0.0103
     20 C           1.6162   -2.2893    0.6679 C.3     1  UNL1       -0.0028
     21 C           0.5008   -1.3032    0.8061 C.3     1  UNL1        0.0570
     22 N           0.9061    0.0768    0.5343 N.am    1  UNL1       -0.2770
     23 C           2.2249    0.5178    0.3475 C.2     1  UNL1        0.3070
     24 O           3.1936   -0.3117    0.4242 O.2     1  UNL1       -0.2523
     25 N           2.4884    1.8843    0.0723 N.am    1  UNL1       -0.2693
     26 C           3.8752    2.2321   -0.1015 C.ar    1  UNL1        0.0348
     27 C           4.3852    2.1610   -1.3731 C.ar    1  UNL1       -0.0404
     28 C           5.7174    2.4946   -1.5435 C.ar    1  UNL1       -0.0600
     29 C           6.4814    2.8807   -0.4587 C.ar    1  UNL1       -0.0616
     30 C           5.9284    2.9373    0.7954 C.ar    1  UNL1       -0.0600
     31 C           4.6001    2.6111    1.0038 C.ar    1  UNL1       -0.0404
     32 C          -0.2476    0.9961    0.4773 C.3     1  UNL1        0.0314
     33 H          -3.0426    1.1200    2.4551 H       1  UNL1        0.0245
     34 H          -4.2899    2.3275    2.0995 H       1  UNL1        0.0245
     35 H          -2.6053    2.5901    1.5675 H       1  UNL1        0.0245
     36 H          -4.8041    1.0783    0.2864 H       1  UNL1        0.0462
     37 H          -3.2462    0.1105    0.4493 H       1  UNL1        0.0462
     38 H          -3.7772    2.8157   -2.5275 H       1  UNL1        0.0462
     39 H          -5.1365    2.5128   -1.4205 H       1  UNL1        0.0462
     40 H          -2.7735    4.1734   -0.3651 H       1  UNL1        0.0245
     41 H          -4.4929    4.3705    0.0160 H       1  UNL1        0.0245
     42 H          -3.8653    4.9682   -1.5403 H       1  UNL1        0.0245
     43 H          -0.0786    0.6181   -1.5741 H       1  UNL1        0.0453
     44 H          -2.1972   -1.1112   -1.3455 H       1  UNL1        0.0583
     45 H          -3.1237   -2.7228   -0.6052 H       1  UNL1        0.0624
     46 H          -3.6846   -5.1486   -0.4638 H       1  UNL1        0.0618
     47 H          -1.9394   -6.7594    0.2322 H       1  UNL1        0.0638
     48 H           0.8219   -6.8929    1.0313 H       1  UNL1        0.1653
     49 H           2.7019   -5.0862    1.3370 H       1  UNL1        0.0810
     50 H           2.0803   -2.1395   -0.3456 H       1  UNL1        0.0335
     51 H           2.3465   -2.1022    1.4872 H       1  UNL1        0.0335
     52 H           0.1544   -1.3588    1.8875 H       1  UNL1        0.0554
     53 H           1.7890    2.6105   -0.0106 H       1  UNL1        0.1564
     54 H           3.7613    1.8574   -2.1878 H       1  UNL1        0.0636
     55 H           6.1258    2.4414   -2.5387 H       1  UNL1        0.0618
     56 H           7.5237    3.1396   -0.6042 H       1  UNL1        0.0618
     57 H           6.4981    3.2369    1.6751 H       1  UNL1        0.0618
     58 H           4.1709    2.6597    2.0059 H       1  UNL1        0.0636
     59 H          -0.8440    0.7009    1.3853 H       1  UNL1        0.0476
     60 H           0.0411    2.0281    0.4734 H       1  UNL1        0.0476
@<TRIPOS>BOND
     1     1     2    1
     2     2     3    1
     3     3     4    1
     4     4     5    1
     5     3     6   am
     6     6     7    2
     7     6     8    1
     8     8     9    1
     9     9    10    2
    10    10    11    1
    11    11    12   ar
    12    12    13   ar
    13    13    14   ar
    14    14    15   ar
    15    15    16   ar
    16    16    17   ar
    17    17    18   ar
    18    18    19   ar
    19    18    20    1
    20    20    21    1
    21    21    22    1
    22    22    23   am
    23    23    24    2
    24    23    25   am
    25    25    26    1
    26    26    27   ar
    27    27    28   ar
    28    28    29   ar
    29    29    30   ar
    30    30    31   ar
    31    22    32    1
    32    32     8    1
    33    21    10    1
    34    31    26   ar
    35    19    11   ar
    36    19    15   ar
    37     1    33    1
    38     1    34    1
    39     1    35    1
    40     2    36    1
    41     2    37    1
    42     4    38    1
    43     4    39    1
    44     5    40    1
    45     5    41    1
    46     5    42    1
    47     8    43    1
    48     9    44    1
    49    12    45    1
    50    13    46    1
    51    14    47    1
    52    16    48    1
    53    17    49    1
    54    20    50    1
    55    20    51    1
    56    21    52    1
    57    25    53    1
    58    27    54    1
    59    28    55    1
    60    29    56    1
    61    30    57    1
    62    31    58    1
    63    32    59    1
    64    32    60    1
