@<TRIPOS>MOLECULE
*****
 53 55 0 0 0
SMALL
GASTEIGER

@<TRIPOS>ATOM
      1 C           0.1347    3.5951   -0.6144 C.2     0  UNK0       -0.0951
      2 C          -1.0853    3.2657   -0.4204 C.2     0  UNK0       -0.0472
      3 C          -1.9798    4.5073   -0.1406 C.3     0  UNK0       -0.0396
      4 C          -1.7823    2.0324   -0.3184 C.ar    0  UNK0        0.0166
      5 C          -3.1775    2.0660   -0.5093 C.ar    0  UNK0        0.0374
      6 N          -3.9573    1.0031   -0.4107 N.ar    0  UNK0       -0.2542
      7 C          -3.4294   -0.2213   -0.1102 C.ar    0  UNK0        0.0755
      8 C          -4.3331   -1.3653   -0.0217 C.ar    0  UNK0        0.0369
      9 C          -5.6850   -1.1578   -0.3285 C.ar    0  UNK0       -0.0314
     10 C          -6.6295   -2.1509   -0.2737 C.ar    0  UNK0        0.0418
     11 CL         -8.3074   -1.8550   -0.6638 Cl      0  UNK0       -0.0835
     12 C          -6.1983   -3.3984    0.1035 C.ar    0  UNK0       -0.0406
     13 C          -4.9078   -3.6736    0.4148 C.ar    0  UNK0       -0.0244
     14 C          -3.9846   -2.6143    0.3404 C.ar    0  UNK0        0.1326
     15 F          -2.7132   -2.9277    0.6668 F       0  UNK0       -0.2048
     16 C          -2.0824   -0.3270    0.0875 C.ar    0  UNK0       -0.0138
     17 C          -1.2505    0.8170   -0.0142 C.ar    0  UNK0        0.0423
     18 N           0.0792    0.6527    0.3718 N.pl3   0  UNK0       -0.3133
     19 C           0.6452   -0.3992    1.1774 C.ar    0  UNK0        0.0465
     20 C          -0.1559   -1.0816    2.0900 C.ar    0  UNK0       -0.0217
     21 C           0.4010   -2.1250    2.7930 C.ar    0  UNK0        0.0293
     22 N           1.6803   -2.4818    2.6134 N.ar    0  UNK0       -0.2624
     23 C           2.4513   -1.8182    1.7310 C.ar    0  UNK0        0.0415
     24 C           1.9633   -0.7457    0.9730 C.ar    0  UNK0        0.0758
     25 C           2.8641   -0.1404    0.0090 C.2     0  UNK0        0.2476
     26 O           2.4607    0.7007   -0.8259 O.2     0  UNK0       -0.2701
     27 N           4.2589   -0.4316   -0.0825 N.am    1  ALA1       -0.3065
     28 CA          5.0962    0.2324   -1.0960 C.3     1  ALA1        0.0437
     29 CB          5.6959   -0.8009   -2.0172 C.3     1  ALA1       -0.0445
     30 C           6.1908    1.0279   -0.4099 C.3     1  ALA1        0.0623
     31 O           7.0055    0.2047    0.3658 O.3     1  ALA1       -0.3932
     32 H           0.3969    4.6793   -0.5562 H       0  UNK0        0.0538
     33 H           0.9587    3.0037   -0.8740 H       0  UNK0        0.0538
     34 H          -2.5573    4.7332   -1.0477 H       0  UNK0        0.0278
     35 H          -1.3722    5.3347    0.2335 H       0  UNK0        0.0278
     36 H          -2.6891    4.2037    0.6519 H       0  UNK0        0.0278
     37 H          -3.6426    3.0355   -0.7621 H       0  UNK0        0.0836
     38 H          -5.9964   -0.1609   -0.6239 H       0  UNK0        0.0639
     39 H          -6.9252   -4.1940    0.1530 H       0  UNK0        0.0633
     40 H          -4.5976   -4.6566    0.7063 H       0  UNK0        0.0647
     41 H          -1.5813   -1.2624    0.2504 H       0  UNK0        0.0658
     42 H           0.7580    1.3611    0.1039 H       0  UNK0        0.1522
     43 H          -1.1977   -0.7760    2.2966 H       0  UNK0        0.0651
     44 H          -0.2508   -2.6371    3.4950 H       0  UNK0        0.0830
     45 H           3.4713   -2.1470    1.6232 H       0  UNK0        0.0838
     46 H           4.6727   -1.1093    0.5727 H       1  ALA1        0.1494
     47 HA          4.4840    0.9151   -1.6899 H       1  ALA1        0.0518
     48 HB1         6.6740   -0.5129   -2.4177 H       1  ALA1        0.0248
     49 HB2         4.9623   -0.9636   -2.8445 H       1  ALA1        0.0248
     50 HB3         5.7707   -1.7944   -1.4881 H       1  ALA1        0.0248
     51 H1          6.8386    1.4674   -1.1945 H       1  ALA1        0.0575
     52 H2          5.7678    1.8424    0.1816 H       1  ALA1        0.0575
     53 H           6.7873   -0.7510    0.2489 H       1  ALA1        0.2095
@<TRIPOS>BOND
     1     1     2    2
     2     2     3    1
     3     2     4    1
     4     4     5   ar
     5     5     6   ar
     6     6     7   ar
     7     7     8    1
     8     8     9   ar
     9     9    10   ar
    10    10    11    1
    11    10    12   ar
    12    12    13   ar
    13    13    14   ar
    14    14    15    1
    15     7    16   ar
    16    16    17   ar
    17    17    18    1
    18    18    19    1
    19    19    20   ar
    20    20    21   ar
    21    21    22   ar
    22    22    23   ar
    23    23    24   ar
    24    24    25    1
    25    25    26    2
    26    25    27   am
    27    27    28    1
    28    28    29    1
    29    28    30    1
    30    30    31    1
    31    17     4   ar
    32    24    19   ar
    33    14     8   ar
    34     1    32    1
    35     1    33    1
    36     3    34    1
    37     3    35    1
    38     3    36    1
    39     5    37    1
    40     9    38    1
    41    12    39    1
    42    13    40    1
    43    16    41    1
    44    18    42    1
    45    20    43    1
    46    21    44    1
    47    23    45    1
    48    27    46    1
    49    28    47    1
    50    29    48    1
    51    29    49    1
    52    29    50    1
    53    30    51    1
    54    30    52    1
    55    31    53    1
