
     RDKit          3D

 57 62  0  0  0  0  0  0  0  0999 V2000
    7.4781   -0.4573   -1.6387 C   0  0  0  0  0  0  0  0  0  0  0  0
    8.0256    0.2245   -0.5032 N   0  0  0  0  0  0  0  0  0  0  0  0
    7.7107   -0.4897    0.7210 C   0  0  0  0  0  0  0  0  0  0  0  0
    6.5248    0.1837    1.4272 C   0  0  0  0  0  0  0  0  0  0  0  0
    5.5261    0.6718    0.3852 C   0  0  0  0  0  0  0  0  0  0  0  0
    4.3946    1.2251    0.9938 O   0  0  0  0  0  0  0  0  0  0  0  0
    3.1032    0.7948    0.8035 C   0  0  0  0  0  0  0  0  0  0  0  0
    2.7134   -0.2357   -0.0047 C   0  0  0  0  0  0  0  0  0  0  0  0
    1.3764   -0.5562   -0.0976 C   0  0  0  0  0  0  0  0  0  0  0  0
    0.3803    0.0845    0.5664 C   0  0  0  0  0  0  0  0  0  0  0  0
   -1.0210   -0.2648    0.4579 C   0  0  0  0  0  0  0  0  0  0  0  0
   -2.0060    0.4120    1.1506 C   0  0  0  0  0  0  0  0  0  0  0  0
   -3.2896    0.0696    1.0325 N   0  0  0  0  0  0  0  0  0  0  0  0
   -3.6638   -0.9383    0.2410 C   0  0  0  0  0  0  0  0  0  0  0  0
   -4.9230   -1.4883   -0.0533 C   0  0  0  0  0  0  0  0  0  0  0  0
   -6.1881   -1.0611    0.4678 C   0  0  0  0  0  0  0  0  0  0  0  0
   -6.7229   -1.5933    1.6394 C   0  0  0  0  0  0  0  0  0  0  0  0
   -7.9389   -1.1892    2.1491 C   0  0  0  0  0  0  0  0  0  0  0  0
   -8.6315   -0.2219    1.4555 C   0  0  0  0  0  0  0  0  0  0  0  0
   -8.1067    0.3129    0.2891 C   0  0  0  0  0  0  0  0  0  0  0  0
   -8.7847    1.2689   -0.4018 N   0  0  0  0  0  0  0  0  0  0  0  0
   -8.2892    1.7967   -1.5337 C   0  0  0  0  0  0  0  0  0  0  0  0
   -7.0701    1.3955   -2.0500 C   0  0  0  0  0  0  0  0  0  0  0  0
   -6.3421    0.4267   -1.3850 C   0  0  0  0  0  0  0  0  0  0  0  0
   -6.8964   -0.0841   -0.2252 C   0  0  0  0  0  0  0  0  0  0  0  0
   -4.6828   -2.5093   -0.9358 C   0  0  0  0  0  0  0  0  0  0  0  0
   -3.3638   -2.5827   -1.1690 N   0  0  0  0  0  0  0  0  0  0  0  0
   -2.7587   -1.6275   -0.4515 N   0  0  0  0  0  0  0  0  0  0  0  0
   -1.4406   -1.2881   -0.3404 C   0  0  0  0  0  0  0  0  0  0  0  0
    0.7814    1.1139    1.3722 N   0  0  0  0  0  0  0  0  0  0  0  0
    2.0665    1.4510    1.4856 C   0  0  0  0  0  0  0  0  0  0  0  0
    6.1821    1.8059   -0.4070 C   0  0  0  0  0  0  0  0  0  0  0  0
    7.6668    1.5995   -0.3758 C   0  0  0  0  0  0  0  0  0  0  0  0
    8.2902   -0.7596   -2.3662 H   0  0  0  0  0  0  0  0  0  0  0  0
    6.7114    0.1084   -2.1911 H   0  0  0  0  0  0  0  0  0  0  0  0
    7.0508   -1.4425   -1.2898 H   0  0  0  0  0  0  0  0  0  0  0  0
    7.4125   -1.5217    0.4745 H   0  0  0  0  0  0  0  0  0  0  0  0
    8.5488   -0.4653    1.4504 H   0  0  0  0  0  0  0  0  0  0  0  0
    6.8862    1.0131    2.0526 H   0  0  0  0  0  0  0  0  0  0  0  0
    6.0617   -0.5918    2.0684 H   0  0  0  0  0  0  0  0  0  0  0  0
    5.2837   -0.1723   -0.2870 H   0  0  0  0  0  0  0  0  0  0  0  0
    3.4415   -0.7893   -0.5611 H   0  0  0  0  0  0  0  0  0  0  0  0
    1.1120   -1.3961   -0.7632 H   0  0  0  0  0  0  0  0  0  0  0  0
   -1.6894    1.2408    1.8003 H   0  0  0  0  0  0  0  0  0  0  0  0
   -6.1795   -2.3646    2.2000 H   0  0  0  0  0  0  0  0  0  0  0  0
   -8.3436   -1.6186    3.0714 H   0  0  0  0  0  0  0  0  0  0  0  0
   -9.5860    0.1106    1.8352 H   0  0  0  0  0  0  0  0  0  0  0  0
   -8.8753    2.5556   -2.0410 H   0  0  0  0  0  0  0  0  0  0  0  0
   -6.6902    1.8296   -2.9569 H   0  0  0  0  0  0  0  0  0  0  0  0
   -5.3862    0.1021   -1.7763 H   0  0  0  0  0  0  0  0  0  0  0  0
   -5.4184   -3.1832   -1.4017 H   0  0  0  0  0  0  0  0  0  0  0  0
   -0.7669   -1.9019   -0.9401 H   0  0  0  0  0  0  0  0  0  0  0  0
    2.3983    2.2786    2.1322 H   0  0  0  0  0  0  0  0  0  0  0  0
    5.9123    2.7830    0.0527 H   0  0  0  0  0  0  0  0  0  0  0  0
    5.7991    1.7769   -1.4682 H   0  0  0  0  0  0  0  0  0  0  0  0
    8.0194    1.9321    0.6382 H   0  0  0  0  0  0  0  0  0  0  0  0
    8.1977    2.2270   -1.1246 H   0  0  0  0  0  0  0  0  0  0  0  0
  1  2  1  0
  2  3  1  0
  3  4  1  0
  4  5  1  0
  5  6  1  0
  6  7  1  0
  7  8  2  0
  8  9  1  0
  9 10  2  0
 10 11  1  0
 11 12  1  0
 12 13  2  0
 13 14  1  0
 14 15  2  0
 15 16  1  0
 16 17  2  0
 17 18  1  0
 18 19  2  0
 19 20  1  0
 20 21  2  0
 21 22  1  0
 22 23  2  0
 23 24  1  0
 24 25  2  0
 15 26  1  0
 26 27  2  0
 27 28  1  0
 28 29  1  0
 10 30  1  0
 30 31  2  0
  5 32  1  0
 32 33  1  0
 33  2  1  0
 31  7  1  0
 29 11  2  0
 28 14  1  0
 25 16  1  0
 25 20  1  0
  1 34  1  0
  1 35  1  0
  1 36  1  0
  3 37  1  0
  3 38  1  0
  4 39  1  0
  4 40  1  0
  5 41  1  0
  8 42  1  0
  9 43  1  0
 12 44  1  0
 17 45  1  0
 18 46  1  0
 19 47  1  0
 22 48  1  0
 23 49  1  0
 24 50  1  0
 26 51  1  0
 29 52  1  0
 31 53  1  0
 32 54  1  0
 32 55  1  0
 33 56  1  0
 33 57  1  0
M  END
$$$$
