@<TRIPOS>MOLECULE
*****
 57 62 0 0 0
SMALL
GASTEIGER

@<TRIPOS>ATOM
      1 C           7.4781   -0.4573   -1.6387 C.3     1  UNL1       -0.0128
      2 N           8.0256    0.2245   -0.5032 N.3     1  UNL1       -0.3051
      3 C           7.7107   -0.4897    0.7210 C.3     1  UNL1        0.0019
      4 C           6.5248    0.1837    1.4272 C.3     1  UNL1       -0.0029
      5 C           5.5261    0.6718    0.3852 C.3     1  UNL1        0.1026
      6 O           4.3946    1.2251    0.9938 O.3     1  UNL1       -0.4872
      7 C           3.1032    0.7948    0.8035 C.ar    1  UNL1        0.1389
      8 C           2.7134   -0.2357   -0.0047 C.ar    1  UNL1       -0.0164
      9 C           1.3764   -0.5562   -0.0976 C.ar    1  UNL1       -0.0321
     10 C           0.3803    0.0845    0.5664 C.ar    1  UNL1        0.0741
     11 C          -1.0210   -0.2648    0.4579 C.ar    1  UNL1        0.0366
     12 C          -2.0060    0.4120    1.1506 C.ar    1  UNL1        0.0406
     13 N          -3.2896    0.0696    1.0325 N.ar    1  UNL1       -0.2349
     14 C          -3.6638   -0.9383    0.2410 C.ar    1  UNL1        0.1632
     15 C          -4.9230   -1.4883   -0.0533 C.ar    1  UNL1        0.0466
     16 C          -6.1881   -1.0611    0.4678 C.ar    1  UNL1       -0.0037
     17 C          -6.7229   -1.5933    1.6394 C.ar    1  UNL1       -0.0532
     18 C          -7.9389   -1.1892    2.1491 C.ar    1  UNL1       -0.0591
     19 C          -8.6315   -0.2219    1.4555 C.ar    1  UNL1       -0.0357
     20 C          -8.1067    0.3129    0.2891 C.ar    1  UNL1        0.0715
     21 N          -8.7847    1.2689   -0.4018 N.ar    1  UNL1       -0.2550
     22 C          -8.2892    1.7967   -1.5337 C.ar    1  UNL1        0.0283
     23 C          -7.0701    1.3955   -2.0500 C.ar    1  UNL1       -0.0430
     24 C          -6.3421    0.4267   -1.3850 C.ar    1  UNL1       -0.0506
     25 C          -6.8964   -0.0841   -0.2252 C.ar    1  UNL1        0.0082
     26 C          -4.6828   -2.5093   -0.9358 C.ar    1  UNL1        0.0597
     27 N          -3.3638   -2.5827   -1.1690 N.ar    1  UNL1       -0.1727
     28 N          -2.7587   -1.6275   -0.4515 N.ar    1  UNL1       -0.2205
     29 C          -1.4406   -1.2881   -0.3404 C.ar    1  UNL1        0.0420
     30 N           0.7814    1.1139    1.3722 N.ar    1  UNL1       -0.2513
     31 C           2.0665    1.4510    1.4856 C.ar    1  UNL1        0.0699
     32 C           6.1821    1.8059   -0.4070 C.3     1  UNL1       -0.0029
     33 C           7.6668    1.5995   -0.3758 C.3     1  UNL1        0.0019
     34 H           8.2902   -0.7596   -2.3662 H       1  UNL1        0.0391
     35 H           6.7114    0.1084   -2.1911 H       1  UNL1        0.0391
     36 H           7.0508   -1.4425   -1.2898 H       1  UNL1        0.0391
     37 H           7.4125   -1.5217    0.4745 H       1  UNL1        0.0428
     38 H           8.5488   -0.4653    1.4504 H       1  UNL1        0.0428
     39 H           6.8862    1.0131    2.0526 H       1  UNL1        0.0313
     40 H           6.0617   -0.5918    2.0684 H       1  UNL1        0.0313
     41 H           5.2837   -0.1723   -0.2870 H       1  UNL1        0.0733
     42 H           3.4415   -0.7893   -0.5611 H       1  UNL1        0.0655
     43 H           1.1120   -1.3961   -0.7632 H       1  UNL1        0.0640
     44 H          -1.6894    1.2408    1.8003 H       1  UNL1        0.0837
     45 H          -6.1795   -2.3646    2.2000 H       1  UNL1        0.0624
     46 H          -8.3436   -1.6186    3.0714 H       1  UNL1        0.0618
     47 H          -9.5860    0.1106    1.8352 H       1  UNL1        0.0639
     48 H          -8.8753    2.5556   -2.0410 H       1  UNL1        0.0830
     49 H          -6.6902    1.8296   -2.9569 H       1  UNL1        0.0633
     50 H          -5.3862    0.1021   -1.7763 H       1  UNL1        0.0625
     51 H          -5.4184   -3.1832   -1.4017 H       1  UNL1        0.0855
     52 H          -0.7669   -1.9019   -0.9401 H       1  UNL1        0.0838
     53 H           2.3983    2.2786    2.1322 H       1  UNL1        0.0867
     54 H           5.9123    2.7830    0.0527 H       1  UNL1        0.0313
     55 H           5.7991    1.7769   -1.4682 H       1  UNL1        0.0313
     56 H           8.0194    1.9321    0.6382 H       1  UNL1        0.0428
     57 H           8.1977    2.2270   -1.1246 H       1  UNL1        0.0428
@<TRIPOS>BOND
     1     1     2    1
     2     2     3    1
     3     3     4    1
     4     4     5    1
     5     5     6    1
     6     6     7    1
     7     7     8   ar
     8     8     9   ar
     9     9    10   ar
    10    10    11    1
    11    11    12   ar
    12    12    13   ar
    13    13    14   ar
    14    14    15   ar
    15    15    16    1
    16    16    17   ar
    17    17    18   ar
    18    18    19   ar
    19    19    20   ar
    20    20    21   ar
    21    21    22   ar
    22    22    23   ar
    23    23    24   ar
    24    24    25   ar
    25    15    26   ar
    26    26    27   ar
    27    27    28   ar
    28    28    29   ar
    29    10    30   ar
    30    30    31   ar
    31     5    32    1
    32    32    33    1
    33    33     2    1
    34    31     7   ar
    35    29    11   ar
    36    28    14   ar
    37    25    16   ar
    38    25    20   ar
    39     1    34    1
    40     1    35    1
    41     1    36    1
    42     3    37    1
    43     3    38    1
    44     4    39    1
    45     4    40    1
    46     5    41    1
    47     8    42    1
    48     9    43    1
    49    12    44    1
    50    17    45    1
    51    18    46    1
    52    19    47    1
    53    22    48    1
    54    23    49    1
    55    24    50    1
    56    26    51    1
    57    29    52    1
    58    31    53    1
    59    32    54    1
    60    32    55    1
    61    33    56    1
    62    33    57    1
