@<TRIPOS>MOLECULE
*****
 63 66 0 0 0
SMALL
GASTEIGER

@<TRIPOS>ATOM
      1 C          -9.6380   -1.6021   -0.5417 C.3     1  UNL1        0.0790
      2 O          -8.5049   -1.2177   -1.2902 O.3     1  UNL1       -0.4915
      3 C          -7.4981   -0.4541   -0.7180 C.ar    1  UNL1        0.1615
      4 C          -7.5201   -0.0200    0.5896 C.ar    1  UNL1       -0.0156
      5 C          -6.5061    0.7359    1.1280 C.ar    1  UNL1       -0.0459
      6 C          -5.3940    1.1062    0.3752 C.ar    1  UNL1        0.0404
      7 C          -4.3449    1.9126    0.9967 C.2     1  UNL1        0.2445
      8 O          -4.5121    2.2602    2.1978 O.2     1  UNL1       -0.2702
      9 N          -3.1617    2.3242    0.3389 N.am    1  UNL1       -0.3072
     10 C          -2.1075    3.1165    0.9191 C.3     1  UNL1        0.0372
     11 C          -1.2144    2.3673    1.8301 C.ar    1  UNL1       -0.0296
     12 C          -1.4729    2.3563    3.1797 C.ar    1  UNL1       -0.0570
     13 C          -0.6057    1.6282    3.9935 C.ar    1  UNL1       -0.0607
     14 C           0.4618    0.9550    3.4402 C.ar    1  UNL1       -0.0496
     15 C           0.7287    0.9616    2.0826 C.ar    1  UNL1        0.0373
     16 C           1.8658    0.2426    1.5226 C.2     1  UNL1        0.2483
     17 O           2.6080   -0.3814    2.3301 O.2     1  UNL1       -0.2699
     18 N           2.2073    0.1837    0.1652 N.am    1  UNL1       -0.2815
     19 C           3.3419   -0.5407   -0.3260 C.ar    1  UNL1        0.0340
     20 C           3.2231   -1.8665   -0.6903 C.ar    1  UNL1       -0.0402
     21 C           4.2860   -2.6038   -1.1685 C.ar    1  UNL1       -0.0565
     22 C           5.5033   -2.0028   -1.2873 C.ar    1  UNL1       -0.0416
     23 C           5.6519   -0.6807   -0.9315 C.ar    1  UNL1       -0.0284
     24 C           4.5740    0.0686   -0.4460 C.ar    1  UNL1       -0.0358
     25 C           6.9954   -0.0827   -1.0859 C.3     1  UNL1        0.0241
     26 N           8.0320   -0.9543   -0.6470 N.3     1  UNL1       -0.3008
     27 C           9.3040   -0.5514   -1.2383 C.3     1  UNL1       -0.0124
     28 C           7.8383   -2.3454   -0.8462 C.3     1  UNL1        0.0029
     29 C           6.7205   -2.6980   -1.7883 C.3     1  UNL1       -0.0146
     30 C          -0.1267    1.6796    1.2798 C.ar    1  UNL1       -0.0449
     31 C          -5.3686    0.6745   -0.9310 C.ar    1  UNL1       -0.0042
     32 C          -6.3990   -0.0880   -1.4616 C.ar    1  UNL1        0.1622
     33 O          -6.3232   -0.4957   -2.7807 O.3     1  UNL1       -0.4914
     34 C          -5.2174   -0.1481   -3.5880 C.3     1  UNL1        0.0790
     35 H         -10.2648   -0.7101   -0.4072 H       1  UNL1        0.0660
     36 H         -10.1932   -2.4367   -1.0314 H       1  UNL1        0.0660
     37 H          -9.3354   -1.9638    0.4688 H       1  UNL1        0.0660
     38 H          -8.3885   -0.3081    1.1794 H       1  UNL1        0.0655
     39 H          -6.5694    1.0501    2.1538 H       1  UNL1        0.0626
     40 H          -3.0784    1.9997   -0.6746 H       1  UNL1        0.1493
     41 H          -2.5033    3.9989    1.4940 H       1  UNL1        0.0512
     42 H          -1.5289    3.5765    0.0770 H       1  UNL1        0.0512
     43 H          -2.3014    2.8831    3.6289 H       1  UNL1        0.0621
     44 H          -0.8122    1.6216    5.0556 H       1  UNL1        0.0618
     45 H           1.1429    0.3856    4.0618 H       1  UNL1        0.0625
     46 H           1.6145    0.6867   -0.5281 H       1  UNL1        0.1551
     47 H           2.2486   -2.3081   -0.5836 H       1  UNL1        0.0636
     48 H           4.1581   -3.6398   -1.4448 H       1  UNL1        0.0621
     49 H           4.7286    1.1001   -0.1775 H       1  UNL1        0.0639
     50 H           7.0714    0.9055   -0.5812 H       1  UNL1        0.0476
     51 H           7.1623    0.1259   -2.1806 H       1  UNL1        0.0476
     52 H          10.1322   -0.8589   -0.5677 H       1  UNL1        0.0391
     53 H           9.3488   -1.0572   -2.2366 H       1  UNL1        0.0391
     54 H           9.3016    0.5517   -1.3858 H       1  UNL1        0.0391
     55 H           8.7664   -2.8302   -1.2376 H       1  UNL1        0.0430
     56 H           7.6730   -2.8210    0.1587 H       1  UNL1        0.0430
     57 H           6.9989   -2.4265   -2.8071 H       1  UNL1        0.0326
     58 H           6.5517   -3.8032   -1.6963 H       1  UNL1        0.0326
     59 H           0.0402    1.7170    0.1977 H       1  UNL1        0.0628
     60 H          -4.5095    0.9473   -1.5526 H       1  UNL1        0.0663
     61 H          -5.2038    0.9569   -3.6579 H       1  UNL1        0.0660
     62 H          -4.2799   -0.5710   -3.1663 H       1  UNL1        0.0660
     63 H          -5.3973   -0.6121   -4.5926 H       1  UNL1        0.0660
@<TRIPOS>BOND
     1     1     2    1
     2     2     3    1
     3     3     4   ar
     4     4     5   ar
     5     5     6   ar
     6     6     7    1
     7     7     8    2
     8     7     9   am
     9     9    10    1
    10    10    11    1
    11    11    12   ar
    12    12    13   ar
    13    13    14   ar
    14    14    15   ar
    15    15    16    1
    16    16    17    2
    17    16    18   am
    18    18    19    1
    19    19    20   ar
    20    20    21   ar
    21    21    22   ar
    22    22    23   ar
    23    23    24   ar
    24    23    25    1
    25    25    26    1
    26    26    27    1
    27    26    28    1
    28    28    29    1
    29    15    30   ar
    30     6    31   ar
    31    31    32   ar
    32    32    33    1
    33    33    34    1
    34    32     3   ar
    35    30    11   ar
    36    24    19   ar
    37    29    22    1
    38     1    35    1
    39     1    36    1
    40     1    37    1
    41     4    38    1
    42     5    39    1
    43     9    40    1
    44    10    41    1
    45    10    42    1
    46    12    43    1
    47    13    44    1
    48    14    45    1
    49    18    46    1
    50    20    47    1
    51    21    48    1
    52    24    49    1
    53    25    50    1
    54    25    51    1
    55    27    52    1
    56    27    53    1
    57    27    54    1
    58    28    55    1
    59    28    56    1
    60    29    57    1
    61    29    58    1
    62    30    59    1
    63    31    60    1
    64    34    61    1
    65    34    62    1
    66    34    63    1
