@<TRIPOS>MOLECULE
*****
 56 60 0 0 0
SMALL
GASTEIGER

@<TRIPOS>ATOM
      1 O           8.1474    1.9224    2.0275 O.2     1  UNL1       -0.2506
      2 C           7.4187    1.7783    1.0208 C.2     1  UNL1        0.3100
      3 O           7.5735    2.6533   -0.0364 O.3     1  UNL1       -0.4804
      4 C           6.3990    0.7114    0.9145 C.3     1  UNL1        0.0796
      5 C           6.6674   -0.2183   -0.2758 C.3     1  UNL1       -0.0354
      6 C           5.6577   -1.3371   -0.1444 C.3     1  UNL1       -0.0228
      7 C           4.2420   -0.7945   -0.1026 C.3     1  UNL1        0.0724
      8 C           3.4943   -1.3606   -1.2789 C.3     1  UNL1       -0.0079
      9 C           2.0403   -1.5210   -1.0705 C.3     1  UNL1        0.0161
     10 N           1.4757   -0.8568    0.0522 N.pl3   1  UNL1       -0.3150
     11 C           0.0519   -0.5995    0.0901 C.ar    1  UNL1        0.1212
     12 C          -0.5548    0.1230    1.0648 C.ar    1  UNL1       -0.0210
     13 C          -1.9300    0.3153    1.0320 C.ar    1  UNL1       -0.0464
     14 C          -2.6891   -0.2143    0.0277 C.ar    1  UNL1        0.0355
     15 C          -4.1368   -0.0238   -0.0196 C.ar    1  UNL1        0.1407
     16 N          -4.9043    0.6632    0.8643 N.ar    1  UNL1       -0.2277
     17 C          -6.2083    0.6043    0.4703 C.ar    1  UNL1        0.0900
     18 C          -7.3908    1.1126    0.9831 C.ar    1  UNL1       -0.0226
     19 C          -8.6144    0.9061    0.3812 C.ar    1  UNL1        0.0569
     20 C          -9.8865    1.4507    0.9301 C.3     1  UNL1        0.4175
     21 F         -10.7895    1.7849   -0.0460 F       1  UNL1       -0.1659
     22 F          -9.6288    2.5744    1.7002 F       1  UNL1       -0.1659
     23 F         -10.4350    0.5171    1.8203 F       1  UNL1       -0.1659
     24 C          -8.6424    0.1503   -0.7943 C.ar    1  UNL1       -0.0480
     25 C          -7.4650   -0.3473   -1.2921 C.ar    1  UNL1       -0.0357
     26 C          -6.2323   -0.1370   -0.6821 C.ar    1  UNL1        0.0665
     27 N          -4.9705   -0.5072   -0.9614 N.ar    1  UNL1       -0.3378
     28 C          -2.0285   -0.9406   -0.9405 C.ar    1  UNL1        0.0403
     29 N          -0.6991   -1.1252   -0.9066 N.ar    1  UNL1       -0.2396
     30 C           2.2351   -0.4080    1.1939 C.3     1  UNL1        0.0161
     31 C           3.5370   -1.1756    1.1836 C.3     1  UNL1       -0.0079
     32 O           4.2495    0.5780   -0.2007 O.3     1  UNL1       -0.3724
     33 C           5.0086    1.2434    0.7245 C.3     1  UNL1        0.0613
     34 H           8.4699    3.1410   -0.1166 H       1  UNL1        0.2951
     35 H           6.5102    0.0695    1.8111 H       1  UNL1        0.0436
     36 H           6.5786    0.3574   -1.1965 H       1  UNL1        0.0275
     37 H           7.6786   -0.6417   -0.1461 H       1  UNL1        0.0275
     38 H           5.8143   -2.0084   -1.0198 H       1  UNL1        0.0293
     39 H           5.9213   -1.9155    0.7644 H       1  UNL1        0.0293
     40 H           3.9743   -2.3429   -1.5463 H       1  UNL1        0.0308
     41 H           3.6857   -0.6940   -2.1438 H       1  UNL1        0.0308
     42 H           1.7949   -2.6115   -1.0083 H       1  UNL1        0.0465
     43 H           1.4670   -1.1590   -1.9762 H       1  UNL1        0.0465
     44 H           0.0490    0.5514    1.8687 H       1  UNL1        0.0652
     45 H          -2.3999    0.8870    1.8052 H       1  UNL1        0.0626
     46 H          -7.3693    1.6927    1.8845 H       1  UNL1        0.0645
     47 H          -9.5951   -0.0209   -1.2793 H       1  UNL1        0.0624
     48 H          -7.4482   -0.9376   -2.2009 H       1  UNL1        0.0639
     49 H          -4.6638   -1.0804   -1.7781 H       1  UNL1        0.1674
     50 H          -2.6406   -1.3642   -1.7456 H       1  UNL1        0.0837
     51 H           2.3630    0.6836    1.0716 H       1  UNL1        0.0465
     52 H           1.6966   -0.5495    2.1543 H       1  UNL1        0.0465
     53 H           3.2742   -2.2573    1.1115 H       1  UNL1        0.0308
     54 H           4.1622   -0.9646    2.0720 H       1  UNL1        0.0308
     55 H           5.1242    2.2970    0.3335 H       1  UNL1        0.0568
     56 H           4.5610    1.3463    1.7297 H       1  UNL1        0.0568
@<TRIPOS>BOND
     1     1     2    2
     2     2     3    1
     3     2     4    1
     4     4     5    1
     5     5     6    1
     6     6     7    1
     7     7     8    1
     8     8     9    1
     9     9    10    1
    10    10    11    1
    11    11    12   ar
    12    12    13   ar
    13    13    14   ar
    14    14    15    1
    15    15    16   ar
    16    16    17   ar
    17    17    18   ar
    18    18    19   ar
    19    19    20    1
    20    20    21    1
    21    20    22    1
    22    20    23    1
    23    19    24   ar
    24    24    25   ar
    25    25    26   ar
    26    26    27   ar
    27    14    28   ar
    28    28    29   ar
    29    10    30    1
    30    30    31    1
    31     7    32    1
    32    32    33    1
    33    33     4    1
    34    31     7    1
    35    29    11   ar
    36    27    15   ar
    37    26    17   ar
    38     3    34    1
    39     4    35    1
    40     5    36    1
    41     5    37    1
    42     6    38    1
    43     6    39    1
    44     8    40    1
    45     8    41    1
    46     9    42    1
    47     9    43    1
    48    12    44    1
    49    13    45    1
    50    18    46    1
    51    24    47    1
    52    25    48    1
    53    27    49    1
    54    28    50    1
    55    30    51    1
    56    30    52    1
    57    31    53    1
    58    31    54    1
    59    33    55    1
    60    33    56    1
