
     RDKit          3D

 70 72  0  0  0  0  0  0  0  0999 V2000
    2.1841    2.9371   -2.4765 C   0  0  0  0  0  0  0  0  0  0  0  0
    1.8866    1.5867   -1.8310 C   0  0  0  0  0  0  0  0  0  0  0  0
    3.0977    0.7222   -1.9883 C   0  0  0  0  0  0  0  0  0  0  0  0
    1.3825    1.7724   -0.4365 C   0  0  0  0  0  0  0  0  0  0  0  0
    1.0816    0.5923    0.2737 N   0  0  0  0  0  0  0  0  0  0  0  0
   -0.2730    0.2903    0.5376 C   0  0  0  0  0  0  0  0  0  0  0  0
   -0.6515   -1.1054    0.0499 C   0  0  1  0  0  0  0  0  0  0  0  0
    0.1234   -2.0534    0.6681 O   0  0  0  0  0  0  0  0  0  0  0  0
   -2.1245   -1.3100    0.2406 C   0  0  2  0  0  0  0  0  0  0  0  0
   -2.5917   -2.5708   -0.3866 C   0  0  0  0  0  0  0  0  0  0  0  0
   -1.9928   -3.8121    0.0975 C   0  0  0  0  0  0  0  0  0  0  0  0
   -0.8715   -4.3201   -0.5188 C   0  0  0  0  0  0  0  0  0  0  0  0
   -0.2657   -5.4982   -0.0939 C   0  0  0  0  0  0  0  0  0  0  0  0
   -0.7694   -6.1956    0.9592 C   0  0  0  0  0  0  0  0  0  0  0  0
   -1.8922   -5.7076    1.5937 C   0  0  0  0  0  0  0  0  0  0  0  0
   -2.4879   -4.5407    1.1687 C   0  0  0  0  0  0  0  0  0  0  0  0
   -2.8011   -0.2127   -0.4693 N   0  0  0  0  0  0  0  0  0  0  0  0
   -3.5800    0.7294    0.2195 C   0  0  0  0  0  0  0  0  0  0  0  0
   -3.6881    0.6152    1.4637 O   0  0  0  0  0  0  0  0  0  0  0  0
   -4.2458    1.7944   -0.4104 O   0  0  0  0  0  0  0  0  0  0  0  0
   -5.0164    2.7150    0.3239 C   0  0  1  0  0  0  0  0  0  0  0  0
   -4.5029    4.1111    0.0427 C   0  0  0  0  0  0  0  0  0  0  0  0
   -5.7987    4.9198    0.1862 C   0  0  0  0  0  0  0  0  0  0  0  0
   -6.7306    4.1178   -0.4137 O   0  0  0  0  0  0  0  0  0  0  0  0
   -6.4376    2.8044   -0.1748 C   0  0  0  0  0  0  0  0  0  0  0  0
    2.1220    0.3159    1.5908 S   0  0  0  0  0  6  0  0  0  0  0  0
    1.9852    1.5345    2.5014 O   0  0  0  0  0  0  0  0  0  0  0  0
    1.6343   -0.8462    2.4219 O   0  0  0  0  0  0  0  0  0  0  0  0
    3.7944    0.1194    1.1502 C   0  0  0  0  0  0  0  0  0  0  0  0
    4.6805    1.2035    1.1597 C   0  0  0  0  0  0  0  0  0  0  0  0
    6.0053    1.0414    0.8172 C   0  0  0  0  0  0  0  0  0  0  0  0
    6.5273   -0.1807    0.4507 C   0  0  0  0  0  0  0  0  0  0  0  0
    7.9096   -0.3284    0.0977 N   0  0  0  0  0  0  0  0  0  0  0  0
    5.6615   -1.2533    0.4388 C   0  0  0  0  0  0  0  0  0  0  0  0
    4.3362   -1.0922    0.7811 C   0  0  0  0  0  0  0  0  0  0  0  0
    1.9500    2.8391   -3.5456 H   0  0  0  0  0  0  0  0  0  0  0  0
    1.5962    3.7055   -1.9480 H   0  0  0  0  0  0  0  0  0  0  0  0
    3.2531    3.2033   -2.3583 H   0  0  0  0  0  0  0  0  0  0  0  0
    1.0603    1.0787   -2.4035 H   0  0  0  0  0  0  0  0  0  0  0  0
    4.0277    1.1682   -1.6045 H   0  0  0  0  0  0  0  0  0  0  0  0
    2.8565   -0.2654   -1.5387 H   0  0  0  0  0  0  0  0  0  0  0  0
    3.2448    0.5715   -3.1028 H   0  0  0  0  0  0  0  0  0  0  0  0
    0.5126    2.4888   -0.4994 H   0  0  0  0  0  0  0  0  0  0  0  0
    2.1667    2.3958    0.0917 H   0  0  0  0  0  0  0  0  0  0  0  0
   -0.4106    0.2544    1.6539 H   0  0  0  0  0  0  0  0  0  0  0  0
   -0.9554    1.0508    0.1209 H   0  0  0  0  0  0  0  0  0  0  0  0
   -0.4847   -1.1176   -1.0614 H   0  0  0  0  0  0  0  0  0  0  0  0
    0.9689   -2.2057    0.1490 H   0  0  0  0  0  0  0  0  0  0  0  0
   -2.3509   -1.2238    1.3189 H   0  0  0  0  0  0  0  0  0  0  0  0
   -3.7056   -2.6083   -0.3566 H   0  0  0  0  0  0  0  0  0  0  0  0
   -2.3468   -2.4903   -1.4881 H   0  0  0  0  0  0  0  0  0  0  0  0
   -0.4061   -3.8242   -1.3676 H   0  0  0  0  0  0  0  0  0  0  0  0
    0.6264   -5.8934   -0.5917 H   0  0  0  0  0  0  0  0  0  0  0  0
   -0.3043   -7.1177    1.3002 H   0  0  0  0  0  0  0  0  0  0  0  0
   -2.2817   -6.2725    2.4295 H   0  0  0  0  0  0  0  0  0  0  0  0
   -3.3591   -4.2003    1.6930 H   0  0  0  0  0  0  0  0  0  0  0  0
   -2.6977   -0.1371   -1.5014 H   0  0  0  0  0  0  0  0  0  0  0  0
   -5.0057    2.4693    1.4072 H   0  0  0  0  0  0  0  0  0  0  0  0
   -3.7508    4.4400    0.7815 H   0  0  0  0  0  0  0  0  0  0  0  0
   -4.1737    4.1560   -0.9987 H   0  0  0  0  0  0  0  0  0  0  0  0
   -5.9843    5.0871    1.2724 H   0  0  0  0  0  0  0  0  0  0  0  0
   -5.6309    5.8773   -0.3419 H   0  0  0  0  0  0  0  0  0  0  0  0
   -6.4505    2.2682   -1.1652 H   0  0  0  0  0  0  0  0  0  0  0  0
   -7.1648    2.2950    0.4570 H   0  0  0  0  0  0  0  0  0  0  0  0
    4.2974    2.1641    1.4414 H   0  0  0  0  0  0  0  0  0  0  0  0
    6.7114    1.8814    0.8199 H   0  0  0  0  0  0  0  0  0  0  0  0
    8.2304   -0.5561   -0.8643 H   0  0  0  0  0  0  0  0  0  0  0  0
    8.6143   -0.2026    0.8328 H   0  0  0  0  0  0  0  0  0  0  0  0
    6.0218   -2.2382    0.1575 H   0  0  0  0  0  0  0  0  0  0  0  0
    3.6344   -1.9371    0.7765 H   0  0  0  0  0  0  0  0  0  0  0  0
  1  2  1  0
  2  3  1  0
  2  4  1  0
  4  5  1  0
  5  6  1  0
  6  7  1  0
  7  8  1  0
  7  9  1  0
  9 10  1  0
 10 11  1  0
 11 12  2  0
 12 13  1  0
 13 14  2  0
 14 15  1  0
 15 16  2  0
  9 17  1  0
 17 18  1  0
 18 19  2  0
 18 20  1  0
 20 21  1  0
 21 22  1  0
 22 23  1  0
 23 24  1  0
 24 25  1  0
  5 26  1  0
 26 27  2  0
 26 28  2  0
 26 29  1  0
 29 30  2  0
 30 31  1  0
 31 32  2  0
 32 33  1  0
 32 34  1  0
 34 35  2  0
 16 11  1  0
 25 21  1  0
 35 29  1  0
  1 36  1  0
  1 37  1  0
  1 38  1  0
  2 39  1  0
  3 40  1  0
  3 41  1  0
  3 42  1  0
  4 43  1  0
  4 44  1  0
  6 45  1  0
  6 46  1  0
  7 47  1  6
  8 48  1  0
  9 49  1  1
 10 50  1  0
 10 51  1  0
 12 52  1  0
 13 53  1  0
 14 54  1  0
 15 55  1  0
 16 56  1  0
 17 57  1  0
 21 58  1  1
 22 59  1  0
 22 60  1  0
 23 61  1  0
 23 62  1  0
 25 63  1  0
 25 64  1  0
 30 65  1  0
 31 66  1  0
 33 67  1  0
 33 68  1  0
 34 69  1  0
 35 70  1  0
M  END
$$$$
