@<TRIPOS>MOLECULE
*****
 70 72 0 0 0
SMALL
GASTEIGER

@<TRIPOS>ATOM
      1 C           2.1841    2.9371   -2.4765 C.3     1  UNL1       -0.0615
      2 C           1.8866    1.5867   -1.8310 C.3     1  UNL1       -0.0323
      3 C           3.0977    0.7222   -1.9883 C.3     1  UNL1       -0.0615
      4 C           1.3825    1.7724   -0.4365 C.3     1  UNL1        0.0229
      5 N           1.0816    0.5923    0.2737 N.3     1  UNL1       -0.1738
      6 C          -0.2730    0.2903    0.5376 C.3     1  UNL1        0.0483
      7 C          -0.6515   -1.1054    0.0499 C.3     1  UNL1        0.0882
      8 O           0.1234   -2.0534    0.6681 O.3     1  UNL1       -0.3886
      9 C          -2.1245   -1.3100    0.2406 C.3     1  UNL1        0.0573
     10 C          -2.5917   -2.5708   -0.3866 C.3     1  UNL1       -0.0066
     11 C          -1.9928   -3.8121    0.0975 C.ar    1  UNL1       -0.0455
     12 C          -0.8715   -4.3201   -0.5188 C.ar    1  UNL1       -0.0585
     13 C          -0.2657   -5.4982   -0.0939 C.ar    1  UNL1       -0.0615
     14 C          -0.7694   -6.1956    0.9592 C.ar    1  UNL1       -0.0617
     15 C          -1.8922   -5.7076    1.5937 C.ar    1  UNL1       -0.0615
     16 C          -2.4879   -4.5407    1.1687 C.ar    1  UNL1       -0.0585
     17 N          -2.8011   -0.2127   -0.4693 N.am    1  UNL1       -0.2754
     18 C          -3.5800    0.7294    0.2195 C.2     1  UNL1        0.4009
     19 O          -3.6881    0.6152    1.4637 O.2     1  UNL1       -0.2265
     20 O          -4.2458    1.7944   -0.4104 O.3     1  UNL1       -0.4447
     21 C          -5.0164    2.7150    0.3239 C.3     1  UNL1        0.1299
     22 C          -4.5029    4.1111    0.0427 C.3     1  UNL1        0.0101
     23 C          -5.7987    4.9198    0.1862 C.3     1  UNL1        0.0513
     24 O          -6.7306    4.1178   -0.4137 O.3     1  UNL1       -0.3760
     25 C          -6.4376    2.8044   -0.1748 C.3     1  UNL1        0.0848
     26 S           2.1220    0.3159    1.5908 S.O2    1  UNL1        0.0609
     27 O           1.9852    1.5345    2.5014 O.2     1  UNL1       -0.1528
     28 O           1.6343   -0.8462    2.4219 O.2     1  UNL1       -0.1528
     29 C           3.7944    0.1194    1.1502 C.ar    1  UNL1        0.1056
     30 C           4.6805    1.2035    1.1597 C.ar    1  UNL1       -0.0336
     31 C           6.0053    1.0414    0.8172 C.ar    1  UNL1       -0.0392
     32 C           6.5273   -0.1807    0.4507 C.ar    1  UNL1        0.0247
     33 N           7.9096   -0.3284    0.0977 N.pl3   1  UNL1       -0.3580
     34 C           5.6615   -1.2533    0.4388 C.ar    1  UNL1       -0.0392
     35 C           4.3362   -1.0922    0.7811 C.ar    1  UNL1       -0.0336
     36 H           1.9500    2.8391   -3.5456 H       1  UNL1        0.0233
     37 H           1.5962    3.7055   -1.9480 H       1  UNL1        0.0233
     38 H           3.2531    3.2033   -2.3583 H       1  UNL1        0.0233
     39 H           1.0603    1.0787   -2.4035 H       1  UNL1        0.0308
     40 H           4.0277    1.1682   -1.6045 H       1  UNL1        0.0233
     41 H           2.8565   -0.2654   -1.5387 H       1  UNL1        0.0233
     42 H           3.2448    0.5715   -3.1028 H       1  UNL1        0.0233
     43 H           0.5126    2.4888   -0.4994 H       1  UNL1        0.0446
     44 H           2.1667    2.3958    0.0917 H       1  UNL1        0.0446
     45 H          -0.4106    0.2544    1.6539 H       1  UNL1        0.0470
     46 H          -0.9554    1.0508    0.1209 H       1  UNL1        0.0470
     47 H          -0.4847   -1.1176   -1.0614 H       1  UNL1        0.0625
     48 H           0.9689   -2.2057    0.1490 H       1  UNL1        0.2099
     49 H          -2.3509   -1.2238    1.3189 H       1  UNL1        0.0528
     50 H          -3.7056   -2.6083   -0.3566 H       1  UNL1        0.0332
     51 H          -2.3468   -2.4903   -1.4881 H       1  UNL1        0.0332
     52 H          -0.4061   -3.8242   -1.3676 H       1  UNL1        0.0620
     53 H           0.6264   -5.8934   -0.5917 H       1  UNL1        0.0618
     54 H          -0.3043   -7.1177    1.3002 H       1  UNL1        0.0618
     55 H          -2.2817   -6.2725    2.4295 H       1  UNL1        0.0618
     56 H          -3.3591   -4.2003    1.6930 H       1  UNL1        0.0620
     57 H          -2.6977   -0.1371   -1.5014 H       1  UNL1        0.1524
     58 H          -5.0057    2.4693    1.4072 H       1  UNL1        0.0758
     59 H          -3.7508    4.4400    0.7815 H       1  UNL1        0.0324
     60 H          -4.1737    4.1560   -0.9987 H       1  UNL1        0.0324
     61 H          -5.9843    5.0871    1.2724 H       1  UNL1        0.0561
     62 H          -5.6309    5.8773   -0.3419 H       1  UNL1        0.0561
     63 H          -6.4505    2.2682   -1.1652 H       1  UNL1        0.0597
     64 H          -7.1648    2.2950    0.4570 H       1  UNL1        0.0597
     65 H           4.2974    2.1641    1.4414 H       1  UNL1        0.0638
     66 H           6.7114    1.8814    0.8199 H       1  UNL1        0.0636
     67 H           8.2304   -0.5561   -0.8643 H       1  UNL1        0.1423
     68 H           8.6143   -0.2026    0.8328 H       1  UNL1        0.1423
     69 H           6.0218   -2.2382    0.1575 H       1  UNL1        0.0636
     70 H           3.6344   -1.9371    0.7765 H       1  UNL1        0.0638
@<TRIPOS>BOND
     1     1     2    1
     2     2     3    1
     3     2     4    1
     4     4     5    1
     5     5     6    1
     6     6     7    1
     7     7     8    1
     8     7     9    1
     9     9    10    1
    10    10    11    1
    11    11    12   ar
    12    12    13   ar
    13    13    14   ar
    14    14    15   ar
    15    15    16   ar
    16     9    17    1
    17    17    18   am
    18    18    19    2
    19    18    20    1
    20    20    21    1
    21    21    22    1
    22    22    23    1
    23    23    24    1
    24    24    25    1
    25     5    26    1
    26    26    27    2
    27    26    28    2
    28    26    29    1
    29    29    30   ar
    30    30    31   ar
    31    31    32   ar
    32    32    33    1
    33    32    34   ar
    34    34    35   ar
    35    16    11   ar
    36    25    21    1
    37    35    29   ar
    38     1    36    1
    39     1    37    1
    40     1    38    1
    41     2    39    1
    42     3    40    1
    43     3    41    1
    44     3    42    1
    45     4    43    1
    46     4    44    1
    47     6    45    1
    48     6    46    1
    49     7    47    1
    50     8    48    1
    51     9    49    1
    52    10    50    1
    53    10    51    1
    54    12    52    1
    55    13    53    1
    56    14    54    1
    57    15    55    1
    58    16    56    1
    59    17    57    1
    60    21    58    1
    61    22    59    1
    62    22    60    1
    63    23    61    1
    64    23    62    1
    65    25    63    1
    66    25    64    1
    67    30    65    1
    68    31    66    1
    69    33    67    1
    70    33    68    1
    71    34    69    1
    72    35    70    1
