@<TRIPOS>MOLECULE
*****
 45 48 0 0 0
SMALL
GASTEIGER

@<TRIPOS>ATOM
      1 C          -0.8049   -0.8074    2.7334 C.3     1  UNL1       -0.0365
      2 C           0.4007   -0.5086    1.9180 C.ar    1  UNL1       -0.0112
      3 C           1.6590   -0.7470    2.4545 C.ar    1  UNL1        0.0329
      4 N           2.7879   -0.4796    1.7776 N.ar    1  UNL1       -0.2545
      5 C           2.7975    0.0397    0.5272 C.ar    1  UNL1        0.0755
      6 C           4.0454    0.3146   -0.1703 C.ar    1  UNL1        0.0369
      7 C           4.1443    0.8381   -1.4333 C.ar    1  UNL1       -0.0314
      8 C           5.3573    1.0799   -2.0503 C.ar    1  UNL1        0.0418
      9 CL          5.4609    1.7487   -3.6630 Cl      1  UNL1       -0.0835
     10 C           6.5221    0.7865   -1.3774 C.ar    1  UNL1       -0.0406
     11 C           6.4638    0.2591   -0.1061 C.ar    1  UNL1       -0.0244
     12 C           5.2402    0.0284    0.4843 C.ar    1  UNL1        0.1326
     13 F           5.2047   -0.4955    1.7464 F       1  UNL1       -0.2048
     14 C           1.5678    0.2879   -0.0349 C.ar    1  UNL1       -0.0142
     15 C           0.3751    0.0182    0.6484 C.ar    1  UNL1        0.0378
     16 N          -0.8914    0.3124    0.0607 N.pl3   1  UNL1       -0.3125
     17 C          -1.7671   -0.7557   -0.2305 C.ar    1  UNL1        0.0603
     18 C          -1.3545   -2.0722   -0.0031 C.ar    1  UNL1       -0.0203
     19 C          -2.1889   -3.1088   -0.2279 C.ar    1  UNL1        0.0302
     20 N          -3.4236   -2.9131   -0.6711 N.ar    1  UNL1       -0.2517
     21 C          -3.8843   -1.6792   -0.9116 C.ar    1  UNL1        0.1102
     22 C          -5.1045   -1.1990   -1.3648 C.ar    1  UNL1        0.0754
     23 N          -5.0214    0.1242   -1.4208 N.ar    1  UNL1       -0.1764
     24 N          -3.7899    0.5154   -1.0199 N.ar    1  UNL1       -0.2515
     25 C          -3.3649    1.8970   -1.0047 C.3     1  UNL1        0.1181
     26 C          -3.5786    2.4422    0.3550 C.2     1  UNL1        0.2320
     27 N          -4.1198    1.6257    1.3751 N.am    1  UNL1       -0.3278
     28 O          -3.2604    3.6609    0.5696 O.2     1  UNL1       -0.2740
     29 C          -3.0701   -0.5684   -0.6992 C.ar    1  UNL1        0.1087
     30 H          -1.6873   -0.3258    2.2893 H       1  UNL1        0.0279
     31 H          -0.9472   -1.8981    2.8671 H       1  UNL1        0.0279
     32 H          -0.7055   -0.3569    3.7643 H       1  UNL1        0.0279
     33 H           1.6930   -1.1645    3.4585 H       1  UNL1        0.0833
     34 H           3.2425    1.0740   -1.9754 H       1  UNL1        0.0639
     35 H           7.4605    0.9769   -1.8627 H       1  UNL1        0.0633
     36 H           7.3977    0.0427    0.3880 H       1  UNL1        0.0647
     37 H           1.5117    0.7003   -1.0261 H       1  UNL1        0.0658
     38 H          -1.0976    1.2768   -0.1087 H       1  UNL1        0.1522
     39 H          -0.3256   -2.2187    0.3446 H       1  UNL1        0.0652
     40 H          -1.7962   -4.1254   -0.0258 H       1  UNL1        0.0830
     41 H          -5.9346   -1.8698   -1.6092 H       1  UNL1        0.0870
     42 H          -2.3862    2.1242   -1.3730 H       1  UNL1        0.0605
     43 H          -4.1284    2.4516   -1.6934 H       1  UNL1        0.0605
     44 H          -4.8723    2.0239    1.9897 H       1  UNL1        0.1450
     45 H          -3.8268    0.6446    1.5689 H       1  UNL1        0.1450
@<TRIPOS>BOND
     1     1     2    1
     2     2     3   ar
     3     3     4   ar
     4     4     5   ar
     5     5     6    1
     6     6     7   ar
     7     7     8   ar
     8     8     9    1
     9     8    10   ar
    10    10    11   ar
    11    11    12   ar
    12    12    13    1
    13     5    14   ar
    14    14    15   ar
    15    15    16    1
    16    16    17    1
    17    17    18   ar
    18    18    19   ar
    19    19    20   ar
    20    20    21   ar
    21    21    22   ar
    22    22    23   ar
    23    23    24   ar
    24    24    25    1
    25    25    26    1
    26    26    27   am
    27    26    28    2
    28    24    29   ar
    29    15     2   ar
    30    29    17   ar
    31    12     6   ar
    32    29    21   ar
    33     1    30    1
    34     1    31    1
    35     1    32    1
    36     3    33    1
    37     7    34    1
    38    10    35    1
    39    11    36    1
    40    14    37    1
    41    16    38    1
    42    18    39    1
    43    19    40    1
    44    22    41    1
    45    25    42    1
    46    25    43    1
    47    27    44    1
    48    27    45    1
