@<TRIPOS>MOLECULE
*****
 149 153 0 0 0
SMALL
GASTEIGER

@<TRIPOS>ATOM
      1 C          -9.4052    1.7648    1.5600 C.3     1  UNL1       -0.0629
      2 C         -10.0402    1.4222    0.2511 C.3     1  UNL1       -0.0296
      3 C          -9.5466    2.3183   -0.8802 C.3     1  UNL1        0.0574
      4 O          -9.9043    3.6321   -0.4924 O.3     1  UNL1       -0.3917
      5 C          -8.0582    2.3057   -0.9580 C.3     1  UNL1       -0.0004
      6 C          -7.4530    0.9376   -1.2099 C.3     1  UNL1        0.0643
      7 C          -7.9338    0.3494   -2.5083 C.3     1  UNL1       -0.0262
      8 C          -7.2398   -0.9947   -2.6601 C.3     1  UNL1       -0.0458
      9 C          -5.7617   -0.7972   -2.6219 C.3     1  UNL1        0.0016
     10 C          -5.2938    0.0568   -1.4935 C.3     1  UNL1        0.1740
     11 C          -4.0031    0.7533   -2.0041 C.3     1  UNL1        0.0389
     12 C          -3.5827    1.7718   -0.9668 C.3     1  UNL1        0.1132
     13 O          -2.3677    2.3038   -1.2676 O.3     1  UNL1       -0.4577
     14 C          -1.7120    2.7293   -2.3451 C.2     1  UNL1        0.3320
     15 O          -2.4553    2.6065   -3.4132 O.2     1  UNL1       -0.2456
     16 C          -0.3307    3.2899   -2.5080 C.2     1  UNL1        0.0213
     17 C           0.6180    3.5424   -1.7035 C.2     1  UNL1       -0.0439
     18 C           2.0335    4.1100   -1.8595 C.3     1  UNL1        0.1079
     19 C           2.2381    5.3159   -2.6069 C.3     1  UNL1       -0.0300
     20 O           2.5592    4.2834   -0.5420 O.3     1  UNL1       -0.3822
     21 C           2.8848    2.9177   -2.3798 C.3     1  UNL1        0.0921
     22 O           2.6538    2.7063   -3.7085 O.3     1  UNL1       -0.3883
     23 C           4.2402    2.8981   -1.8491 C.3     1  UNL1        0.0137
     24 C           4.9335    4.2433   -2.1831 C.3     1  UNL1       -0.0575
     25 C           5.1994    1.8167   -2.2338 C.3     1  UNL1        0.0889
     26 O           6.4106    2.2550   -1.5401 O.3     1  UNL1       -0.3888
     27 C           4.9317    0.4259   -1.6029 C.3     1  UNL1        0.1162
     28 O           6.1750   -0.2646   -1.6601 O.3     1  UNL1       -0.3429
     29 C           6.8639   -0.2466   -0.4498 C.3     1  UNL1        0.1602
     30 C           6.8896   -1.6444    0.1103 C.3     1  UNL1       -0.0001
     31 C           7.7323   -1.8107    1.3466 C.3     1  UNL1       -0.0304
     32 C           8.8261   -0.7969    1.3509 C.3     1  UNL1        0.0360
     33 N           8.3358    0.4176    1.9850 N.3     1  UNL1       -0.3030
     34 C           9.3568    1.4528    1.9845 C.3     1  UNL1       -0.0127
     35 C           7.9554    0.1588    3.3622 C.3     1  UNL1       -0.0127
     36 C           9.1534   -0.4493   -0.0892 C.3     1  UNL1        0.0743
     37 C           9.6066   -1.6976   -0.7868 C.3     1  UNL1       -0.0371
     38 O           8.1371    0.2046   -0.7184 O.3     1  UNL1       -0.3468
     39 C           3.8987   -0.3439   -2.3095 C.3     1  UNL1        0.1121
     40 O           4.2283   -0.5624   -3.6706 O.3     1  UNL1       -0.3863
     41 C           3.4979   -1.6800   -1.7741 C.3     1  UNL1        0.0915
     42 C           4.5081   -2.7432   -1.9683 C.3     1  UNL1       -0.0335
     43 O           2.3689   -2.0665   -2.5758 O.3     1  UNL1       -0.3862
     44 C           2.9168   -1.5920   -0.3598 C.3     1  UNL1       -0.0217
     45 C           2.4194   -2.9236    0.0822 C.3     1  UNL1       -0.0504
     46 C           1.7985   -2.8522    1.4431 C.3     1  UNL1       -0.0527
     47 C           0.6818   -1.8437    1.4865 C.3     1  UNL1       -0.0496
     48 C          -0.0350   -1.8260    2.8290 C.3     1  UNL1       -0.0347
     49 C          -0.7074   -3.1195    3.0583 C.2     1  UNL1       -0.0875
     50 C          -2.0185   -3.2011    3.2267 C.2     1  UNL1       -0.0797
     51 C          -2.9753   -2.1012    3.2188 C.3     1  UNL1        0.0338
     52 C          -4.0537   -2.3562    4.2741 C.3     1  UNL1       -0.0130
     53 C          -5.0654   -3.1340    3.4606 C.3     1  UNL1        0.0679
     54 C          -6.4446   -2.6064    3.7944 C.3     1  UNL1       -0.0359
     55 C          -5.0410   -4.6011    3.8427 C.3     1  UNL1       -0.0359
     56 O          -4.8469   -2.9203    2.1319 O.3     1  UNL1       -0.3422
     57 C          -3.8202   -1.9926    1.9527 C.3     1  UNL1        0.1766
     58 O          -3.0916   -2.3707    0.8603 O.3     1  UNL1       -0.3639
     59 C          -4.3618   -0.5990    1.9362 C.3     1  UNL1        0.0286
     60 C          -4.5271    0.0726    0.6365 C.3     1  UNL1        0.0728
     61 O          -4.8528   -0.7500   -0.4250 O.3     1  UNL1       -0.3447
     62 C          -3.4047    1.0060    0.3462 C.3     1  UNL1        0.0200
     63 C          -2.0518    0.3314    0.2155 C.3     1  UNL1       -0.0567
     64 O          -6.1047    1.0681   -1.0894 O.3     1  UNL1       -0.3452
     65 H          -9.0219    2.8213    1.5990 H       1  UNL1        0.0231
     66 H         -10.1347    1.5959    2.3676 H       1  UNL1        0.0231
     67 H          -8.5017    1.1435    1.7757 H       1  UNL1        0.0231
     68 H         -11.1480    1.5222    0.3660 H       1  UNL1        0.0287
     69 H          -9.7947    0.3800   -0.0120 H       1  UNL1        0.0287
     70 H         -10.0665    2.1133   -1.8163 H       1  UNL1        0.0594
     71 H          -9.3172    4.2153   -1.0402 H       1  UNL1        0.2098
     72 H          -7.6787    3.0325   -1.7091 H       1  UNL1        0.0315
     73 H          -7.6653    2.6879    0.0261 H       1  UNL1        0.0315
     74 H          -7.8012    0.2603   -0.3931 H       1  UNL1        0.0598
     75 H          -9.0161    0.1379   -2.4089 H       1  UNL1        0.0290
     76 H          -7.6729    0.9481   -3.3897 H       1  UNL1        0.0290
     77 H          -7.4918   -1.4794   -3.6412 H       1  UNL1        0.0268
     78 H          -7.5693   -1.6159   -1.7971 H       1  UNL1        0.0268
     79 H          -5.2721   -1.7954   -2.5417 H       1  UNL1        0.0317
     80 H          -5.4072   -0.3942   -3.6114 H       1  UNL1        0.0317
     81 H          -3.2914   -0.0453   -2.1832 H       1  UNL1        0.0353
     82 H          -4.3026    1.2135   -2.9719 H       1  UNL1        0.0353
     83 H          -4.4228    2.4867   -0.8518 H       1  UNL1        0.0739
     84 H          -0.3202    3.4515   -3.6518 H       1  UNL1        0.0686
     85 H           0.6391    3.3848   -0.5694 H       1  UNL1        0.0603
     86 H           2.5008    5.2324   -3.6870 H       1  UNL1        0.0261
     87 H           1.2374    5.8790   -2.6583 H       1  UNL1        0.0261
     88 H           2.9138    6.0816   -2.1655 H       1  UNL1        0.0261
     89 H           2.2820    3.5453    0.0228 H       1  UNL1        0.2107
     90 H           2.2562    2.0608   -1.8709 H       1  UNL1        0.0629
     91 H           2.6584    1.7897   -4.0251 H       1  UNL1        0.2099
     92 H           4.2076    2.8343   -0.6961 H       1  UNL1        0.0350
     93 H           4.7489    4.9047   -1.3292 H       1  UNL1        0.0234
     94 H           4.6921    4.6108   -3.1695 H       1  UNL1        0.0234
     95 H           6.0532    4.0455   -2.1618 H       1  UNL1        0.0234
     96 H           5.3274    1.7322   -3.2764 H       1  UNL1        0.0623
     97 H           6.0988    2.5119   -0.6612 H       1  UNL1        0.2099
     98 H           4.7215    0.6447   -0.5750 H       1  UNL1        0.0650
     99 H           6.3197    0.3568    0.3186 H       1  UNL1        0.0910
    100 H           7.2015   -2.4172   -0.6234 H       1  UNL1        0.0314
    101 H           5.8407   -1.9345    0.4501 H       1  UNL1        0.0314
    102 H           7.0648   -1.6458    2.2336 H       1  UNL1        0.0283
    103 H           8.1757   -2.8451    1.3927 H       1  UNL1        0.0283
    104 H           9.7331   -1.1399    1.8950 H       1  UNL1        0.0488
    105 H           9.4419    1.9498    0.9896 H       1  UNL1        0.0391
    106 H           9.0310    2.2174    2.7225 H       1  UNL1        0.0391
    107 H          10.3597    1.0850    2.2369 H       1  UNL1        0.0391
    108 H           6.8615    0.3129    3.5134 H       1  UNL1        0.0391
    109 H           8.4795    0.8814    4.0544 H       1  UNL1        0.0391
    110 H           8.2622   -0.8645    3.6678 H       1  UNL1        0.0391
    111 H          10.0387    0.2526   -0.1202 H       1  UNL1        0.0610
    112 H           9.5132   -2.5828   -0.1354 H       1  UNL1        0.0255
    113 H           9.1451   -1.8093   -1.7917 H       1  UNL1        0.0255
    114 H          10.7152   -1.6460   -1.0163 H       1  UNL1        0.0255
    115 H           2.9502    0.2673   -2.3719 H       1  UNL1        0.0649
    116 H           3.7446   -1.3507   -4.0242 H       1  UNL1        0.2100
    117 H           4.7631   -3.3484   -1.0813 H       1  UNL1        0.0258
    118 H           5.4275   -2.3048   -2.4223 H       1  UNL1        0.0258
    119 H           4.1300   -3.4892   -2.7342 H       1  UNL1        0.0258
    120 H           2.2518   -3.0322   -2.5789 H       1  UNL1        0.2103
    121 H           1.9999   -0.9344   -0.4777 H       1  UNL1        0.0294
    122 H           3.6280   -1.1005    0.3031 H       1  UNL1        0.0294
    123 H           3.1959   -3.7207    0.1211 H       1  UNL1        0.0266
    124 H           1.6505   -3.3178   -0.6212 H       1  UNL1        0.0266
    125 H           1.4045   -3.8747    1.6903 H       1  UNL1        0.0265
    126 H           2.5583   -2.6568    2.2388 H       1  UNL1        0.0265
    127 H          -0.0372   -2.0492    0.6840 H       1  UNL1        0.0268
    128 H           1.1405   -0.8291    1.3588 H       1  UNL1        0.0268
    129 H          -0.6017   -0.9318    3.0263 H       1  UNL1        0.0307
    130 H           0.8200   -1.7938    3.5843 H       1  UNL1        0.0307
    131 H          -0.0741   -4.0260    3.0856 H       1  UNL1        0.0569
    132 H          -2.4036   -4.2208    3.3871 H       1  UNL1        0.0573
    133 H          -2.5066   -1.1538    3.5108 H       1  UNL1        0.0396
    134 H          -3.6293   -2.9440    5.1070 H       1  UNL1        0.0300
    135 H          -4.5032   -1.3946    4.5909 H       1  UNL1        0.0300
    136 H          -6.3365   -1.7013    4.4118 H       1  UNL1        0.0257
    137 H          -7.0542   -3.3864    4.3445 H       1  UNL1        0.0257
    138 H          -7.0015   -2.3055    2.8593 H       1  UNL1        0.0257
    139 H          -6.0233   -4.8927    4.2609 H       1  UNL1        0.0257
    140 H          -4.8459   -5.2691    2.9925 H       1  UNL1        0.0257
    141 H          -4.3111   -4.8141    4.6751 H       1  UNL1        0.0257
    142 H          -3.6506   -2.8472    0.2070 H       1  UNL1        0.2128
    143 H          -3.7372    0.0923    2.5916 H       1  UNL1        0.0342
    144 H          -5.3350   -0.6377    2.5167 H       1  UNL1        0.0342
    145 H          -5.4439    0.7497    0.7460 H       1  UNL1        0.0602
    146 H          -3.3214    1.7627    1.1438 H       1  UNL1        0.0359
    147 H          -2.0098   -0.3567   -0.6403 H       1  UNL1        0.0234
    148 H          -1.6798   -0.0466    1.1647 H       1  UNL1        0.0234
    149 H          -1.3459    1.1703   -0.0611 H       1  UNL1        0.0234
@<TRIPOS>BOND
     1     1     2    1
     2     2     3    1
     3     3     4    1
     4     3     5    1
     5     5     6    1
     6     6     7    1
     7     7     8    1
     8     8     9    1
     9     9    10    1
    10    10    11    1
    11    11    12    1
    12    12    13    1
    13    13    14    1
    14    14    15    2
    15    14    16    1
    16    16    17    2
    17    17    18    1
    18    18    19    1
    19    18    20    1
    20    18    21    1
    21    21    22    1
    22    21    23    1
    23    23    24    1
    24    23    25    1
    25    25    26    1
    26    25    27    1
    27    27    28    1
    28    28    29    1
    29    29    30    1
    30    30    31    1
    31    31    32    1
    32    32    33    1
    33    33    34    1
    34    33    35    1
    35    32    36    1
    36    36    37    1
    37    36    38    1
    38    27    39    1
    39    39    40    1
    40    39    41    1
    41    41    42    1
    42    41    43    1
    43    41    44    1
    44    44    45    1
    45    45    46    1
    46    46    47    1
    47    47    48    1
    48    48    49    1
    49    49    50    2
    50    50    51    1
    51    51    52    1
    52    52    53    1
    53    53    54    1
    54    53    55    1
    55    53    56    1
    56    56    57    1
    57    57    58    1
    58    57    59    1
    59    59    60    1
    60    60    61    1
    61    60    62    1
    62    62    63    1
    63    10    64    1
    64    64     6    1
    65    61    10    1
    66    62    12    1
    67    38    29    1
    68    57    51    1
    69     1    65    1
    70     1    66    1
    71     1    67    1
    72     2    68    1
    73     2    69    1
    74     3    70    1
    75     4    71    1
    76     5    72    1
    77     5    73    1
    78     6    74    1
    79     7    75    1
    80     7    76    1
    81     8    77    1
    82     8    78    1
    83     9    79    1
    84     9    80    1
    85    11    81    1
    86    11    82    1
    87    12    83    1
    88    16    84    1
    89    17    85    1
    90    19    86    1
    91    19    87    1
    92    19    88    1
    93    20    89    1
    94    21    90    1
    95    22    91    1
    96    23    92    1
    97    24    93    1
    98    24    94    1
    99    24    95    1
   100    25    96    1
   101    26    97    1
   102    27    98    1
   103    29    99    1
   104    30   100    1
   105    30   101    1
   106    31   102    1
   107    31   103    1
   108    32   104    1
   109    34   105    1
   110    34   106    1
   111    34   107    1
   112    35   108    1
   113    35   109    1
   114    35   110    1
   115    36   111    1
   116    37   112    1
   117    37   113    1
   118    37   114    1
   119    39   115    1
   120    40   116    1
   121    42   117    1
   122    42   118    1
   123    42   119    1
   124    43   120    1
   125    44   121    1
   126    44   122    1
   127    45   123    1
   128    45   124    1
   129    46   125    1
   130    46   126    1
   131    47   127    1
   132    47   128    1
   133    48   129    1
   134    48   130    1
   135    49   131    1
   136    50   132    1
   137    51   133    1
   138    52   134    1
   139    52   135    1
   140    54   136    1
   141    54   137    1
   142    54   138    1
   143    55   139    1
   144    55   140    1
   145    55   141    1
   146    58   142    1
   147    59   143    1
   148    59   144    1
   149    60   145    1
   150    62   146    1
   151    63   147    1
   152    63   148    1
   153    63   149    1
