
     RDKit          3D

149153  0  0  0  0  0  0  0  0999 V2000
   -9.4052    1.7648    1.5600 C   0  0  0  0  0  0  0  0  0  0  0  0
  -10.0402    1.4222    0.2511 C   0  0  0  0  0  0  0  0  0  0  0  0
   -9.5466    2.3183   -0.8802 C   0  0  1  0  0  0  0  0  0  0  0  0
   -9.9043    3.6321   -0.4924 O   0  0  0  0  0  0  0  0  0  0  0  0
   -8.0582    2.3057   -0.9580 C   0  0  0  0  0  0  0  0  0  0  0  0
   -7.4530    0.9376   -1.2099 C   0  0  1  0  0  0  0  0  0  0  0  0
   -7.9338    0.3494   -2.5083 C   0  0  0  0  0  0  0  0  0  0  0  0
   -7.2398   -0.9947   -2.6601 C   0  0  0  0  0  0  0  0  0  0  0  0
   -5.7617   -0.7972   -2.6219 C   0  0  0  0  0  0  0  0  0  0  0  0
   -5.2938    0.0568   -1.4935 C   0  0  2  0  0  0  0  0  0  0  0  0
   -4.0031    0.7533   -2.0041 C   0  0  0  0  0  0  0  0  0  0  0  0
   -3.5827    1.7718   -0.9668 C   0  0  2  0  0  0  0  0  0  0  0  0
   -2.3677    2.3038   -1.2676 O   0  0  0  0  0  0  0  0  0  0  0  0
   -1.7120    2.7293   -2.3451 C   0  0  0  0  0  0  0  0  0  0  0  0
   -2.4553    2.6065   -3.4132 O   0  0  0  0  0  0  0  0  0  0  0  0
   -0.3307    3.2899   -2.5080 C   0  0  0  0  0  0  0  0  0  0  0  0
    0.6180    3.5424   -1.7035 C   0  0  0  0  0  0  0  0  0  0  0  0
    2.0335    4.1100   -1.8595 C   0  0  1  0  0  0  0  0  0  0  0  0
    2.2381    5.3159   -2.6069 C   0  0  0  0  0  0  0  0  0  0  0  0
    2.5592    4.2834   -0.5420 O   0  0  0  0  0  0  0  0  0  0  0  0
    2.8848    2.9177   -2.3798 C   0  0  1  0  0  0  0  0  0  0  0  0
    2.6538    2.7063   -3.7085 O   0  0  0  0  0  0  0  0  0  0  0  0
    4.2402    2.8981   -1.8491 C   0  0  2  0  0  0  0  0  0  0  0  0
    4.9335    4.2433   -2.1831 C   0  0  0  0  0  0  0  0  0  0  0  0
    5.1994    1.8167   -2.2338 C   0  0  1  0  0  0  0  0  0  0  0  0
    6.4106    2.2550   -1.5401 O   0  0  0  0  0  0  0  0  0  0  0  0
    4.9317    0.4259   -1.6029 C   0  0  2  0  0  0  0  0  0  0  0  0
    6.1750   -0.2646   -1.6601 O   0  0  0  0  0  0  0  0  0  0  0  0
    6.8639   -0.2466   -0.4498 C   0  0  0  0  0  0  0  0  0  0  0  0
    6.8896   -1.6444    0.1103 C   0  0  0  0  0  0  0  0  0  0  0  0
    7.7323   -1.8107    1.3466 C   0  0  0  0  0  0  0  0  0  0  0  0
    8.8261   -0.7969    1.3509 C   0  0  0  0  0  0  0  0  0  0  0  0
    8.3358    0.4176    1.9850 N   0  0  0  0  0  0  0  0  0  0  0  0
    9.3568    1.4528    1.9845 C   0  0  0  0  0  0  0  0  0  0  0  0
    7.9554    0.1588    3.3622 C   0  0  0  0  0  0  0  0  0  0  0  0
    9.1534   -0.4493   -0.0892 C   0  0  0  0  0  0  0  0  0  0  0  0
    9.6066   -1.6976   -0.7868 C   0  0  0  0  0  0  0  0  0  0  0  0
    8.1371    0.2046   -0.7184 O   0  0  0  0  0  0  0  0  0  0  0  0
    3.8987   -0.3439   -2.3095 C   0  0  1  0  0  0  0  0  0  0  0  0
    4.2283   -0.5624   -3.6706 O   0  0  0  0  0  0  0  0  0  0  0  0
    3.4979   -1.6800   -1.7741 C   0  0  2  0  0  0  0  0  0  0  0  0
    4.5081   -2.7432   -1.9683 C   0  0  0  0  0  0  0  0  0  0  0  0
    2.3689   -2.0665   -2.5758 O   0  0  0  0  0  0  0  0  0  0  0  0
    2.9168   -1.5920   -0.3598 C   0  0  0  0  0  0  0  0  0  0  0  0
    2.4194   -2.9236    0.0822 C   0  0  0  0  0  0  0  0  0  0  0  0
    1.7985   -2.8522    1.4431 C   0  0  0  0  0  0  0  0  0  0  0  0
    0.6818   -1.8437    1.4865 C   0  0  0  0  0  0  0  0  0  0  0  0
   -0.0350   -1.8260    2.8290 C   0  0  0  0  0  0  0  0  0  0  0  0
   -0.7074   -3.1195    3.0583 C   0  0  0  0  0  0  0  0  0  0  0  0
   -2.0185   -3.2011    3.2267 C   0  0  0  0  0  0  0  0  0  0  0  0
   -2.9753   -2.1012    3.2188 C   0  0  2  0  0  0  0  0  0  0  0  0
   -4.0537   -2.3562    4.2741 C   0  0  0  0  0  0  0  0  0  0  0  0
   -5.0654   -3.1340    3.4606 C   0  0  0  0  0  0  0  0  0  0  0  0
   -6.4446   -2.6064    3.7944 C   0  0  0  0  0  0  0  0  0  0  0  0
   -5.0410   -4.6011    3.8427 C   0  0  0  0  0  0  0  0  0  0  0  0
   -4.8469   -2.9203    2.1319 O   0  0  0  0  0  0  0  0  0  0  0  0
   -3.8202   -1.9926    1.9527 C   0  0  2  0  0  0  0  0  0  0  0  0
   -3.0916   -2.3707    0.8603 O   0  0  0  0  0  0  0  0  0  0  0  0
   -4.3618   -0.5990    1.9362 C   0  0  0  0  0  0  0  0  0  0  0  0
   -4.5271    0.0726    0.6365 C   0  0  2  0  0  0  0  0  0  0  0  0
   -4.8528   -0.7500   -0.4250 O   0  0  0  0  0  0  0  0  0  0  0  0
   -3.4047    1.0060    0.3462 C   0  0  1  0  0  0  0  0  0  0  0  0
   -2.0518    0.3314    0.2155 C   0  0  0  0  0  0  0  0  0  0  0  0
   -6.1047    1.0681   -1.0894 O   0  0  0  0  0  0  0  0  0  0  0  0
   -9.0219    2.8213    1.5990 H   0  0  0  0  0  0  0  0  0  0  0  0
  -10.1347    1.5959    2.3676 H   0  0  0  0  0  0  0  0  0  0  0  0
   -8.5017    1.1435    1.7757 H   0  0  0  0  0  0  0  0  0  0  0  0
  -11.1480    1.5222    0.3660 H   0  0  0  0  0  0  0  0  0  0  0  0
   -9.7947    0.3800   -0.0120 H   0  0  0  0  0  0  0  0  0  0  0  0
  -10.0665    2.1133   -1.8163 H   0  0  0  0  0  0  0  0  0  0  0  0
   -9.3172    4.2153   -1.0402 H   0  0  0  0  0  0  0  0  0  0  0  0
   -7.6787    3.0325   -1.7091 H   0  0  0  0  0  0  0  0  0  0  0  0
   -7.6653    2.6879    0.0261 H   0  0  0  0  0  0  0  0  0  0  0  0
   -7.8012    0.2603   -0.3931 H   0  0  0  0  0  0  0  0  0  0  0  0
   -9.0161    0.1379   -2.4089 H   0  0  0  0  0  0  0  0  0  0  0  0
   -7.6729    0.9481   -3.3897 H   0  0  0  0  0  0  0  0  0  0  0  0
   -7.4918   -1.4794   -3.6412 H   0  0  0  0  0  0  0  0  0  0  0  0
   -7.5693   -1.6159   -1.7971 H   0  0  0  0  0  0  0  0  0  0  0  0
   -5.2721   -1.7954   -2.5417 H   0  0  0  0  0  0  0  0  0  0  0  0
   -5.4072   -0.3942   -3.6114 H   0  0  0  0  0  0  0  0  0  0  0  0
   -3.2914   -0.0453   -2.1832 H   0  0  0  0  0  0  0  0  0  0  0  0
   -4.3026    1.2135   -2.9719 H   0  0  0  0  0  0  0  0  0  0  0  0
   -4.4228    2.4867   -0.8518 H   0  0  0  0  0  0  0  0  0  0  0  0
   -0.3202    3.4515   -3.6518 H   0  0  0  0  0  0  0  0  0  0  0  0
    0.6391    3.3848   -0.5694 H   0  0  0  0  0  0  0  0  0  0  0  0
    2.5008    5.2324   -3.6870 H   0  0  0  0  0  0  0  0  0  0  0  0
    1.2374    5.8790   -2.6583 H   0  0  0  0  0  0  0  0  0  0  0  0
    2.9138    6.0816   -2.1655 H   0  0  0  0  0  0  0  0  0  0  0  0
    2.2820    3.5453    0.0228 H   0  0  0  0  0  0  0  0  0  0  0  0
    2.2562    2.0608   -1.8709 H   0  0  0  0  0  0  0  0  0  0  0  0
    2.6584    1.7897   -4.0251 H   0  0  0  0  0  0  0  0  0  0  0  0
    4.2076    2.8343   -0.6961 H   0  0  0  0  0  0  0  0  0  0  0  0
    4.7489    4.9047   -1.3292 H   0  0  0  0  0  0  0  0  0  0  0  0
    4.6921    4.6108   -3.1695 H   0  0  0  0  0  0  0  0  0  0  0  0
    6.0532    4.0455   -2.1618 H   0  0  0  0  0  0  0  0  0  0  0  0
    5.3274    1.7322   -3.2764 H   0  0  0  0  0  0  0  0  0  0  0  0
    6.0988    2.5119   -0.6612 H   0  0  0  0  0  0  0  0  0  0  0  0
    4.7215    0.6447   -0.5750 H   0  0  0  0  0  0  0  0  0  0  0  0
    6.3197    0.3568    0.3186 H   0  0  0  0  0  0  0  0  0  0  0  0
    7.2015   -2.4172   -0.6234 H   0  0  0  0  0  0  0  0  0  0  0  0
    5.8407   -1.9345    0.4501 H   0  0  0  0  0  0  0  0  0  0  0  0
    7.0648   -1.6458    2.2336 H   0  0  0  0  0  0  0  0  0  0  0  0
    8.1757   -2.8451    1.3927 H   0  0  0  0  0  0  0  0  0  0  0  0
    9.7331   -1.1399    1.8950 H   0  0  0  0  0  0  0  0  0  0  0  0
    9.4419    1.9498    0.9896 H   0  0  0  0  0  0  0  0  0  0  0  0
    9.0310    2.2174    2.7225 H   0  0  0  0  0  0  0  0  0  0  0  0
   10.3597    1.0850    2.2369 H   0  0  0  0  0  0  0  0  0  0  0  0
    6.8615    0.3129    3.5134 H   0  0  0  0  0  0  0  0  0  0  0  0
    8.4795    0.8814    4.0544 H   0  0  0  0  0  0  0  0  0  0  0  0
    8.2622   -0.8645    3.6678 H   0  0  0  0  0  0  0  0  0  0  0  0
   10.0387    0.2526   -0.1202 H   0  0  0  0  0  0  0  0  0  0  0  0
    9.5132   -2.5828   -0.1354 H   0  0  0  0  0  0  0  0  0  0  0  0
    9.1451   -1.8093   -1.7917 H   0  0  0  0  0  0  0  0  0  0  0  0
   10.7152   -1.6460   -1.0163 H   0  0  0  0  0  0  0  0  0  0  0  0
    2.9502    0.2673   -2.3719 H   0  0  0  0  0  0  0  0  0  0  0  0
    3.7446   -1.3507   -4.0242 H   0  0  0  0  0  0  0  0  0  0  0  0
    4.7631   -3.3484   -1.0813 H   0  0  0  0  0  0  0  0  0  0  0  0
    5.4275   -2.3048   -2.4223 H   0  0  0  0  0  0  0  0  0  0  0  0
    4.1300   -3.4892   -2.7342 H   0  0  0  0  0  0  0  0  0  0  0  0
    2.2518   -3.0322   -2.5789 H   0  0  0  0  0  0  0  0  0  0  0  0
    1.9999   -0.9344   -0.4777 H   0  0  0  0  0  0  0  0  0  0  0  0
    3.6280   -1.1005    0.3031 H   0  0  0  0  0  0  0  0  0  0  0  0
    3.1959   -3.7207    0.1211 H   0  0  0  0  0  0  0  0  0  0  0  0
    1.6505   -3.3178   -0.6212 H   0  0  0  0  0  0  0  0  0  0  0  0
    1.4045   -3.8747    1.6903 H   0  0  0  0  0  0  0  0  0  0  0  0
    2.5583   -2.6568    2.2388 H   0  0  0  0  0  0  0  0  0  0  0  0
   -0.0372   -2.0492    0.6840 H   0  0  0  0  0  0  0  0  0  0  0  0
    1.1405   -0.8291    1.3588 H   0  0  0  0  0  0  0  0  0  0  0  0
   -0.6017   -0.9318    3.0263 H   0  0  0  0  0  0  0  0  0  0  0  0
    0.8200   -1.7938    3.5843 H   0  0  0  0  0  0  0  0  0  0  0  0
   -0.0741   -4.0260    3.0856 H   0  0  0  0  0  0  0  0  0  0  0  0
   -2.4036   -4.2208    3.3871 H   0  0  0  0  0  0  0  0  0  0  0  0
   -2.5066   -1.1538    3.5108 H   0  0  0  0  0  0  0  0  0  0  0  0
   -3.6293   -2.9440    5.1070 H   0  0  0  0  0  0  0  0  0  0  0  0
   -4.5032   -1.3946    4.5909 H   0  0  0  0  0  0  0  0  0  0  0  0
   -6.3365   -1.7013    4.4118 H   0  0  0  0  0  0  0  0  0  0  0  0
   -7.0542   -3.3864    4.3445 H   0  0  0  0  0  0  0  0  0  0  0  0
   -7.0015   -2.3055    2.8593 H   0  0  0  0  0  0  0  0  0  0  0  0
   -6.0233   -4.8927    4.2609 H   0  0  0  0  0  0  0  0  0  0  0  0
   -4.8459   -5.2691    2.9925 H   0  0  0  0  0  0  0  0  0  0  0  0
   -4.3111   -4.8141    4.6751 H   0  0  0  0  0  0  0  0  0  0  0  0
   -3.6506   -2.8472    0.2070 H   0  0  0  0  0  0  0  0  0  0  0  0
   -3.7372    0.0923    2.5916 H   0  0  0  0  0  0  0  0  0  0  0  0
   -5.3350   -0.6377    2.5167 H   0  0  0  0  0  0  0  0  0  0  0  0
   -5.4439    0.7497    0.7460 H   0  0  0  0  0  0  0  0  0  0  0  0
   -3.3214    1.7627    1.1438 H   0  0  0  0  0  0  0  0  0  0  0  0
   -2.0098   -0.3567   -0.6403 H   0  0  0  0  0  0  0  0  0  0  0  0
   -1.6798   -0.0466    1.1647 H   0  0  0  0  0  0  0  0  0  0  0  0
   -1.3459    1.1703   -0.0611 H   0  0  0  0  0  0  0  0  0  0  0  0
  1  2  1  0
  2  3  1  0
  3  4  1  0
  3  5  1  0
  5  6  1  0
  6  7  1  0
  7  8  1  0
  8  9  1  0
  9 10  1  0
 10 11  1  0
 11 12  1  0
 12 13  1  0
 13 14  1  0
 14 15  2  0
 14 16  1  0
 16 17  2  0
 17 18  1  0
 18 19  1  0
 18 20  1  1
 18 21  1  0
 21 22  1  0
 21 23  1  0
 23 24  1  0
 23 25  1  0
 25 26  1  0
 25 27  1  0
 27 28  1  0
 28 29  1  0
 29 30  1  0
 30 31  1  0
 31 32  1  0
 32 33  1  0
 33 34  1  0
 33 35  1  0
 32 36  1  0
 36 37  1  0
 36 38  1  0
 27 39  1  0
 39 40  1  0
 39 41  1  0
 41 42  1  0
 41 43  1  6
 41 44  1  0
 44 45  1  0
 45 46  1  0
 46 47  1  0
 47 48  1  0
 48 49  1  0
 49 50  2  0
 50 51  1  0
 51 52  1  0
 52 53  1  0
 53 54  1  0
 53 55  1  0
 53 56  1  0
 56 57  1  0
 57 58  1  6
 57 59  1  0
 59 60  1  0
 60 61  1  0
 60 62  1  0
 62 63  1  0
 10 64  1  1
 64  6  1  0
 61 10  1  0
 62 12  1  0
 38 29  1  0
 57 51  1  0
  1 65  1  0
  1 66  1  0
  1 67  1  0
  2 68  1  0
  2 69  1  0
  3 70  1  6
  4 71  1  0
  5 72  1  0
  5 73  1  0
  6 74  1  1
  7 75  1  0
  7 76  1  0
  8 77  1  0
  8 78  1  0
  9 79  1  0
  9 80  1  0
 11 81  1  0
 11 82  1  0
 12 83  1  1
 16 84  1  0
 17 85  1  0
 19 86  1  0
 19 87  1  0
 19 88  1  0
 20 89  1  0
 21 90  1  1
 22 91  1  0
 23 92  1  1
 24 93  1  0
 24 94  1  0
 24 95  1  0
 25 96  1  6
 26 97  1  0
 27 98  1  1
 29 99  1  0
 30100  1  0
 30101  1  0
 31102  1  0
 31103  1  0
 32104  1  0
 34105  1  0
 34106  1  0
 34107  1  0
 35108  1  0
 35109  1  0
 35110  1  0
 36111  1  0
 37112  1  0
 37113  1  0
 37114  1  0
 39115  1  6
 40116  1  0
 42117  1  0
 42118  1  0
 42119  1  0
 43120  1  0
 44121  1  0
 44122  1  0
 45123  1  0
 45124  1  0
 46125  1  0
 46126  1  0
 47127  1  0
 47128  1  0
 48129  1  0
 48130  1  0
 49131  1  0
 50132  1  0
 51133  1  1
 52134  1  0
 52135  1  0
 54136  1  0
 54137  1  0
 54138  1  0
 55139  1  0
 55140  1  0
 55141  1  0
 58142  1  0
 59143  1  0
 59144  1  0
 60145  1  1
 62146  1  1
 63147  1  0
 63148  1  0
 63149  1  0
M  END
$$$$
