@<TRIPOS>MOLECULE
*****
 68 72 0 0 0
SMALL
GASTEIGER

@<TRIPOS>ATOM
      1 C           5.7808    4.8039   -0.8811 C.3     1  UNL1        0.0788
      2 O           4.8909    3.7110   -0.7138 O.3     1  UNL1       -0.4944
      3 C           5.4477    2.4869   -0.3433 C.ar    1  UNL1        0.1316
      4 C           6.8044    2.3157   -0.1407 C.ar    1  UNL1       -0.0192
      5 C           7.3676    1.1106    0.2258 C.ar    1  UNL1       -0.0576
      6 C           6.5272    0.0219    0.3978 C.ar    1  UNL1       -0.0500
      7 C           5.1683    0.1735    0.1998 C.ar    1  UNL1        0.0367
      8 C           4.5963    1.3898   -0.1705 C.ar    1  UNL1        0.0748
      9 C           3.1397    1.4844   -0.3660 C.2     1  UNL1        0.2016
     10 O           2.6330    2.5851   -0.6998 O.2     1  UNL1       -0.2864
     11 C           2.3473    0.2642   -0.1559 C.ar    1  UNL1        0.0784
     12 C           1.0039    0.4183   -0.3531 C.ar    1  UNL1        0.1345
     13 O           0.3205    1.5634   -0.7191 O.3     1  UNL1       -0.5057
     14 C           0.1619   -0.6609   -0.1843 C.ar    1  UNL1        0.0302
     15 C           0.7061   -1.8887    0.1854 C.ar    1  UNL1        0.0070
     16 C          -0.1895   -3.0852    0.3744 C.3     1  UNL1        0.0123
     17 C          -1.0469   -3.2145   -0.8712 C.3     1  UNL1        0.1325
     18 O          -0.2580   -3.7635   -1.8896 O.3     1  UNL1       -0.3806
     19 C          -1.6346   -1.9132   -1.3006 C.3     1  UNL1        0.0141
     20 C          -1.3122   -0.7870   -0.3274 C.3     1  UNL1        0.0934
     21 O          -1.9378    0.3771   -0.7276 O.3     1  UNL1       -0.3432
     22 C          -2.8868    0.7386    0.2266 C.3     1  UNL1        0.1618
     23 C          -2.4850    2.0328    0.8341 C.3     1  UNL1        0.0161
     24 C          -3.6388    2.4964    1.7174 C.3     1  UNL1        0.0382
     25 N          -4.0858    1.4827    2.6291 N.3     1  UNL1       -0.3249
     26 C          -4.7188    2.7930    0.6695 C.3     1  UNL1        0.0963
     27 O          -4.1159    3.6300   -0.2688 O.3     1  UNL1       -0.3877
     28 C          -5.0791    1.5222   -0.0330 C.3     1  UNL1        0.0861
     29 C          -6.0723    0.7969    0.8853 C.3     1  UNL1       -0.0361
     30 O          -4.1025    0.6801   -0.3598 O.3     1  UNL1       -0.3457
     31 C          -2.1494   -4.1483   -0.5170 C.2     1  UNL1        0.1900
     32 O          -3.0053   -3.9617    0.3332 O.2     1  UNL1       -0.2919
     33 C          -2.3120   -5.4656   -1.2092 C.3     1  UNL1        0.1051
     34 O          -1.3233   -5.6328   -2.1595 O.3     1  UNL1       -0.3874
     35 C           2.0811   -2.0357    0.3847 C.ar    1  UNL1        0.1322
     36 O           2.6583   -3.2515    0.7554 O.3     1  UNL1       -0.5057
     37 C           2.9044   -0.9417    0.2101 C.ar    1  UNL1        0.0782
     38 C           4.3610   -1.0246    0.4027 C.2     1  UNL1        0.1982
     39 O           4.8876   -2.1202    0.7376 O.2     1  UNL1       -0.2865
     40 H           6.2383    5.1290    0.0743 H       1  UNL1        0.0660
     41 H           5.2910    5.6593   -1.4040 H       1  UNL1        0.0660
     42 H           6.6405    4.5304   -1.5348 H       1  UNL1        0.0660
     43 H           7.4736    3.1503   -0.2698 H       1  UNL1        0.0654
     44 H           8.4290    0.9700    0.3860 H       1  UNL1        0.0619
     45 H           6.9648   -0.9290    0.6863 H       1  UNL1        0.0625
     46 H           0.4911    1.9908   -1.6212 H       1  UNL1        0.2922
     47 H           0.4496   -3.9941    0.3852 H       1  UNL1        0.0347
     48 H          -0.7967   -2.9615    1.2750 H       1  UNL1        0.0347
     49 H          -0.1149   -3.0654   -2.5865 H       1  UNL1        0.2108
     50 H          -1.2372   -1.6549   -2.3033 H       1  UNL1        0.0326
     51 H          -2.7239   -2.0328   -1.4367 H       1  UNL1        0.0326
     52 H          -1.6930   -1.1746    0.6635 H       1  UNL1        0.0649
     53 H          -2.8482   -0.0290    1.0261 H       1  UNL1        0.0910
     54 H          -1.5588    1.8828    1.4224 H       1  UNL1        0.0330
     55 H          -2.3401    2.8465    0.0903 H       1  UNL1        0.0330
     56 H          -3.3803    3.4040    2.2829 H       1  UNL1        0.0486
     57 H          -4.3894    1.9297    3.5153 H       1  UNL1        0.1186
     58 H          -3.3878    0.7494    2.8516 H       1  UNL1        0.1186
     59 H          -5.6020    3.2560    1.1243 H       1  UNL1        0.0635
     60 H          -4.4733    3.5720   -1.1694 H       1  UNL1        0.2100
     61 H          -5.6601    1.8017   -0.9422 H       1  UNL1        0.0620
     62 H          -5.5387   -0.0139    1.4452 H       1  UNL1        0.0255
     63 H          -6.5559    1.5076    1.6041 H       1  UNL1        0.0255
     64 H          -6.8918    0.3168    0.3266 H       1  UNL1        0.0255
     65 H          -2.2591   -6.2505   -0.4390 H       1  UNL1        0.0637
     66 H          -3.3095   -5.4274   -1.7035 H       1  UNL1        0.0637
     67 H          -0.9926   -6.5445   -2.1906 H       1  UNL1        0.2100
     68 H           2.3411   -3.6020    1.6639 H       1  UNL1        0.2922
@<TRIPOS>BOND
     1     1     2    1
     2     2     3    1
     3     3     4   ar
     4     4     5   ar
     5     5     6   ar
     6     6     7   ar
     7     7     8   ar
     8     8     9    1
     9     9    10    2
    10     9    11    1
    11    11    12   ar
    12    12    13    1
    13    12    14   ar
    14    14    15   ar
    15    15    16    1
    16    16    17    1
    17    17    18    1
    18    17    19    1
    19    19    20    1
    20    20    21    1
    21    21    22    1
    22    22    23    1
    23    23    24    1
    24    24    25    1
    25    24    26    1
    26    26    27    1
    27    26    28    1
    28    28    29    1
    29    28    30    1
    30    17    31    1
    31    31    32    2
    32    31    33    1
    33    33    34    1
    34    15    35   ar
    35    35    36    1
    36    35    37   ar
    37    37    38    1
    38    38    39    2
    39     8     3   ar
    40    37    11   ar
    41    38     7    1
    42    20    14    1
    43    30    22    1
    44     1    40    1
    45     1    41    1
    46     1    42    1
    47     4    43    1
    48     5    44    1
    49     6    45    1
    50    13    46    1
    51    16    47    1
    52    16    48    1
    53    18    49    1
    54    19    50    1
    55    19    51    1
    56    20    52    1
    57    22    53    1
    58    23    54    1
    59    23    55    1
    60    24    56    1
    61    25    57    1
    62    25    58    1
    63    26    59    1
    64    27    60    1
    65    28    61    1
    66    29    62    1
    67    29    63    1
    68    29    64    1
    69    33    65    1
    70    33    66    1
    71    34    67    1
    72    36    68    1
