
     RDKit          3D

 68 72  0  0  0  0  0  0  0  0999 V2000
    5.7808    4.8039   -0.8811 C   0  0  0  0  0  0  0  0  0  0  0  0
    4.8909    3.7110   -0.7138 O   0  0  0  0  0  0  0  0  0  0  0  0
    5.4477    2.4869   -0.3433 C   0  0  0  0  0  0  0  0  0  0  0  0
    6.8044    2.3157   -0.1407 C   0  0  0  0  0  0  0  0  0  0  0  0
    7.3676    1.1106    0.2258 C   0  0  0  0  0  0  0  0  0  0  0  0
    6.5272    0.0219    0.3978 C   0  0  0  0  0  0  0  0  0  0  0  0
    5.1683    0.1735    0.1998 C   0  0  0  0  0  0  0  0  0  0  0  0
    4.5963    1.3898   -0.1705 C   0  0  0  0  0  0  0  0  0  0  0  0
    3.1397    1.4844   -0.3660 C   0  0  0  0  0  0  0  0  0  0  0  0
    2.6330    2.5851   -0.6998 O   0  0  0  0  0  0  0  0  0  0  0  0
    2.3473    0.2642   -0.1559 C   0  0  0  0  0  0  0  0  0  0  0  0
    1.0039    0.4183   -0.3531 C   0  0  0  0  0  0  0  0  0  0  0  0
    0.3205    1.5634   -0.7191 O   0  0  0  0  0  0  0  0  0  0  0  0
    0.1619   -0.6609   -0.1843 C   0  0  0  0  0  0  0  0  0  0  0  0
    0.7061   -1.8887    0.1854 C   0  0  0  0  0  0  0  0  0  0  0  0
   -0.1895   -3.0852    0.3744 C   0  0  0  0  0  0  0  0  0  0  0  0
   -1.0469   -3.2145   -0.8712 C   0  0  2  0  0  0  0  0  0  0  0  0
   -0.2580   -3.7635   -1.8896 O   0  0  0  0  0  0  0  0  0  0  0  0
   -1.6346   -1.9132   -1.3006 C   0  0  0  0  0  0  0  0  0  0  0  0
   -1.3122   -0.7870   -0.3274 C   0  0  2  0  0  0  0  0  0  0  0  0
   -1.9378    0.3771   -0.7276 O   0  0  0  0  0  0  0  0  0  0  0  0
   -2.8868    0.7386    0.2266 C   0  0  1  0  0  0  0  0  0  0  0  0
   -2.4850    2.0328    0.8341 C   0  0  0  0  0  0  0  0  0  0  0  0
   -3.6388    2.4964    1.7174 C   0  0  2  0  0  0  0  0  0  0  0  0
   -4.0858    1.4827    2.6291 N   0  0  0  0  0  0  0  0  0  0  0  0
   -4.7188    2.7930    0.6695 C   0  0  1  0  0  0  0  0  0  0  0  0
   -4.1159    3.6300   -0.2688 O   0  0  0  0  0  0  0  0  0  0  0  0
   -5.0791    1.5222   -0.0330 C   0  0  2  0  0  0  0  0  0  0  0  0
   -6.0723    0.7969    0.8853 C   0  0  0  0  0  0  0  0  0  0  0  0
   -4.1025    0.6801   -0.3598 O   0  0  0  0  0  0  0  0  0  0  0  0
   -2.1494   -4.1483   -0.5170 C   0  0  0  0  0  0  0  0  0  0  0  0
   -3.0053   -3.9617    0.3332 O   0  0  0  0  0  0  0  0  0  0  0  0
   -2.3120   -5.4656   -1.2092 C   0  0  0  0  0  0  0  0  0  0  0  0
   -1.3233   -5.6328   -2.1595 O   0  0  0  0  0  0  0  0  0  0  0  0
    2.0811   -2.0357    0.3847 C   0  0  0  0  0  0  0  0  0  0  0  0
    2.6583   -3.2515    0.7554 O   0  0  0  0  0  0  0  0  0  0  0  0
    2.9044   -0.9417    0.2101 C   0  0  0  0  0  0  0  0  0  0  0  0
    4.3610   -1.0246    0.4027 C   0  0  0  0  0  0  0  0  0  0  0  0
    4.8876   -2.1202    0.7376 O   0  0  0  0  0  0  0  0  0  0  0  0
    6.2383    5.1290    0.0743 H   0  0  0  0  0  0  0  0  0  0  0  0
    5.2910    5.6593   -1.4040 H   0  0  0  0  0  0  0  0  0  0  0  0
    6.6405    4.5304   -1.5348 H   0  0  0  0  0  0  0  0  0  0  0  0
    7.4736    3.1503   -0.2698 H   0  0  0  0  0  0  0  0  0  0  0  0
    8.4290    0.9700    0.3860 H   0  0  0  0  0  0  0  0  0  0  0  0
    6.9648   -0.9290    0.6863 H   0  0  0  0  0  0  0  0  0  0  0  0
    0.4911    1.9908   -1.6212 H   0  0  0  0  0  0  0  0  0  0  0  0
    0.4496   -3.9941    0.3852 H   0  0  0  0  0  0  0  0  0  0  0  0
   -0.7967   -2.9615    1.2750 H   0  0  0  0  0  0  0  0  0  0  0  0
   -0.1149   -3.0654   -2.5865 H   0  0  0  0  0  0  0  0  0  0  0  0
   -1.2372   -1.6549   -2.3033 H   0  0  0  0  0  0  0  0  0  0  0  0
   -2.7239   -2.0328   -1.4367 H   0  0  0  0  0  0  0  0  0  0  0  0
   -1.6930   -1.1746    0.6635 H   0  0  0  0  0  0  0  0  0  0  0  0
   -2.8482   -0.0290    1.0261 H   0  0  0  0  0  0  0  0  0  0  0  0
   -1.5588    1.8828    1.4224 H   0  0  0  0  0  0  0  0  0  0  0  0
   -2.3401    2.8465    0.0903 H   0  0  0  0  0  0  0  0  0  0  0  0
   -3.3803    3.4040    2.2829 H   0  0  0  0  0  0  0  0  0  0  0  0
   -4.3894    1.9297    3.5153 H   0  0  0  0  0  0  0  0  0  0  0  0
   -3.3878    0.7494    2.8516 H   0  0  0  0  0  0  0  0  0  0  0  0
   -5.6020    3.2560    1.1243 H   0  0  0  0  0  0  0  0  0  0  0  0
   -4.4733    3.5720   -1.1694 H   0  0  0  0  0  0  0  0  0  0  0  0
   -5.6601    1.8017   -0.9422 H   0  0  0  0  0  0  0  0  0  0  0  0
   -5.5387   -0.0139    1.4452 H   0  0  0  0  0  0  0  0  0  0  0  0
   -6.5559    1.5076    1.6041 H   0  0  0  0  0  0  0  0  0  0  0  0
   -6.8918    0.3168    0.3266 H   0  0  0  0  0  0  0  0  0  0  0  0
   -2.2591   -6.2505   -0.4390 H   0  0  0  0  0  0  0  0  0  0  0  0
   -3.3095   -5.4274   -1.7035 H   0  0  0  0  0  0  0  0  0  0  0  0
   -0.9926   -6.5445   -2.1906 H   0  0  0  0  0  0  0  0  0  0  0  0
    2.3411   -3.6020    1.6639 H   0  0  0  0  0  0  0  0  0  0  0  0
  1  2  1  0
  2  3  1  0
  3  4  2  0
  4  5  1  0
  5  6  2  0
  6  7  1  0
  7  8  2  0
  8  9  1  0
  9 10  2  0
  9 11  1  0
 11 12  2  0
 12 13  1  0
 12 14  1  0
 14 15  2  0
 15 16  1  0
 16 17  1  0
 17 18  1  6
 17 19  1  0
 19 20  1  0
 20 21  1  0
 21 22  1  0
 22 23  1  0
 23 24  1  0
 24 25  1  0
 24 26  1  0
 26 27  1  0
 26 28  1  0
 28 29  1  0
 28 30  1  0
 17 31  1  0
 31 32  2  0
 31 33  1  0
 33 34  1  0
 15 35  1  0
 35 36  1  0
 35 37  2  0
 37 38  1  0
 38 39  2  0
  8  3  1  0
 37 11  1  0
 38  7  1  0
 20 14  1  0
 30 22  1  0
  1 40  1  0
  1 41  1  0
  1 42  1  0
  4 43  1  0
  5 44  1  0
  6 45  1  0
 13 46  1  0
 16 47  1  0
 16 48  1  0
 18 49  1  0
 19 50  1  0
 19 51  1  0
 20 52  1  1
 22 53  1  1
 23 54  1  0
 23 55  1  0
 24 56  1  1
 25 57  1  0
 25 58  1  0
 26 59  1  1
 27 60  1  0
 28 61  1  6
 29 62  1  0
 29 63  1  0
 29 64  1  0
 33 65  1  0
 33 66  1  0
 34 67  1  0
 36 68  1  0
M  END
$$$$
