@<TRIPOS>MOLECULE
*****
 32 34 0 0 0
SMALL
GASTEIGER

@<TRIPOS>ATOM
      1 O          -0.3414   -3.5523   -2.2728 O.co2   1  UNL1       -0.5760
      2 N          -1.5728   -3.1216   -1.8483 N.pl3   1  UNL1        0.0796
      3 O          -2.5430   -3.8969   -2.0733 O.2     1  UNL1        0.0414
      4 C          -1.7789   -1.8802   -1.1903 C.ar    1  UNL1        0.2739
      5 C          -0.6612   -1.0982   -0.9856 C.ar    1  UNL1        0.0265
      6 C          -0.9029    0.1198   -0.3289 C.ar    1  UNL1        0.0281
      7 C          -2.1700    0.5438    0.0938 C.ar    1  UNL1        0.0431
      8 N          -2.4796    1.8195    0.7073 N.am    1  UNL1       -0.2834
      9 C          -1.7117    3.0035    0.3520 C.2     1  UNL1        0.2386
     10 O          -2.3035    3.9943    0.9056 O.2     1  UNL1       -0.2734
     11 C          -0.4856    3.1327   -0.4741 C.3     1  UNL1        0.1167
     12 N           0.4799    2.0988   -0.2181 N.2     1  UNL1       -0.2734
     13 C           0.3750    0.8114   -0.1395 C.2     1  UNL1        0.0752
     14 C           1.5721    0.0578    0.1434 C.ar    1  UNL1        0.0006
     15 C           2.7483    0.8266    0.0997 C.ar    1  UNL1       -0.0526
     16 C           4.0104    0.3698    0.3999 C.ar    1  UNL1       -0.0611
     17 C           4.1866   -0.9361    0.7783 C.ar    1  UNL1       -0.0617
     18 C           3.0742   -1.7450    0.8432 C.ar    1  UNL1       -0.0611
     19 C           1.8450   -1.2210    0.5305 C.ar    1  UNL1       -0.0526
     20 C          -3.2627   -0.2966   -0.1444 C.ar    1  UNL1       -0.0334
     21 C          -3.0464   -1.4950   -0.7824 C.ar    1  UNL1        0.0174
     22 H           0.3380   -1.3341   -1.3228 H       1  UNL1        0.0692
     23 H          -3.2681    1.7234    1.3602 H       1  UNL1        0.1549
     24 H          -0.0699    4.1345   -0.2936 H       1  UNL1        0.0605
     25 H          -0.7906    3.0699   -1.5271 H       1  UNL1        0.0605
     26 H           2.7544    1.8912   -0.1880 H       1  UNL1        0.0624
     27 H           4.8928    0.9736    0.3598 H       1  UNL1        0.0618
     28 H           5.1177   -1.3964    1.0322 H       1  UNL1        0.0618
     29 H           3.1114   -2.7855    1.1304 H       1  UNL1        0.0618
     30 H           0.9803   -1.8313    0.6369 H       1  UNL1        0.0624
     31 H          -4.1869    0.1202    0.2208 H       1  UNL1        0.0638
     32 H          -3.9108   -2.1007   -0.9401 H       1  UNL1        0.0686
@<TRIPOS>UNITY_ATOM_ATTR
1 1
charge -1
2 1
charge 1
@<TRIPOS>BOND
     1     1     2    1
     2     2     3    2
     3     2     4    1
     4     4     5   ar
     5     5     6   ar
     6     6     7   ar
     7     7     8    1
     8     8     9   am
     9     9    10    2
    10     9    11    1
    11    11    12    1
    12    12    13    2
    13    13    14    1
    14    14    15   ar
    15    15    16   ar
    16    16    17   ar
    17    17    18   ar
    18    18    19   ar
    19     7    20   ar
    20    20    21   ar
    21    21     4   ar
    22    13     6    1
    23    19    14   ar
    24     5    22    1
    25     8    23    1
    26    11    24    1
    27    11    25    1
    28    15    26    1
    29    16    27    1
    30    17    28    1
    31    18    29    1
    32    19    30    1
    33    20    31    1
    34    21    32    1
