@<TRIPOS>MOLECULE
*****
 38 40 0 0 0
SMALL
GASTEIGER

@<TRIPOS>ATOM
      1 O           6.7335   -1.9498    0.5034 O.3     1  UNL1       -0.4783
      2 C           5.5411   -1.2814    0.3935 C.2     1  UNL1        0.3429
      3 O           5.6337   -0.0233    0.4672 O.2     1  UNL1       -0.2472
      4 C           4.2201   -1.9216    0.2032 C.3     1  UNL1        0.1889
      5 O           3.2266   -0.9378    0.1329 O.3     1  UNL1       -0.4497
      6 C           1.8879   -1.1708   -0.0392 C.2     1  UNL1        0.3417
      7 O           1.5077   -2.3580   -0.1439 O.2     1  UNL1       -0.2449
      8 C           0.9494   -0.0628   -0.0967 C.ar    1  UNL1        0.0869
      9 C          -0.3837   -0.2950   -0.2682 C.ar    1  UNL1        0.1355
     10 C          -1.3380    0.6992   -0.3332 C.ar    1  UNL1        0.0735
     11 C          -2.6904    0.2146   -0.5195 C.2     1  UNL1        0.2686
     12 O          -3.7477    0.8900   -0.6127 O.2     1  UNL1       -0.2683
     13 N          -2.8214   -1.1977   -0.6054 N.am    1  UNL1       -0.1568
     14 C          -3.9570   -2.0501   -0.7839 C.3     1  UNL1        0.1348
     15 C          -4.5528   -2.4419    0.5253 C.2     1  UNL1        0.3242
     16 O          -4.1671   -2.1037    1.8175 O.3     1  UNL1       -0.4795
     17 O          -5.5703   -3.1991    0.5339 O.2     1  UNL1       -0.2492
     18 S          -1.2259   -1.8442   -0.4463 S.O2    1  UNL1        0.0791
     19 O          -1.0748   -2.6925    0.7629 O.2     1  UNL1       -0.1496
     20 O          -0.8622   -2.5328   -1.7109 O.2     1  UNL1       -0.1496
     21 C          -0.8889    1.9960   -0.2148 C.ar    1  UNL1       -0.0038
     22 C          -1.6936    3.1150   -0.2556 C.ar    1  UNL1       -0.0532
     23 C          -1.2275    4.4065   -0.1355 C.ar    1  UNL1       -0.0611
     24 C           0.1171    4.6301    0.0369 C.ar    1  UNL1       -0.0612
     25 C           0.9347    3.5217    0.0798 C.ar    1  UNL1       -0.0540
     26 C           0.4385    2.2170   -0.0446 C.ar    1  UNL1       -0.0163
     27 C           1.4006    1.2313    0.0218 C.ar    1  UNL1       -0.0381
     28 H           7.6306   -1.4958    0.6342 H       1  UNL1        0.2952
     29 H           3.9511   -2.5724    1.0695 H       1  UNL1        0.0816
     30 H           4.2403   -2.5761   -0.6982 H       1  UNL1        0.0816
     31 H          -3.7266   -2.9331   -1.4029 H       1  UNL1        0.0599
     32 H          -4.7369   -1.4732   -1.3589 H       1  UNL1        0.0599
     33 H          -4.0273   -2.7890    2.5481 H       1  UNL1        0.2951
     34 H          -2.7575    2.9858   -0.3897 H       1  UNL1        0.0624
     35 H          -1.9162    5.2437   -0.1764 H       1  UNL1        0.0618
     36 H           0.5040    5.6326    0.1332 H       1  UNL1        0.0618
     37 H           1.9878    3.7151    0.2158 H       1  UNL1        0.0624
     38 H           2.4608    1.4033    0.1575 H       1  UNL1        0.0632
@<TRIPOS>BOND
     1     1     2    1
     2     2     3    2
     3     2     4    1
     4     4     5    1
     5     5     6    1
     6     6     7    2
     7     6     8    1
     8     8     9   ar
     9     9    10   ar
    10    10    11    1
    11    11    12    2
    12    11    13   am
    13    13    14    1
    14    14    15    1
    15    15    16    1
    16    15    17    2
    17    13    18    1
    18    18    19    2
    19    18    20    2
    20    10    21   ar
    21    21    22   ar
    22    22    23   ar
    23    23    24   ar
    24    24    25   ar
    25    25    26   ar
    26    26    27   ar
    27    27     8   ar
    28    18     9    1
    29    26    21   ar
    30     1    28    1
    31     4    29    1
    32     4    30    1
    33    14    31    1
    34    14    32    1
    35    16    33    1
    36    22    34    1
    37    23    35    1
    38    24    36    1
    39    25    37    1
    40    27    38    1
