@<TRIPOS>MOLECULE
*****
 79 83 0 0 0
SMALL
GASTEIGER

@<TRIPOS>ATOM
      1 C          -0.7072   -2.3224    1.9080 C.3     1  UNL1       -0.0390
      2 C          -0.2490   -3.2159    0.8023 C.ar    1  UNL1       -0.0400
      3 C          -0.5548   -4.5682    0.9395 C.ar    1  UNL1       -0.0230
      4 C          -0.1846   -5.4922    0.0081 C.ar    1  UNL1        0.1237
      5 F          -0.4836   -6.8282    0.1441 F       1  UNL1       -0.2055
      6 C           0.5225   -5.0461   -1.1129 C.ar    1  UNL1       -0.0259
      7 C           0.8106   -3.7114   -1.2261 C.ar    1  UNL1       -0.0510
      8 C           0.4463   -2.7763   -0.2961 C.ar    1  UNL1       -0.0129
      9 C           0.7884   -1.3895   -0.4754 C.ar    1  UNL1        0.0070
     10 C           2.0184   -0.8950   -0.0333 C.ar    1  UNL1       -0.0306
     11 C           2.4193    0.4038   -0.2136 C.ar    1  UNL1        0.0450
     12 C           3.6823    0.9902    0.2208 C.3     1  UNL1        0.0014
     13 C           4.7142    0.6589   -0.8871 C.3     1  UNL1       -0.0443
     14 C           5.8062    1.7084   -0.8577 C.3     1  UNL1       -0.0460
     15 C           6.0380    2.0463    0.5946 C.3     1  UNL1       -0.0155
     16 C           5.7539    0.8785    1.4756 C.3     1  UNL1       -0.0460
     17 C           4.2667    0.5113    1.4924 C.3     1  UNL1       -0.0443
     18 C           5.5575    3.4165    1.0238 C.3     1  UNL1       -0.0332
     19 C           7.0231    3.0893    0.9628 C.3     1  UNL1        0.0624
     20 C           7.7599    3.8383   -0.0803 C.2     1  UNL1        0.3084
     21 O           7.2952    4.0725   -1.2371 O.2     1  UNL1       -0.2507
     22 O           9.0354    4.3368    0.1580 O.3     1  UNL1       -0.4804
     23 N           1.5511    1.2182   -0.8570 N.ar    1  UNL1       -0.2577
     24 C           0.3712    0.8192   -1.2993 C.ar    1  UNL1        0.0499
     25 C          -0.0340   -0.5061   -1.1118 C.ar    1  UNL1        0.0619
     26 N          -1.3285   -0.9117   -1.5896 N.am    1  UNL1       -0.2718
     27 C          -1.4582   -1.8147   -2.6782 C.3     1  UNL1        0.0084
     28 C          -2.4400   -0.3819   -0.9056 C.2     1  UNL1        0.2296
     29 O          -2.1807    0.4754    0.0133 O.2     1  UNL1       -0.2743
     30 C          -3.8759   -0.7009   -1.1206 C.3     1  UNL1        0.0667
     31 C          -4.0823   -2.1530   -0.9802 C.3     1  UNL1       -0.0474
     32 C          -4.3380   -0.2742   -2.5159 C.3     1  UNL1       -0.0474
     33 C          -4.6578    0.1691   -0.1943 C.ar    1  UNL1       -0.0319
     34 C          -5.5811   -0.3171    0.6353 C.ar    1  UNL1       -0.0459
     35 C          -6.3013    0.5316    1.4966 C.ar    1  UNL1        0.0556
     36 C          -7.3316    0.0168    2.4144 C.3     1  UNL1        0.4174
     37 F          -6.7969   -0.0569    3.6799 F       1  UNL1       -0.1659
     38 F          -7.7548   -1.2432    1.9846 F       1  UNL1       -0.1659
     39 F          -8.3587    0.9213    2.4598 F       1  UNL1       -0.1659
     40 C          -6.0449    1.8874    1.4784 C.ar    1  UNL1       -0.0385
     41 C          -5.0987    2.4036    0.6334 C.ar    1  UNL1        0.0556
     42 C          -4.8329    3.8615    0.6151 C.3     1  UNL1        0.4174
     43 F          -5.3902    4.3603   -0.5306 F       1  UNL1       -0.1659
     44 F          -3.4456    4.0195    0.4852 F       1  UNL1       -0.1659
     45 F          -5.2976    4.4915    1.7621 F       1  UNL1       -0.1659
     46 C          -4.4154    1.5524   -0.1966 C.ar    1  UNL1       -0.0459
     47 H          -1.6663   -2.7329    2.3088 H       1  UNL1        0.0278
     48 H           0.0265   -2.2518    2.7275 H       1  UNL1        0.0278
     49 H          -0.9238   -1.3575    1.4703 H       1  UNL1        0.0278
     50 H          -1.1125   -4.9471    1.8079 H       1  UNL1        0.0649
     51 H           0.8319   -5.7609   -1.8573 H       1  UNL1        0.0646
     52 H           1.3626   -3.3761   -2.0940 H       1  UNL1        0.0625
     53 H           2.6749   -1.5659    0.4614 H       1  UNL1        0.0642
     54 H           3.6036    2.1073    0.2628 H       1  UNL1        0.0364
     55 H           5.1712   -0.3171   -0.7421 H       1  UNL1        0.0272
     56 H           4.1659    0.7578   -1.8254 H       1  UNL1        0.0272
     57 H           5.4028    2.5810   -1.3935 H       1  UNL1        0.0271
     58 H           6.7429    1.3866   -1.3184 H       1  UNL1        0.0271
     59 H           6.0744    1.1506    2.5095 H       1  UNL1        0.0271
     60 H           6.3545    0.0009    1.1133 H       1  UNL1        0.0271
     61 H           3.8188    1.0027    2.3702 H       1  UNL1        0.0272
     62 H           4.2087   -0.6051    1.6057 H       1  UNL1        0.0272
     63 H           5.1180    4.1115    0.2670 H       1  UNL1        0.0279
     64 H           5.0470    3.5115    2.0094 H       1  UNL1        0.0279
     65 H           7.5458    3.0006    1.9160 H       1  UNL1        0.0419
     66 H           9.4145    5.0772   -0.4482 H       1  UNL1        0.2951
     67 H          -0.2915    1.5137   -1.8042 H       1  UNL1        0.0849
     68 H          -0.4965   -1.9037   -3.2884 H       1  UNL1        0.0433
     69 H          -1.7448   -2.8618   -2.3226 H       1  UNL1        0.0433
     70 H          -2.2153   -1.5750   -3.4461 H       1  UNL1        0.0433
     71 H          -4.0780   -2.5967   -2.0343 H       1  UNL1        0.0243
     72 H          -5.0422   -2.4489   -0.5635 H       1  UNL1        0.0243
     73 H          -3.2253   -2.6569   -0.4577 H       1  UNL1        0.0243
     74 H          -5.2674    0.3366   -2.4813 H       1  UNL1        0.0243
     75 H          -3.5441    0.3562   -2.9670 H       1  UNL1        0.0243
     76 H          -4.4907   -1.1571   -3.1882 H       1  UNL1        0.0243
     77 H          -5.8502   -1.3453    0.7235 H       1  UNL1        0.0626
     78 H          -6.5811    2.5554    2.1363 H       1  UNL1        0.0629
     79 H          -3.6701    1.9366   -0.8768 H       1  UNL1        0.0626
@<TRIPOS>BOND
     1     1     2    1
     2     2     3   ar
     3     3     4   ar
     4     4     5    1
     5     4     6   ar
     6     6     7   ar
     7     7     8   ar
     8     8     9    1
     9     9    10   ar
    10    10    11   ar
    11    11    12    1
    12    12    13    1
    13    13    14    1
    14    14    15    1
    15    15    16    1
    16    16    17    1
    17    15    18    1
    18    18    19    1
    19    19    20    1
    20    20    21    2
    21    20    22    1
    22    11    23   ar
    23    23    24   ar
    24    24    25   ar
    25    25    26    1
    26    26    27    1
    27    26    28   am
    28    28    29    2
    29    28    30    1
    30    30    31    1
    31    30    32    1
    32    30    33    1
    33    33    34   ar
    34    34    35   ar
    35    35    36    1
    36    36    37    1
    37    36    38    1
    38    36    39    1
    39    35    40   ar
    40    40    41   ar
    41    41    42    1
    42    42    43    1
    43    42    44    1
    44    42    45    1
    45    41    46   ar
    46     8     2   ar
    47    25     9   ar
    48    46    33   ar
    49    17    12    1
    50    19    15    1
    51     1    47    1
    52     1    48    1
    53     1    49    1
    54     3    50    1
    55     6    51    1
    56     7    52    1
    57    10    53    1
    58    12    54    1
    59    13    55    1
    60    13    56    1
    61    14    57    1
    62    14    58    1
    63    16    59    1
    64    16    60    1
    65    17    61    1
    66    17    62    1
    67    18    63    1
    68    18    64    1
    69    19    65    1
    70    22    66    1
    71    24    67    1
    72    27    68    1
    73    27    69    1
    74    27    70    1
    75    31    71    1
    76    31    72    1
    77    31    73    1
    78    32    74    1
    79    32    75    1
    80    32    76    1
    81    34    77    1
    82    40    78    1
    83    46    79    1
