
     RDKit          3D

 79 83  0  0  0  0  0  0  0  0999 V2000
   -0.7072   -2.3224    1.9080 C   0  0  0  0  0  0  0  0  0  0  0  0
   -0.2490   -3.2159    0.8023 C   0  0  0  0  0  0  0  0  0  0  0  0
   -0.5548   -4.5682    0.9395 C   0  0  0  0  0  0  0  0  0  0  0  0
   -0.1846   -5.4922    0.0081 C   0  0  0  0  0  0  0  0  0  0  0  0
   -0.4836   -6.8282    0.1441 F   0  0  0  0  0  0  0  0  0  0  0  0
    0.5225   -5.0461   -1.1129 C   0  0  0  0  0  0  0  0  0  0  0  0
    0.8106   -3.7114   -1.2261 C   0  0  0  0  0  0  0  0  0  0  0  0
    0.4463   -2.7763   -0.2961 C   0  0  0  0  0  0  0  0  0  0  0  0
    0.7884   -1.3895   -0.4754 C   0  0  0  0  0  0  0  0  0  0  0  0
    2.0184   -0.8950   -0.0333 C   0  0  0  0  0  0  0  0  0  0  0  0
    2.4193    0.4038   -0.2136 C   0  0  0  0  0  0  0  0  0  0  0  0
    3.6823    0.9902    0.2208 C   0  0  0  0  0  0  0  0  0  0  0  0
    4.7142    0.6589   -0.8871 C   0  0  0  0  0  0  0  0  0  0  0  0
    5.8062    1.7084   -0.8577 C   0  0  0  0  0  0  0  0  0  0  0  0
    6.0380    2.0463    0.5946 C   0  0  0  0  0  0  0  0  0  0  0  0
    5.7539    0.8785    1.4756 C   0  0  0  0  0  0  0  0  0  0  0  0
    4.2667    0.5113    1.4924 C   0  0  0  0  0  0  0  0  0  0  0  0
    5.5575    3.4165    1.0238 C   0  0  0  0  0  0  0  0  0  0  0  0
    7.0231    3.0893    0.9628 C   0  0  0  0  0  0  0  0  0  0  0  0
    7.7599    3.8383   -0.0803 C   0  0  0  0  0  0  0  0  0  0  0  0
    7.2952    4.0725   -1.2371 O   0  0  0  0  0  0  0  0  0  0  0  0
    9.0354    4.3368    0.1580 O   0  0  0  0  0  0  0  0  0  0  0  0
    1.5511    1.2182   -0.8570 N   0  0  0  0  0  0  0  0  0  0  0  0
    0.3712    0.8192   -1.2993 C   0  0  0  0  0  0  0  0  0  0  0  0
   -0.0340   -0.5061   -1.1118 C   0  0  0  0  0  0  0  0  0  0  0  0
   -1.3285   -0.9117   -1.5896 N   0  0  0  0  0  0  0  0  0  0  0  0
   -1.4582   -1.8147   -2.6782 C   0  0  0  0  0  0  0  0  0  0  0  0
   -2.4400   -0.3819   -0.9056 C   0  0  0  0  0  0  0  0  0  0  0  0
   -2.1807    0.4754    0.0133 O   0  0  0  0  0  0  0  0  0  0  0  0
   -3.8759   -0.7009   -1.1206 C   0  0  0  0  0  0  0  0  0  0  0  0
   -4.0823   -2.1530   -0.9802 C   0  0  0  0  0  0  0  0  0  0  0  0
   -4.3380   -0.2742   -2.5159 C   0  0  0  0  0  0  0  0  0  0  0  0
   -4.6578    0.1691   -0.1943 C   0  0  0  0  0  0  0  0  0  0  0  0
   -5.5811   -0.3171    0.6353 C   0  0  0  0  0  0  0  0  0  0  0  0
   -6.3013    0.5316    1.4966 C   0  0  0  0  0  0  0  0  0  0  0  0
   -7.3316    0.0168    2.4144 C   0  0  0  0  0  0  0  0  0  0  0  0
   -6.7969   -0.0569    3.6799 F   0  0  0  0  0  0  0  0  0  0  0  0
   -7.7548   -1.2432    1.9846 F   0  0  0  0  0  0  0  0  0  0  0  0
   -8.3587    0.9213    2.4598 F   0  0  0  0  0  0  0  0  0  0  0  0
   -6.0449    1.8874    1.4784 C   0  0  0  0  0  0  0  0  0  0  0  0
   -5.0987    2.4036    0.6334 C   0  0  0  0  0  0  0  0  0  0  0  0
   -4.8329    3.8615    0.6151 C   0  0  0  0  0  0  0  0  0  0  0  0
   -5.3902    4.3603   -0.5306 F   0  0  0  0  0  0  0  0  0  0  0  0
   -3.4456    4.0195    0.4852 F   0  0  0  0  0  0  0  0  0  0  0  0
   -5.2976    4.4915    1.7621 F   0  0  0  0  0  0  0  0  0  0  0  0
   -4.4154    1.5524   -0.1966 C   0  0  0  0  0  0  0  0  0  0  0  0
   -1.6663   -2.7329    2.3088 H   0  0  0  0  0  0  0  0  0  0  0  0
    0.0265   -2.2518    2.7275 H   0  0  0  0  0  0  0  0  0  0  0  0
   -0.9238   -1.3575    1.4703 H   0  0  0  0  0  0  0  0  0  0  0  0
   -1.1125   -4.9471    1.8079 H   0  0  0  0  0  0  0  0  0  0  0  0
    0.8319   -5.7609   -1.8573 H   0  0  0  0  0  0  0  0  0  0  0  0
    1.3626   -3.3761   -2.0940 H   0  0  0  0  0  0  0  0  0  0  0  0
    2.6749   -1.5659    0.4614 H   0  0  0  0  0  0  0  0  0  0  0  0
    3.6036    2.1073    0.2628 H   0  0  0  0  0  0  0  0  0  0  0  0
    5.1712   -0.3171   -0.7421 H   0  0  0  0  0  0  0  0  0  0  0  0
    4.1659    0.7578   -1.8254 H   0  0  0  0  0  0  0  0  0  0  0  0
    5.4028    2.5810   -1.3935 H   0  0  0  0  0  0  0  0  0  0  0  0
    6.7429    1.3866   -1.3184 H   0  0  0  0  0  0  0  0  0  0  0  0
    6.0744    1.1506    2.5095 H   0  0  0  0  0  0  0  0  0  0  0  0
    6.3545    0.0009    1.1133 H   0  0  0  0  0  0  0  0  0  0  0  0
    3.8188    1.0027    2.3702 H   0  0  0  0  0  0  0  0  0  0  0  0
    4.2087   -0.6051    1.6057 H   0  0  0  0  0  0  0  0  0  0  0  0
    5.1180    4.1115    0.2670 H   0  0  0  0  0  0  0  0  0  0  0  0
    5.0470    3.5115    2.0094 H   0  0  0  0  0  0  0  0  0  0  0  0
    7.5458    3.0006    1.9160 H   0  0  0  0  0  0  0  0  0  0  0  0
    9.4145    5.0772   -0.4482 H   0  0  0  0  0  0  0  0  0  0  0  0
   -0.2915    1.5137   -1.8042 H   0  0  0  0  0  0  0  0  0  0  0  0
   -0.4965   -1.9037   -3.2884 H   0  0  0  0  0  0  0  0  0  0  0  0
   -1.7448   -2.8618   -2.3226 H   0  0  0  0  0  0  0  0  0  0  0  0
   -2.2153   -1.5750   -3.4461 H   0  0  0  0  0  0  0  0  0  0  0  0
   -4.0780   -2.5967   -2.0343 H   0  0  0  0  0  0  0  0  0  0  0  0
   -5.0422   -2.4489   -0.5635 H   0  0  0  0  0  0  0  0  0  0  0  0
   -3.2253   -2.6569   -0.4577 H   0  0  0  0  0  0  0  0  0  0  0  0
   -5.2674    0.3366   -2.4813 H   0  0  0  0  0  0  0  0  0  0  0  0
   -3.5441    0.3562   -2.9670 H   0  0  0  0  0  0  0  0  0  0  0  0
   -4.4907   -1.1571   -3.1882 H   0  0  0  0  0  0  0  0  0  0  0  0
   -5.8502   -1.3453    0.7235 H   0  0  0  0  0  0  0  0  0  0  0  0
   -6.5811    2.5554    2.1363 H   0  0  0  0  0  0  0  0  0  0  0  0
   -3.6701    1.9366   -0.8768 H   0  0  0  0  0  0  0  0  0  0  0  0
  1  2  1  0
  2  3  2  0
  3  4  1  0
  4  5  1  0
  4  6  2  0
  6  7  1  0
  7  8  2  0
  8  9  1  0
  9 10  2  0
 10 11  1  0
 11 12  1  0
 12 13  1  0
 13 14  1  0
 14 15  1  0
 15 16  1  0
 16 17  1  0
 15 18  1  0
 18 19  1  0
 19 20  1  0
 20 21  2  0
 20 22  1  0
 11 23  2  0
 23 24  1  0
 24 25  2  0
 25 26  1  0
 26 27  1  0
 26 28  1  0
 28 29  2  0
 28 30  1  0
 30 31  1  0
 30 32  1  0
 30 33  1  0
 33 34  2  0
 34 35  1  0
 35 36  1  0
 36 37  1  0
 36 38  1  0
 36 39  1  0
 35 40  2  0
 40 41  1  0
 41 42  1  0
 42 43  1  0
 42 44  1  0
 42 45  1  0
 41 46  2  0
  8  2  1  0
 25  9  1  0
 46 33  1  0
 17 12  1  0
 19 15  1  0
  1 47  1  0
  1 48  1  0
  1 49  1  0
  3 50  1  0
  6 51  1  0
  7 52  1  0
 10 53  1  0
 12 54  1  0
 13 55  1  0
 13 56  1  0
 14 57  1  0
 14 58  1  0
 16 59  1  0
 16 60  1  0
 17 61  1  0
 17 62  1  0
 18 63  1  0
 18 64  1  0
 19 65  1  0
 22 66  1  0
 24 67  1  0
 27 68  1  0
 27 69  1  0
 27 70  1  0
 31 71  1  0
 31 72  1  0
 31 73  1  0
 32 74  1  0
 32 75  1  0
 32 76  1  0
 34 77  1  0
 40 78  1  0
 46 79  1  0
M  END
$$$$
