@<TRIPOS>MOLECULE
*****
 32 34 0 0 0
SMALL
GASTEIGER

@<TRIPOS>ATOM
      1 C          -4.4320   -0.8018    2.3552 C.3     1  UNL1       -0.0244
      2 C          -3.4039   -0.5510    1.3085 C.ar    1  UNL1        0.0135
      3 C          -3.6060    0.1323    0.1418 C.ar    1  UNL1       -0.0379
      4 C          -2.4177    0.1416   -0.5439 C.ar    1  UNL1       -0.0255
      5 C          -2.1520    0.7310   -1.8895 C.3     1  UNL1       -0.0377
      6 C          -1.5070   -0.5325    0.2108 C.ar    1  UNL1        0.0431
      7 C          -0.0905   -0.8059    0.0248 C.2     1  UNL1       -0.0254
      8 C           0.8695    0.0644   -0.0702 C.2     1  UNL1        0.0479
      9 C           0.7088    1.5015    0.0008 C.2     1  UNL1        0.2490
     10 O          -0.3684    2.1513    0.1916 O.2     1  UNL1       -0.2698
     11 N           2.0095    2.0473   -0.1833 N.am    1  UNL1       -0.2809
     12 C           2.9881    1.0346   -0.3661 C.ar    1  UNL1        0.0416
     13 C           4.3657    1.0517   -0.5780 C.ar    1  UNL1       -0.0399
     14 C           5.0726   -0.1127   -0.7235 C.ar    1  UNL1       -0.0600
     15 C           4.4107   -1.3293   -0.6595 C.ar    1  UNL1       -0.0611
     16 C           3.0323   -1.3252   -0.4469 C.ar    1  UNL1       -0.0521
     17 C           2.3028   -0.1620   -0.2980 C.ar    1  UNL1        0.0084
     18 N          -2.1419   -0.9486    1.3452 N.ar    1  UNL1       -0.3584
     19 H          -5.2245   -0.0468    2.2639 H       1  UNL1        0.0292
     20 H          -4.8457   -1.8091    2.2012 H       1  UNL1        0.0292
     21 H          -3.9809   -0.7566    3.3683 H       1  UNL1        0.0292
     22 H          -4.5399    0.5780   -0.1679 H       1  UNL1        0.0638
     23 H          -2.6740    0.1336   -2.6908 H       1  UNL1        0.0278
     24 H          -2.5127    1.7689   -1.8748 H       1  UNL1        0.0278
     25 H          -1.0903    0.7244   -2.1358 H       1  UNL1        0.0278
     26 H           0.1895   -1.8699   -0.0417 H       1  UNL1        0.0646
     27 H           2.2458    3.0658   -0.1881 H       1  UNL1        0.1552
     28 H           4.8825    1.9843   -0.6285 H       1  UNL1        0.0636
     29 H           6.1349   -0.0570   -0.8855 H       1  UNL1        0.0618
     30 H           4.9710   -2.2458   -0.7746 H       1  UNL1        0.0618
     31 H           2.5179   -2.2592   -0.3968 H       1  UNL1        0.0624
     32 H          -1.7140   -1.4970    2.1313 H       1  UNL1        0.1656
@<TRIPOS>BOND
     1     1     2    1
     2     2     3   ar
     3     3     4   ar
     4     4     5    1
     5     4     6   ar
     6     6     7    1
     7     7     8    2
     8     8     9    1
     9     9    10    2
    10     9    11   am
    11    11    12    1
    12    12    13   ar
    13    13    14   ar
    14    14    15   ar
    15    15    16   ar
    16    16    17   ar
    17     6    18   ar
    18    18     2   ar
    19    17     8    1
    20    17    12   ar
    21     1    19    1
    22     1    20    1
    23     1    21    1
    24     3    22    1
    25     5    23    1
    26     5    24    1
    27     5    25    1
    28     7    26    1
    29    11    27    1
    30    13    28    1
    31    14    29    1
    32    15    30    1
    33    16    31    1
    34    18    32    1
