
     RDKit          3D

 32 34  0  0  0  0  0  0  0  0999 V2000
   -4.4320   -0.8018    2.3552 C   0  0  0  0  0  0  0  0  0  0  0  0
   -3.4039   -0.5510    1.3085 C   0  0  0  0  0  0  0  0  0  0  0  0
   -3.6060    0.1323    0.1418 C   0  0  0  0  0  0  0  0  0  0  0  0
   -2.4177    0.1416   -0.5439 C   0  0  0  0  0  0  0  0  0  0  0  0
   -2.1520    0.7310   -1.8895 C   0  0  0  0  0  0  0  0  0  0  0  0
   -1.5070   -0.5325    0.2108 C   0  0  0  0  0  0  0  0  0  0  0  0
   -0.0905   -0.8059    0.0248 C   0  0  0  0  0  0  0  0  0  0  0  0
    0.8695    0.0644   -0.0702 C   0  0  0  0  0  0  0  0  0  0  0  0
    0.7088    1.5015    0.0008 C   0  0  0  0  0  0  0  0  0  0  0  0
   -0.3684    2.1513    0.1916 O   0  0  0  0  0  0  0  0  0  0  0  0
    2.0095    2.0473   -0.1833 N   0  0  0  0  0  0  0  0  0  0  0  0
    2.9881    1.0346   -0.3661 C   0  0  0  0  0  0  0  0  0  0  0  0
    4.3657    1.0517   -0.5780 C   0  0  0  0  0  0  0  0  0  0  0  0
    5.0726   -0.1127   -0.7235 C   0  0  0  0  0  0  0  0  0  0  0  0
    4.4107   -1.3293   -0.6595 C   0  0  0  0  0  0  0  0  0  0  0  0
    3.0323   -1.3252   -0.4469 C   0  0  0  0  0  0  0  0  0  0  0  0
    2.3028   -0.1620   -0.2980 C   0  0  0  0  0  0  0  0  0  0  0  0
   -2.1419   -0.9486    1.3452 N   0  0  0  0  0  0  0  0  0  0  0  0
   -5.2245   -0.0468    2.2639 H   0  0  0  0  0  0  0  0  0  0  0  0
   -4.8457   -1.8091    2.2012 H   0  0  0  0  0  0  0  0  0  0  0  0
   -3.9809   -0.7566    3.3683 H   0  0  0  0  0  0  0  0  0  0  0  0
   -4.5399    0.5780   -0.1679 H   0  0  0  0  0  0  0  0  0  0  0  0
   -2.6740    0.1336   -2.6908 H   0  0  0  0  0  0  0  0  0  0  0  0
   -2.5127    1.7689   -1.8748 H   0  0  0  0  0  0  0  0  0  0  0  0
   -1.0903    0.7244   -2.1358 H   0  0  0  0  0  0  0  0  0  0  0  0
    0.1895   -1.8699   -0.0417 H   0  0  0  0  0  0  0  0  0  0  0  0
    2.2458    3.0658   -0.1881 H   0  0  0  0  0  0  0  0  0  0  0  0
    4.8825    1.9843   -0.6285 H   0  0  0  0  0  0  0  0  0  0  0  0
    6.1349   -0.0570   -0.8855 H   0  0  0  0  0  0  0  0  0  0  0  0
    4.9710   -2.2458   -0.7746 H   0  0  0  0  0  0  0  0  0  0  0  0
    2.5179   -2.2592   -0.3968 H   0  0  0  0  0  0  0  0  0  0  0  0
   -1.7140   -1.4970    2.1313 H   0  0  0  0  0  0  0  0  0  0  0  0
  1  2  1  0
  2  3  2  0
  3  4  1  0
  4  5  1  0
  4  6  2  0
  6  7  1  0
  7  8  2  0
  8  9  1  0
  9 10  2  0
  9 11  1  0
 11 12  1  0
 12 13  2  0
 13 14  1  0
 14 15  2  0
 15 16  1  0
 16 17  2  0
  6 18  1  0
 18  2  1  0
 17  8  1  0
 17 12  1  0
  1 19  1  0
  1 20  1  0
  1 21  1  0
  3 22  1  0
  5 23  1  0
  5 24  1  0
  5 25  1  0
  7 26  1  0
 11 27  1  0
 13 28  1  0
 14 29  1  0
 15 30  1  0
 16 31  1  0
 18 32  1  0
M  END
$$$$
