@<TRIPOS>MOLECULE
*****
 69 71 0 0 0
SMALL
GASTEIGER

@<TRIPOS>ATOM
      1 C           6.9310    2.5251   -1.4366 C.3     1  UNL1       -0.0130
      2 N           7.1511    1.4963   -0.4239 N.3     1  UNL1       -0.3069
      3 C           8.0983    1.9869    0.5566 C.3     1  UNL1       -0.0130
      4 C           5.8382    1.2700    0.1893 C.3     1  UNL1        0.0141
      5 C           4.9340    0.6193   -0.8443 C.3     1  UNL1        0.0275
      6 N           3.6214    0.3616   -0.3286 N.am    1  UNL1       -0.2987
      7 C           2.6053    1.3850   -0.4602 C.3     1  UNL1        0.0305
      8 C           1.3666    0.8719   -1.1208 C.3     1  UNL1        0.0308
      9 N           0.6284   -0.0916   -0.2617 N.am    1  UNL1       -0.2955
     10 C          -0.5890   -0.4477   -0.7652 C.2     1  UNL1        0.2490
     11 O          -0.9241    0.1716   -1.8733 O.2     1  UNL1       -0.2699
     12 C          -1.5977   -1.4109   -0.2708 C.ar    1  UNL1        0.0657
     13 C          -1.3493   -2.4647    0.5172 C.ar    1  UNL1       -0.0370
     14 C          -2.3648   -3.3205    0.8604 C.ar    1  UNL1       -0.0023
     15 C          -2.3950   -4.5419    1.7007 C.3     1  UNL1       -0.0064
     16 C          -1.0360   -4.8241    2.2548 C.3     1  UNL1       -0.0556
     17 C          -3.4432   -4.3993    2.7805 C.3     1  UNL1       -0.0556
     18 C          -2.8051   -5.7626    0.8682 C.3     1  UNL1       -0.0556
     19 S          -3.7802   -2.5979    0.0135 S.2     1  UNL1       -0.0771
     20 C          -2.9046   -1.2559   -0.6996 C.ar    1  UNL1        0.0853
     21 N          -3.4991   -0.2668   -1.5197 N.am    1  UNL1       -0.2629
     22 C          -4.0414    0.9509   -1.0350 C.2     1  UNL1        0.3085
     23 O          -3.9927    1.1680    0.1912 O.2     1  UNL1       -0.2521
     24 N          -4.6360    1.9332   -1.8847 N.am    1  UNL1       -0.2678
     25 C          -5.1485    3.1223   -1.3287 C.ar    1  UNL1        0.0546
     26 C          -4.3493    4.2322   -1.1985 C.ar    1  UNL1       -0.0389
     27 C          -4.8425    5.4192   -0.6480 C.ar    1  UNL1       -0.0585
     28 C          -6.1505    5.4852   -0.2266 C.ar    1  UNL1       -0.0419
     29 C          -6.9610    4.3796   -0.3518 C.ar    1  UNL1        0.0610
     30 CL         -8.6135    4.4963    0.1927 Cl      1  UNL1       -0.0820
     31 C          -6.4521    3.2052   -0.9029 C.ar    1  UNL1        0.0804
     32 CL         -7.4928    1.8225   -1.0511 Cl      1  UNL1       -0.0801
     33 C           1.1230   -0.5403    0.9966 C.3     1  UNL1        0.0233
     34 C           2.2327   -1.5626    0.8292 C.3     1  UNL1        0.0399
     35 C           3.4544   -0.9061    0.2783 C.2     1  UNL1        0.2171
     36 O           4.4910   -1.5906    0.3702 O.2     1  UNL1       -0.2755
     37 H           6.6658    2.0084   -2.3804 H       1  UNL1        0.0391
     38 H           7.8496    3.1196   -1.5760 H       1  UNL1        0.0391
     39 H           6.1096    3.1828   -1.1042 H       1  UNL1        0.0391
     40 H           7.6099    2.7180    1.2571 H       1  UNL1        0.0391
     41 H           8.8748    2.5886    0.0264 H       1  UNL1        0.0391
     42 H           8.6075    1.1823    1.1167 H       1  UNL1        0.0391
     43 H           5.9979    0.5988    1.0564 H       1  UNL1        0.0442
     44 H           5.4105    2.2158    0.5600 H       1  UNL1        0.0442
     45 H           5.4188   -0.3348   -1.1376 H       1  UNL1        0.0477
     46 H           4.8367    1.2582   -1.7294 H       1  UNL1        0.0477
     47 H           2.9959    2.2283   -1.1089 H       1  UNL1        0.0480
     48 H           2.3400    1.8600    0.5167 H       1  UNL1        0.0480
     49 H           1.7039    0.2652   -2.0113 H       1  UNL1        0.0480
     50 H           0.7181    1.6732   -1.4724 H       1  UNL1        0.0480
     51 H          -0.3388   -2.7634    0.9214 H       1  UNL1        0.0634
     52 H          -0.5681   -3.9294    2.7201 H       1  UNL1        0.0238
     53 H          -0.3711   -5.2242    1.4682 H       1  UNL1        0.0238
     54 H          -1.1528   -5.6423    3.0116 H       1  UNL1        0.0238
     55 H          -3.8520   -5.4044    3.0207 H       1  UNL1        0.0238
     56 H          -2.9402   -3.9641    3.6784 H       1  UNL1        0.0238
     57 H          -4.2200   -3.7013    2.4072 H       1  UNL1        0.0238
     58 H          -2.3516   -6.6364    1.3493 H       1  UNL1        0.0238
     59 H          -2.5069   -5.6382   -0.1927 H       1  UNL1        0.0238
     60 H          -3.9104   -5.9053    0.8913 H       1  UNL1        0.0238
     61 H          -3.5445   -0.4397   -2.5461 H       1  UNL1        0.1569
     62 H          -4.6888    1.7635   -2.9184 H       1  UNL1        0.1564
     63 H          -3.3183    4.1821   -1.5306 H       1  UNL1        0.0637
     64 H          -4.2273    6.2954   -0.5400 H       1  UNL1        0.0619
     65 H          -6.5496    6.4107    0.2067 H       1  UNL1        0.0633
     66 H           0.3724   -0.9182    1.6790 H       1  UNL1        0.0469
     67 H           1.5736    0.3431    1.5754 H       1  UNL1        0.0469
     68 H           1.8595   -2.3553    0.1637 H       1  UNL1        0.0374
     69 H           2.4889   -1.9556    1.8164 H       1  UNL1        0.0374
@<TRIPOS>BOND
     1     1     2    1
     2     2     3    1
     3     2     4    1
     4     4     5    1
     5     5     6    1
     6     6     7    1
     7     7     8    1
     8     8     9    1
     9     9    10   am
    10    10    11    2
    11    10    12    1
    12    12    13   ar
    13    13    14   ar
    14    14    15    1
    15    15    16    1
    16    15    17    1
    17    15    18    1
    18    14    19   ar
    19    19    20   ar
    20    20    21    1
    21    21    22   am
    22    22    23    2
    23    22    24   am
    24    24    25    1
    25    25    26   ar
    26    26    27   ar
    27    27    28   ar
    28    28    29   ar
    29    29    30    1
    30    29    31   ar
    31    31    32    1
    32     9    33    1
    33    33    34    1
    34    34    35    1
    35    35    36    2
    36    35     6   am
    37    20    12   ar
    38    31    25   ar
    39     1    37    1
    40     1    38    1
    41     1    39    1
    42     3    40    1
    43     3    41    1
    44     3    42    1
    45     4    43    1
    46     4    44    1
    47     5    45    1
    48     5    46    1
    49     7    47    1
    50     7    48    1
    51     8    49    1
    52     8    50    1
    53    13    51    1
    54    16    52    1
    55    16    53    1
    56    16    54    1
    57    17    55    1
    58    17    56    1
    59    17    57    1
    60    18    58    1
    61    18    59    1
    62    18    60    1
    63    21    61    1
    64    24    62    1
    65    26    63    1
    66    27    64    1
    67    28    65    1
    68    33    66    1
    69    33    67    1
    70    34    68    1
    71    34    69    1
