@<TRIPOS>MOLECULE
*****
 39 41 0 0 0
SMALL
GASTEIGER

@<TRIPOS>ATOM
      1 C           6.3871    1.2283    0.3677 C.3     1  UNL1       -0.0363
      2 C           5.0250    0.6943    0.0634 C.ar    1  UNL1       -0.0090
      3 C           4.0974    1.4309   -0.6401 C.ar    1  UNL1       -0.0551
      4 C           2.8337    0.9668   -0.9366 C.ar    1  UNL1       -0.0566
      5 C           2.4525   -0.2948   -0.5201 C.ar    1  UNL1       -0.0270
      6 C           1.1059   -0.8517   -0.8079 C.3     1  UNL1        0.0340
      7 N           0.1910   -0.5229    0.2416 N.pl3   1  UNL1       -0.3449
      8 C          -1.1790   -0.9582    0.1801 C.2     1  UNL1        0.0025
      9 C          -2.1402   -0.0839   -0.0029 C.2     1  UNL1        0.0584
     10 C          -1.8251    1.3558   -0.1475 C.2     1  UNL1        0.2523
     11 O          -0.6466    1.7226   -0.0937 O.2     1  UNL1       -0.2697
     12 N          -2.8581    2.2876   -0.3433 N.am    1  UNL1       -0.2483
     13 C          -4.2077    1.8926   -0.4079 C.2     1  UNL1        0.2511
     14 O          -5.1216    2.7462   -0.5845 O.2     1  UNL1       -0.2698
     15 C          -4.5278    0.4815   -0.2671 C.ar    1  UNL1        0.0451
     16 C          -5.8679    0.1470   -0.3381 C.ar    1  UNL1       -0.0481
     17 C          -6.2282   -1.1758   -0.2110 C.ar    1  UNL1       -0.0479
     18 C          -5.2700   -2.1414   -0.0175 C.ar    1  UNL1        0.0140
     19 I          -5.8178   -4.1546    0.1759 I       1  UNL1       -0.0438
     20 C          -3.9226   -1.7724    0.0500 C.ar    1  UNL1       -0.0400
     21 C          -3.5326   -0.4615   -0.0731 C.ar    1  UNL1        0.0014
     22 C           3.3742   -1.0402    0.1851 C.ar    1  UNL1       -0.0152
     23 C           4.6387   -0.5725    0.4802 C.ar    1  UNL1        0.1201
     24 O           5.5674   -1.3171    1.1878 O.3     1  UNL1       -0.5065
     25 H           6.4119    2.2888    0.0959 H       1  UNL1        0.0279
     26 H           6.4887    1.1819    1.4838 H       1  UNL1        0.0279
     27 H           7.1665    0.6203   -0.1355 H       1  UNL1        0.0279
     28 H           4.3850    2.4185   -0.9705 H       1  UNL1        0.0621
     29 H           2.1013    1.5426   -1.4895 H       1  UNL1        0.0621
     30 H           1.1636   -1.9748   -0.9025 H       1  UNL1        0.0511
     31 H           0.7894   -0.4993   -1.8121 H       1  UNL1        0.0511
     32 H           0.4635    0.0321    1.0785 H       1  UNL1        0.1459
     33 H          -1.3925   -1.9925    0.2850 H       1  UNL1        0.0786
     34 H          -2.6267    3.3057   -0.4448 H       1  UNL1        0.1581
     35 H          -6.6162    0.9026   -0.4894 H       1  UNL1        0.0626
     36 H          -7.2778   -1.5057   -0.2586 H       1  UNL1        0.0628
     37 H          -3.2135   -2.5818    0.2045 H       1  UNL1        0.0634
     38 H           3.0819   -2.0220    0.5109 H       1  UNL1        0.0657
     39 H           6.5471   -1.3227    1.0252 H       1  UNL1        0.2921
@<TRIPOS>BOND
     1     1     2    1
     2     2     3   ar
     3     3     4   ar
     4     4     5   ar
     5     5     6    1
     6     6     7    1
     7     7     8    1
     8     8     9    2
     9     9    10    1
    10    10    11    2
    11    10    12   am
    12    12    13   am
    13    13    14    2
    14    13    15    1
    15    15    16   ar
    16    16    17   ar
    17    17    18   ar
    18    18    19    1
    19    18    20   ar
    20    20    21   ar
    21     5    22   ar
    22    22    23   ar
    23    23    24    1
    24    23     2   ar
    25    21     9    1
    26    21    15   ar
    27     1    25    1
    28     1    26    1
    29     1    27    1
    30     3    28    1
    31     4    29    1
    32     6    30    1
    33     6    31    1
    34     7    32    1
    35     8    33    1
    36    12    34    1
    37    16    35    1
    38    17    36    1
    39    20    37    1
    40    22    38    1
    41    24    39    1
