
     RDKit          3D

 42 44  0  0  0  0  0  0  0  0999 V2000
    2.5944   -0.9595    2.3279 C   0  0  0  0  0  0  0  0  0  0  0  0
    3.1453   -0.0779    1.2596 C   0  0  0  0  0  0  0  0  0  0  0  0
    4.4913    0.2783    1.1308 C   0  0  0  0  0  0  0  0  0  0  0  0
    4.5192    1.0883    0.0203 C   0  0  0  0  0  0  0  0  0  0  0  0
    5.7089    1.7256   -0.5386 C   0  0  0  0  0  0  0  0  0  0  0  0
    6.8510    1.5802   -0.0298 O   0  0  0  0  0  0  0  0  0  0  0  0
    5.6444    2.5338   -1.6715 O   0  0  0  0  0  0  0  0  0  0  0  0
    3.2733    1.1921   -0.4590 N   0  0  0  0  0  0  0  0  0  0  0  0
    2.4259    0.4948    0.2751 N   0  0  0  0  0  0  0  0  0  0  0  0
    0.9956    0.3258    0.1227 C   0  0  0  0  0  0  0  0  0  0  0  0
    0.6698   -0.8490   -0.7397 C   0  0  0  0  0  0  0  0  0  0  0  0
    1.6629   -1.6386   -1.2938 C   0  0  0  0  0  0  0  0  0  0  0  0
    1.3006   -2.7006   -2.0748 C   0  0  0  0  0  0  0  0  0  0  0  0
    2.6947   -3.7865   -2.8361 Br  0  0  0  0  0  0  0  0  0  0  0  0
   -0.0230   -2.9664   -2.2963 C   0  0  0  0  0  0  0  0  0  0  0  0
   -0.9954   -2.1768   -1.7417 C   0  0  0  0  0  0  0  0  0  0  0  0
   -0.6702   -1.1006   -0.9512 C   0  0  0  0  0  0  0  0  0  0  0  0
   -1.6603   -0.2838   -0.3773 O   0  0  0  0  0  0  0  0  0  0  0  0
   -3.0339   -0.5354   -0.5895 C   0  0  0  0  0  0  0  0  0  0  0  0
   -3.8972    0.4366    0.1001 C   0  0  0  0  0  0  0  0  0  0  0  0
   -4.3237    0.1932    1.3868 C   0  0  0  0  0  0  0  0  0  0  0  0
   -5.1329    1.0768    2.0691 C   0  0  0  0  0  0  0  0  0  0  0  0
   -5.5462    2.2445    1.4809 C   0  0  0  0  0  0  0  0  0  0  0  0
   -5.1292    2.5065    0.1914 C   0  0  0  0  0  0  0  0  0  0  0  0
   -4.3086    1.6025   -0.4901 C   0  0  0  0  0  0  0  0  0  0  0  0
    3.2204   -1.8456    2.4658 H   0  0  0  0  0  0  0  0  0  0  0  0
    1.5900   -1.3102    2.0220 H   0  0  0  0  0  0  0  0  0  0  0  0
    2.4565   -0.4126    3.2817 H   0  0  0  0  0  0  0  0  0  0  0  0
    5.3227   -0.0178    1.7637 H   0  0  0  0  0  0  0  0  0  0  0  0
    6.2114    3.3806   -1.7254 H   0  0  0  0  0  0  0  0  0  0  0  0
    0.6130    1.2186   -0.4173 H   0  0  0  0  0  0  0  0  0  0  0  0
    0.4911    0.1569    1.0911 H   0  0  0  0  0  0  0  0  0  0  0  0
    2.7025   -1.4145   -1.1086 H   0  0  0  0  0  0  0  0  0  0  0  0
   -0.2522   -3.8268   -2.9276 H   0  0  0  0  0  0  0  0  0  0  0  0
   -2.0254   -2.4093   -1.9328 H   0  0  0  0  0  0  0  0  0  0  0  0
   -3.3371   -1.5543   -0.2232 H   0  0  0  0  0  0  0  0  0  0  0  0
   -3.1860   -0.4926   -1.7026 H   0  0  0  0  0  0  0  0  0  0  0  0
   -3.9881   -0.7440    1.8502 H   0  0  0  0  0  0  0  0  0  0  0  0
   -5.4479    0.8590    3.0694 H   0  0  0  0  0  0  0  0  0  0  0  0
   -6.1925    2.9664    2.0049 H   0  0  0  0  0  0  0  0  0  0  0  0
   -5.4509    3.4338   -0.2904 H   0  0  0  0  0  0  0  0  0  0  0  0
   -3.9841    1.8084   -1.4962 H   0  0  0  0  0  0  0  0  0  0  0  0
  1  2  1  0
  2  3  2  0
  3  4  1  0
  4  5  1  0
  5  6  2  0
  5  7  1  0
  4  8  2  0
  8  9  1  0
  9 10  1  0
 10 11  1  0
 11 12  2  0
 12 13  1  0
 13 14  1  0
 13 15  2  0
 15 16  1  0
 16 17  2  0
 17 18  1  0
 18 19  1  0
 19 20  1  0
 20 21  2  0
 21 22  1  0
 22 23  2  0
 23 24  1  0
 24 25  2  0
  9  2  1  0
 17 11  1  0
 25 20  1  0
  1 26  1  0
  1 27  1  0
  1 28  1  0
  3 29  1  0
  7 30  1  0
 10 31  1  0
 10 32  1  0
 12 33  1  0
 15 34  1  0
 16 35  1  0
 19 36  1  0
 19 37  1  0
 21 38  1  0
 22 39  1  0
 23 40  1  0
 24 41  1  0
 25 42  1  0
M  END
$$$$
