@<TRIPOS>MOLECULE
*****
 42 44 0 0 0
SMALL
GASTEIGER

@<TRIPOS>ATOM
      1 C           2.5944   -0.9595    2.3279 C.3     1  UNL1       -0.0226
      2 C           3.1453   -0.0779    1.2596 C.ar    1  UNL1        0.0373
      3 C           4.4913    0.2783    1.1308 C.ar    1  UNL1       -0.0069
      4 C           4.5192    1.0883    0.0203 C.ar    1  UNL1        0.1693
      5 C           5.7089    1.7256   -0.5386 C.2     1  UNL1        0.3571
      6 O           6.8510    1.5802   -0.0298 O.2     1  UNL1       -0.2433
      7 O           5.6444    2.5338   -1.6715 O.3     1  UNL1       -0.4760
      8 N           3.2733    1.1921   -0.4590 N.ar    1  UNL1       -0.1640
      9 N           2.4259    0.4948    0.2751 N.ar    1  UNL1       -0.2633
     10 C           0.9956    0.3258    0.1227 C.3     1  UNL1        0.0703
     11 C           0.6698   -0.8490   -0.7397 C.ar    1  UNL1        0.0166
     12 C           1.6629   -1.6386   -1.2938 C.ar    1  UNL1       -0.0393
     13 C           1.3006   -2.7006   -2.0748 C.ar    1  UNL1        0.0184
     14 BR          2.6947   -3.7865   -2.8361 Br      1  UNL1       -0.0503
     15 C          -0.0230   -2.9664   -2.2963 C.ar    1  UNL1       -0.0443
     16 C          -0.9954   -2.1768   -1.7417 C.ar    1  UNL1       -0.0185
     17 C          -0.6702   -1.1006   -0.9512 C.ar    1  UNL1        0.1260
     18 O          -1.6603   -0.2838   -0.3773 O.3     1  UNL1       -0.4870
     19 C          -3.0339   -0.5354   -0.5895 C.3     1  UNL1        0.1146
     20 C          -3.8972    0.4366    0.1001 C.ar    1  UNL1       -0.0104
     21 C          -4.3237    0.1932    1.3868 C.ar    1  UNL1       -0.0554
     22 C          -5.1329    1.0768    2.0691 C.ar    1  UNL1       -0.0614
     23 C          -5.5462    2.2445    1.4809 C.ar    1  UNL1       -0.0617
     24 C          -5.1292    2.5065    0.1914 C.ar    1  UNL1       -0.0614
     25 C          -4.3086    1.6025   -0.4901 C.ar    1  UNL1       -0.0554
     26 H           3.2204   -1.8456    2.4658 H       1  UNL1        0.0292
     27 H           1.5900   -1.3102    2.0220 H       1  UNL1        0.0292
     28 H           2.4565   -0.4126    3.2817 H       1  UNL1        0.0292
     29 H           5.3227   -0.0178    1.7637 H       1  UNL1        0.0659
     30 H           6.2114    3.3806   -1.7254 H       1  UNL1        0.2955
     31 H           0.6130    1.2186   -0.4173 H       1  UNL1        0.0560
     32 H           0.4911    0.1569    1.0911 H       1  UNL1        0.0560
     33 H           2.7025   -1.4145   -1.1086 H       1  UNL1        0.0633
     34 H          -0.2522   -3.8268   -2.9276 H       1  UNL1        0.0630
     35 H          -2.0254   -2.4093   -1.9328 H       1  UNL1        0.0654
     36 H          -3.3371   -1.5543   -0.2232 H       1  UNL1        0.0748
     37 H          -3.1860   -0.4926   -1.7026 H       1  UNL1        0.0748
     38 H          -3.9881   -0.7440    1.8502 H       1  UNL1        0.0621
     39 H          -5.4479    0.8590    3.0694 H       1  UNL1        0.0618
     40 H          -6.1925    2.9664    2.0049 H       1  UNL1        0.0618
     41 H          -5.4509    3.4338   -0.2904 H       1  UNL1        0.0618
     42 H          -3.9841    1.8084   -1.4962 H       1  UNL1        0.0621
@<TRIPOS>BOND
     1     1     2    1
     2     2     3   ar
     3     3     4   ar
     4     4     5    1
     5     5     6    2
     6     5     7    1
     7     4     8   ar
     8     8     9   ar
     9     9    10    1
    10    10    11    1
    11    11    12   ar
    12    12    13   ar
    13    13    14    1
    14    13    15   ar
    15    15    16   ar
    16    16    17   ar
    17    17    18    1
    18    18    19    1
    19    19    20    1
    20    20    21   ar
    21    21    22   ar
    22    22    23   ar
    23    23    24   ar
    24    24    25   ar
    25     9     2   ar
    26    17    11   ar
    27    25    20   ar
    28     1    26    1
    29     1    27    1
    30     1    28    1
    31     3    29    1
    32     7    30    1
    33    10    31    1
    34    10    32    1
    35    12    33    1
    36    15    34    1
    37    16    35    1
    38    19    36    1
    39    19    37    1
    40    21    38    1
    41    22    39    1
    42    23    40    1
    43    24    41    1
    44    25    42    1
