
     RDKit          3D

 16 15  0  0  0  0  0  0  0  0999 V2000
    3.9073   -0.7067    0.0104 O   0  0  0  0  0  0  0  0  0  0  0  0
    2.5984   -0.4873    0.2174 N   0  0  0  0  0  0  0  0  0  0  0  0
    1.5222   -0.0952   -0.6120 C   0  0  0  0  0  0  0  0  0  0  0  0
    1.9090    0.0817   -1.8141 O   0  0  0  0  0  0  0  0  0  0  0  0
    0.1970    0.0289    0.0603 C   0  0  0  0  0  0  0  0  0  0  0  0
   -0.6941    0.4216   -0.9479 O   0  0  0  0  0  0  0  0  0  0  0  0
   -2.2418    0.5870   -0.2588 P   0  0  0  0  0  0  0  0  0  0  0  0
   -3.0489   -0.8604   -0.4930 O   0  0  0  0  0  0  0  0  0  0  0  0
   -2.0223    0.9684    1.3717 O   0  0  0  0  0  0  0  0  0  0  0  0
   -2.9432    1.7633   -0.8970 O   0  0  0  0  0  0  0  0  0  0  0  0
    4.2985   -0.0654   -0.6118 H   0  0  0  0  0  0  0  0  0  0  0  0
    2.4673   -0.6775    1.2397 H   0  0  0  0  0  0  0  0  0  0  0  0
   -0.1023   -1.0064    0.3943 H   0  0  0  0  0  0  0  0  0  0  0  0
    0.2112    0.6988    0.9180 H   0  0  0  0  0  0  0  0  0  0  0  0
   -4.0325   -0.8062   -0.3617 H   0  0  0  0  0  0  0  0  0  0  0  0
   -2.0260    0.1554    1.9389 H   0  0  0  0  0  0  0  0  0  0  0  0
  1  2  1  0
  2  3  1  0
  3  4  2  0
  3  5  1  0
  5  6  1  0
  6  7  1  0
  7  8  1  0
  7  9  1  0
  7 10  2  0
  1 11  1  0
  2 12  1  0
  5 13  1  0
  5 14  1  0
  8 15  1  0
  9 16  1  0
M  END
$$$$
