@<TRIPOS>MOLECULE
*****
 16 15 0 0 0
SMALL
GASTEIGER

@<TRIPOS>ATOM
      1 O           3.9073   -0.7067    0.0104 O.3     1  UNL1       -0.2951
      2 N           2.5984   -0.4873    0.2174 N.am    1  UNL1       -0.1956
      3 C           1.5222   -0.0952   -0.6120 C.2     1  UNL1        0.2618
      4 O           1.9090    0.0817   -1.8141 O.2     1  UNL1       -0.2712
      5 C           0.1970    0.0289    0.0603 C.3     1  UNL1        0.1370
      6 O          -0.6941    0.4216   -0.9479 O.3     1  UNL1       -0.2773
      7 P          -2.2418    0.5870   -0.2588 P.3     1  UNL1        0.4728
      8 O          -3.0489   -0.8604   -0.4930 O.3     1  UNL1       -0.3026
      9 O          -2.0223    0.9684    1.3717 O.3     1  UNL1       -0.3026
     10 O          -2.9432    1.7633   -0.8970 O.2     1  UNL1       -0.2275
     11 H           4.2985   -0.0654   -0.6118 H       1  UNL1        0.2414
     12 H           2.4673   -0.6775    1.2397 H       1  UNL1        0.1823
     13 H          -0.1023   -1.0064    0.3943 H       1  UNL1        0.0663
     14 H           0.2112    0.6988    0.9180 H       1  UNL1        0.0663
     15 H          -4.0325   -0.8062   -0.3617 H       1  UNL1        0.2220
     16 H          -2.0260    0.1554    1.9389 H       1  UNL1        0.2220
@<TRIPOS>BOND
     1     1     2    1
     2     2     3   am
     3     3     4    2
     4     3     5    1
     5     5     6    1
     6     6     7    1
     7     7     8    1
     8     7     9    1
     9     7    10    2
    10     1    11    1
    11     2    12    1
    12     5    13    1
    13     5    14    1
    14     8    15    1
    15     9    16    1
