@<TRIPOS>MOLECULE
*****
 41 43 0 0 0
SMALL
GASTEIGER

@<TRIPOS>ATOM
      1 C          -7.4601   -0.1875    0.2152 C.3     1  UNL1       -0.0306
      2 C          -6.8374    1.0573   -0.3615 C.3     1  UNL1        0.0898
      3 O          -5.5743    1.2531    0.2490 O.3     1  UNL1       -0.4624
      4 C          -4.5536    0.3368    0.1739 C.2     1  UNL1        0.3480
      5 O          -4.8486   -0.6949   -0.4902 O.2     1  UNL1       -0.2467
      6 C          -3.2438    0.6309    0.8550 C.3     1  UNL1        0.1932
      7 C          -3.5219    0.6862    2.3486 C.3     1  UNL1       -0.0172
      8 O          -2.3460   -0.4355    0.6510 O.3     1  UNL1       -0.4779
      9 C          -1.1326   -0.3263   -0.0140 C.ar    1  UNL1        0.1219
     10 C          -0.4931   -1.5712   -0.0373 C.ar    1  UNL1       -0.0164
     11 C           0.7530   -1.7107   -0.6571 C.ar    1  UNL1       -0.0157
     12 C           1.3691   -0.6077   -1.2579 C.ar    1  UNL1        0.1336
     13 O           2.5849   -0.6466   -1.8870 O.3     1  UNL1       -0.4105
     14 C           3.7926   -0.4176   -1.2408 C.ar    1  UNL1        0.4022
     15 N           4.1353   -0.1206    0.0447 N.ar    1  UNL1       -0.1746
     16 C           5.4928   -0.0032    0.1059 C.ar    1  UNL1        0.1132
     17 C           5.9365   -0.2438   -1.1990 C.ar    1  UNL1        0.1602
     18 O           4.8931   -0.4873   -1.9738 O.2     1  UNL1       -0.4083
     19 C           7.3063   -0.1921   -1.4542 C.ar    1  UNL1        0.0013
     20 C           8.1440    0.0961   -0.3914 C.ar    1  UNL1        0.0446
     21 CL          9.8649    0.1430   -0.7976 Cl      1  UNL1       -0.0834
     22 C           7.7135    0.3309    0.8808 C.ar    1  UNL1       -0.0411
     23 C           6.3456    0.2830    1.1536 C.ar    1  UNL1       -0.0311
     24 C           0.7009    0.5993   -1.2099 C.ar    1  UNL1       -0.0157
     25 C          -0.5271    0.7619   -0.6055 C.ar    1  UNL1       -0.0164
     26 H          -7.3209   -1.0306   -0.5138 H       1  UNL1        0.0262
     27 H          -7.0290   -0.4840    1.1967 H       1  UNL1        0.0262
     28 H          -8.5547   -0.0484    0.3174 H       1  UNL1        0.0262
     29 H          -6.7293    0.9887   -1.4671 H       1  UNL1        0.0694
     30 H          -7.4605    1.9371   -0.0481 H       1  UNL1        0.0694
     31 H          -2.9095    1.5929    0.4381 H       1  UNL1        0.0849
     32 H          -2.6087    0.6250    2.9621 H       1  UNL1        0.0271
     33 H          -4.1179   -0.2237    2.5799 H       1  UNL1        0.0271
     34 H          -4.1202    1.5836    2.5771 H       1  UNL1        0.0271
     35 H          -0.8400   -2.5038    0.3792 H       1  UNL1        0.0655
     36 H           1.2974   -2.6441   -0.7087 H       1  UNL1        0.0655
     37 H           7.6006   -0.3829   -2.4676 H       1  UNL1        0.0670
     38 H           8.4037    0.5527    1.6823 H       1  UNL1        0.0633
     39 H           5.9259    0.4576    2.1358 H       1  UNL1        0.0640
     40 H           1.0788    1.5336   -1.6432 H       1  UNL1        0.0655
     41 H          -1.1099    1.6436   -0.5208 H       1  UNL1        0.0655
@<TRIPOS>BOND
     1     1     2    1
     2     2     3    1
     3     3     4    1
     4     4     5    2
     5     4     6    1
     6     6     7    1
     7     6     8    1
     8     8     9    1
     9     9    10   ar
    10    10    11   ar
    11    11    12   ar
    12    12    13    1
    13    13    14    1
    14    14    15   ar
    15    15    16   ar
    16    16    17   ar
    17    17    18   ar
    18    17    19   ar
    19    19    20   ar
    20    20    21    1
    21    20    22   ar
    22    22    23   ar
    23    12    24   ar
    24    24    25   ar
    25    25     9   ar
    26    18    14   ar
    27    23    16   ar
    28     1    26    1
    29     1    27    1
    30     1    28    1
    31     2    29    1
    32     2    30    1
    33     6    31    1
    34     7    32    1
    35     7    33    1
    36     7    34    1
    37    10    35    1
    38    11    36    1
    39    19    37    1
    40    22    38    1
    41    23    39    1
    42    24    40    1
    43    25    41    1
