@<TRIPOS>MOLECULE
*****
 37 39 0 0 0
SMALL
GASTEIGER

@<TRIPOS>ATOM
      1 O          -5.2820    2.1602   -0.3761 O.2     1  UNL1       -0.2451
      2 C          -5.4255    0.9324   -0.4819 C.2     1  UNL1        0.3369
      3 O          -6.6049    0.4115   -0.9930 O.3     1  UNL1       -0.4771
      4 C          -4.3227    0.0463   -0.0554 C.ar    1  UNL1        0.0607
      5 C          -4.5102   -1.3126   -0.1844 C.ar    1  UNL1       -0.0477
      6 C          -3.4925   -2.1493    0.2086 C.ar    1  UNL1       -0.0591
      7 C          -2.3198   -1.6185    0.7173 C.ar    1  UNL1       -0.0353
      8 C          -2.1316   -0.2618    0.8465 C.ar    1  UNL1        0.1063
      9 S          -0.6491    0.3212    1.4863 S.O2    1  UNL1        0.0612
     10 O          -0.0445   -0.7533    2.3810 O.2     1  UNL1       -0.1528
     11 O          -0.7777    1.5568    2.3106 O.2     1  UNL1       -0.1528
     12 N           0.5461    0.6026    0.2427 N.3     1  UNL1       -0.1720
     13 C           0.7780   -0.6747   -0.3689 C.3     1  UNL1        0.0248
     14 C           1.8231   -0.6630   -1.4337 C.3     1  UNL1       -0.0129
     15 C           3.0598   -0.0857   -0.8707 C.ar    1  UNL1       -0.0416
     16 C           4.3140   -0.4206   -1.3818 C.ar    1  UNL1       -0.0569
     17 C           5.4456    0.1187   -0.8535 C.ar    1  UNL1       -0.0431
     18 C           5.3811    1.0076    0.1975 C.ar    1  UNL1        0.0413
     19 CL          6.8647    1.6753    0.8439 Cl      1  UNL1       -0.0835
     20 C           4.1399    1.3243    0.6861 C.ar    1  UNL1       -0.0387
     21 C           2.9717    0.7895    0.1666 C.ar    1  UNL1       -0.0271
     22 C           1.7026    1.2214    0.7930 C.3     1  UNL1        0.0458
     23 C          -3.1540    0.5709    0.4515 C.ar    1  UNL1       -0.0214
     24 H          -7.2815    1.0075   -1.4456 H       1  UNL1        0.2954
     25 H          -5.4396   -1.7159   -0.5869 H       1  UNL1        0.0626
     26 H          -3.6358   -3.2092    0.1092 H       1  UNL1        0.0618
     27 H          -1.5606   -2.3451    1.0066 H       1  UNL1        0.0637
     28 H          -0.2022   -0.9935   -0.8228 H       1  UNL1        0.0447
     29 H           1.1029   -1.3883    0.4191 H       1  UNL1        0.0447
     30 H           1.4856   -0.1378   -2.3645 H       1  UNL1        0.0326
     31 H           2.0622   -1.7413   -1.6670 H       1  UNL1        0.0326
     32 H           4.3478   -1.1181   -2.2051 H       1  UNL1        0.0621
     33 H           6.3942   -0.1685   -1.2800 H       1  UNL1        0.0632
     34 H           4.1054    2.0322    1.5216 H       1  UNL1        0.0635
     35 H           1.7704    0.9944    1.8654 H       1  UNL1        0.0493
     36 H           1.6277    2.3315    0.5985 H       1  UNL1        0.0493
     37 H          -3.0884    1.6527    0.5193 H       1  UNL1        0.0645
@<TRIPOS>BOND
     1     1     2    2
     2     2     3    1
     3     2     4    1
     4     4     5   ar
     5     5     6   ar
     6     6     7   ar
     7     7     8   ar
     8     8     9    1
     9     9    10    2
    10     9    11    2
    11     9    12    1
    12    12    13    1
    13    13    14    1
    14    14    15    1
    15    15    16   ar
    16    16    17   ar
    17    17    18   ar
    18    18    19    1
    19    18    20   ar
    20    20    21   ar
    21    21    22    1
    22     8    23   ar
    23    23     4   ar
    24    22    12    1
    25    21    15   ar
    26     3    24    1
    27     5    25    1
    28     6    26    1
    29     7    27    1
    30    13    28    1
    31    13    29    1
    32    14    30    1
    33    14    31    1
    34    16    32    1
    35    17    33    1
    36    20    34    1
    37    22    35    1
    38    22    36    1
    39    23    37    1
