@<TRIPOS>MOLECULE
*****
 39 41 0 0 0
SMALL
GASTEIGER

@<TRIPOS>ATOM
      1 N          -1.5251   -2.2689   -2.4070 N.pl3   1  UNL1       -0.3273
      2 C          -1.2222   -1.3077   -1.3828 C.ar    1  UNL1        0.2200
      3 N          -0.0356   -0.8192   -1.0425 N.ar    1  UNL1       -0.1798
      4 C          -0.1266    0.0626   -0.0389 C.ar    1  UNL1        0.2407
      5 N           0.8937    0.7954    0.6040 N.pl3   1  UNL1       -0.2824
      6 C           2.2652    0.7658    0.3314 C.ar    1  UNL1        0.0337
      7 C           2.8096   -0.0195   -0.6431 C.ar    1  UNL1       -0.0386
      8 C           4.1943   -0.0250   -0.8909 C.ar    1  UNL1       -0.0336
      9 C           5.0440    0.7621   -0.1578 C.ar    1  UNL1        0.1051
     10 S           6.7736    0.7649   -0.4566 S.O2    1  UNL1        0.0559
     11 N           7.5835   -0.4150    0.4898 N.3     1  UNL1       -0.2035
     12 O           7.2704    2.1410   -0.0913 O.2     1  UNL1       -0.1533
     13 O           7.0333    0.5308   -1.8961 O.2     1  UNL1       -0.1533
     14 C           4.4994    1.5564    0.8269 C.ar    1  UNL1       -0.0336
     15 C           3.1458    1.5557    1.0623 C.ar    1  UNL1       -0.0386
     16 N          -1.4539    0.0932    0.2271 N.ar    1  UNL1       -0.1245
     17 N          -2.1324   -0.7104   -0.5548 N.ar    1  UNL1       -0.1611
     18 C          -3.5201   -0.9967   -0.6345 C.2     1  UNL1        0.2870
     19 O          -3.9203   -1.8769   -1.5079 O.2     1  UNL1       -0.2649
     20 C          -4.5871   -0.4333    0.1446 C.ar    1  UNL1        0.1115
     21 C          -5.8460   -1.0539    0.1842 C.ar    1  UNL1        0.1385
     22 F          -5.9751   -2.2117   -0.5217 F       1  UNL1       -0.2046
     23 C          -6.9067   -0.5341    0.8988 C.ar    1  UNL1       -0.0255
     24 C          -6.7643    0.6239    1.6053 C.ar    1  UNL1       -0.0563
     25 C          -5.5492    1.2426    1.5796 C.ar    1  UNL1       -0.0255
     26 C          -4.4704    0.7187    0.8552 C.ar    1  UNL1        0.1385
     27 F          -3.3376    1.4219    0.8859 F       1  UNL1       -0.2046
     28 H          -1.4617   -2.0109   -3.4200 H       1  UNL1        0.1452
     29 H          -1.8145   -3.2421   -2.1970 H       1  UNL1        0.1452
     30 H           0.5552    1.4397    1.3848 H       1  UNL1        0.1551
     31 H           2.2191   -0.6665   -1.2645 H       1  UNL1        0.0637
     32 H           4.6088   -0.6503   -1.6635 H       1  UNL1        0.0638
     33 H           7.5164   -1.3581    0.0617 H       1  UNL1        0.1442
     34 H           7.1904   -0.4001    1.4666 H       1  UNL1        0.1442
     35 H           5.1748    2.1751    1.4019 H       1  UNL1        0.0638
     36 H           2.7718    2.2128    1.8635 H       1  UNL1        0.0637
     37 H          -7.8670   -1.0523    0.8996 H       1  UNL1        0.0646
     38 H          -7.6035    1.0358    2.1716 H       1  UNL1        0.0619
     39 H          -5.4299    2.1542    2.1332 H       1  UNL1        0.0646
@<TRIPOS>BOND
     1     1     2    1
     2     2     3   ar
     3     3     4   ar
     4     4     5    1
     5     5     6    1
     6     6     7   ar
     7     7     8   ar
     8     8     9   ar
     9     9    10    1
    10    10    11    1
    11    10    12    2
    12    10    13    2
    13     9    14   ar
    14    14    15   ar
    15     4    16   ar
    16    16    17   ar
    17    17    18   am
    18    18    19    2
    19    18    20    1
    20    20    21   ar
    21    21    22    1
    22    21    23   ar
    23    23    24   ar
    24    24    25   ar
    25    25    26   ar
    26    26    27    1
    27    17     2   ar
    28    26    20   ar
    29    15     6   ar
    30     1    28    1
    31     1    29    1
    32     5    30    1
    33     7    31    1
    34     8    32    1
    35    11    33    1
    36    11    34    1
    37    14    35    1
    38    15    36    1
    39    23    37    1
    40    24    38    1
    41    25    39    1
