@<TRIPOS>MOLECULE
*****
 56 58 0 0 0
SMALL
GASTEIGER

@<TRIPOS>ATOM
      1 C           0.1715   -0.6736   -1.8674 C.3     1  UNL1        0.1022
      2 C           0.6206    0.7003   -2.3252 C.3     1  UNL1       -0.0243
      3 C          -0.3316    1.6348   -1.6058 C.3     1  UNL1       -0.0350
      4 C          -0.6746    0.7931   -0.3940 C.3     1  UNL1        0.0156
      5 N          -1.0010   -0.4887   -1.0370 N.am    1  UNL1       -0.2889
      6 C          -2.0766   -1.4172   -0.9951 C.2     1  UNL1        0.2301
      7 O          -2.0804   -2.4849   -1.6867 O.2     1  UNL1       -0.2742
      8 C          -3.3341   -1.4384   -0.2547 C.3     1  UNL1        0.0736
      9 N          -3.5276   -0.2674    0.6116 N.3     1  UNL1       -0.3054
     10 C          -4.8133   -0.4148    1.3161 C.3     1  UNL1        0.0081
     11 C          -5.8728   -0.4976    0.2131 C.3     1  UNL1       -0.0375
     12 C          -7.0745    0.2048    0.8058 C.3     1  UNL1       -0.0516
     13 C          -6.4994    1.2946    1.6636 C.3     1  UNL1       -0.0516
     14 C          -5.1080    0.8540    2.0642 C.3     1  UNL1       -0.0375
     15 C           1.1958   -1.3463   -1.0051 C.2     1  UNL1        0.2338
     16 O           0.9015   -1.6104    0.1887 O.2     1  UNL1       -0.2738
     17 N           2.4729   -1.6771   -1.5309 N.am    1  UNL1       -0.3097
     18 C           3.5696   -2.3241   -0.8363 C.3     1  UNL1        0.0369
     19 C           4.2029   -1.3159    0.0387 C.ar    1  UNL1       -0.0303
     20 C           5.2252   -0.5908   -0.5840 C.ar    1  UNL1       -0.0563
     21 C           5.9354    0.3908    0.0692 C.ar    1  UNL1       -0.0466
     22 C           5.6394    0.6789    1.3817 C.ar    1  UNL1        0.0647
     23 C           4.6335   -0.0309    2.0032 C.ar    1  UNL1       -0.0466
     24 C           3.9212   -1.0134    1.3526 C.ar    1  UNL1       -0.0563
     25 C           6.3860    1.7187    2.0842 C.2     1  UNL1        0.3081
     26 N           6.6123    1.6661    3.4998 N.pl3   1  UNL1       -0.2466
     27 N           6.8236    2.6847    1.3289 N.2     1  UNL1       -0.0994
     28 H          -0.1036   -1.3152   -2.7210 H       1  UNL1        0.0597
     29 H           0.6194    0.8286   -3.4149 H       1  UNL1        0.0288
     30 H           1.6286    0.8653   -1.8694 H       1  UNL1        0.0288
     31 H           0.1537    2.5916   -1.3333 H       1  UNL1        0.0281
     32 H          -1.2008    1.7818   -2.2794 H       1  UNL1        0.0281
     33 H          -1.4711    1.1890    0.2272 H       1  UNL1        0.0465
     34 H           0.2919    0.6947    0.1724 H       1  UNL1        0.0465
     35 H          -3.4777   -2.3765    0.3591 H       1  UNL1        0.0520
     36 H          -4.2116   -1.4388   -0.9588 H       1  UNL1        0.0520
     37 H          -3.7390    0.5133   -0.0844 H       1  UNL1        0.1226
     38 H          -4.8147   -1.3132    1.9520 H       1  UNL1        0.0460
     39 H          -5.5564    0.0704   -0.6946 H       1  UNL1        0.0280
     40 H          -6.0638   -1.5266   -0.0927 H       1  UNL1        0.0280
     41 H          -7.7166   -0.4819    1.3931 H       1  UNL1        0.0266
     42 H          -7.6438    0.6552   -0.0341 H       1  UNL1        0.0266
     43 H          -7.1766    1.4296    2.5476 H       1  UNL1        0.0266
     44 H          -6.4385    2.2175    1.0535 H       1  UNL1        0.0266
     45 H          -5.1083    0.7217    3.1795 H       1  UNL1        0.0280
     46 H          -4.3902    1.6478    1.8104 H       1  UNL1        0.0280
     47 H           2.6310   -1.4176   -2.5451 H       1  UNL1        0.1491
     48 H           3.1095   -3.1113   -0.1723 H       1  UNL1        0.0512
     49 H           4.2664   -2.7709   -1.5470 H       1  UNL1        0.0512
     50 H           5.5261   -0.7467   -1.6052 H       1  UNL1        0.0621
     51 H           6.7325    0.9568   -0.4137 H       1  UNL1        0.0626
     52 H           4.3856    0.1768    3.0274 H       1  UNL1        0.0626
     53 H           3.1283   -1.5998    1.7837 H       1  UNL1        0.0621
     54 H           7.5300    1.1504    3.3780 H       1  UNL1        0.2884
     55 H           5.8345    2.1254    4.0364 H       1  UNL1        0.2884
     56 H           7.3578    3.4539    1.7484 H       1  UNL1        0.3633
@<TRIPOS>BOND
     1     1     2    1
     2     2     3    1
     3     3     4    1
     4     4     5    1
     5     5     6   am
     6     6     7    2
     7     6     8    1
     8     8     9    1
     9     9    10    1
    10    10    11    1
    11    11    12    1
    12    12    13    1
    13    13    14    1
    14     1    15    1
    15    15    16    2
    16    15    17   am
    17    17    18    1
    18    18    19    1
    19    19    20   ar
    20    20    21   ar
    21    21    22   ar
    22    22    23   ar
    23    23    24   ar
    24    22    25    1
    25    25    26    1
    26    25    27    2
    27     5     1    1
    28    14    10    1
    29    24    19   ar
    30     1    28    1
    31     2    29    1
    32     2    30    1
    33     3    31    1
    34     3    32    1
    35     4    33    1
    36     4    34    1
    37     8    35    1
    38     8    36    1
    39     9    37    1
    40    10    38    1
    41    11    39    1
    42    11    40    1
    43    12    41    1
    44    12    42    1
    45    13    43    1
    46    13    44    1
    47    14    45    1
    48    14    46    1
    49    17    47    1
    50    18    48    1
    51    18    49    1
    52    20    50    1
    53    21    51    1
    54    23    52    1
    55    24    53    1
    56    26    54    1
    57    26    55    1
    58    27    56    1
