@<TRIPOS>MOLECULE
*****
 64 66 0 0 0
SMALL
GASTEIGER

@<TRIPOS>ATOM
      1 C           0.7739    1.6755    1.0473 C.3     1  UNL1       -0.0383
      2 C           1.0105    0.1905    1.0329 C.3     1  UNL1        0.0930
      3 C           1.9356   -0.0590    2.2354 C.3     1  UNL1       -0.0383
      4 C          -0.3146   -0.4449    1.5199 C.2     1  UNL1        0.2331
      5 O          -0.3452   -1.2815    2.3243 O.2     1  UNL1       -0.2738
      6 N          -1.4865    0.1561    0.8456 N.am    1  UNL1       -0.3109
      7 C          -2.7609   -0.4540    1.3471 C.3     1  UNL1        0.0232
      8 C          -3.6959   -0.4218    0.1965 C.3     1  UNL1       -0.0345
      9 C          -4.8485    0.5276    0.2916 C.3     1  UNL1       -0.0502
     10 C          -5.8000    0.1916    1.3989 C.3     1  UNL1       -0.0373
     11 C          -5.9270    1.3816    2.3548 C.3     1  UNL1        0.0462
     12 C          -7.4048    1.4939    2.6980 C.1     1  UNL1        0.0659
     13 N          -8.5700    1.5751    2.9882 N.1     1  UNL1       -0.1963
     14 C          -5.2400    1.0106    3.6801 C.3     1  UNL1       -0.0373
     15 C          -4.1216    0.0351    3.4729 C.3     1  UNL1       -0.0502
     16 C          -3.1140    0.4099    2.5073 C.3     1  UNL1       -0.0345
     17 N           1.4714   -0.3502   -0.1516 N.3     1  UNL1       -0.2864
     18 C           1.9025   -1.7261   -0.1592 C.3     1  UNL1        0.0157
     19 C           3.2057   -1.7795   -0.9590 C.3     1  UNL1        0.0263
     20 N           3.0124   -1.0622   -2.1729 N.pl3   1  UNL1       -0.3127
     21 C           4.1522   -0.8437   -3.0128 C.ar    1  UNL1        0.1213
     22 C           5.3066   -1.4732   -3.0630 C.ar    1  UNL1       -0.0212
     23 C           6.2930   -1.0515   -3.9627 C.ar    1  UNL1       -0.0454
     24 C           6.1862   -0.0769   -4.7803 C.ar    1  UNL1        0.0730
     25 C           7.1461    0.4921   -5.7940 C.3     1  UNL1        0.4188
     26 F           8.3986    0.0044   -5.6009 F       1  UNL1       -0.1658
     27 F           7.1054    1.9065   -5.7819 F       1  UNL1       -0.1658
     28 F           6.7311    0.1128   -7.0592 F       1  UNL1       -0.1658
     29 C           4.8978    0.6575   -4.7533 C.ar    1  UNL1        0.0413
     30 N           3.9840    0.2431   -3.8993 N.ar    1  UNL1       -0.2398
     31 C           1.7001   -0.5875   -2.5701 C.3     1  UNL1        0.0263
     32 C           1.0567    0.1276   -1.4072 C.3     1  UNL1        0.0157
     33 H           0.3858    1.9156    2.0805 H       1  UNL1        0.0252
     34 H           1.7540    2.2259    1.0151 H       1  UNL1        0.0252
     35 H           0.0657    2.0652    0.3319 H       1  UNL1        0.0252
     36 H           2.9824    0.1278    2.0343 H       1  UNL1        0.0252
     37 H           1.5762    0.6061    3.0533 H       1  UNL1        0.0252
     38 H           1.7204   -1.0965    2.5859 H       1  UNL1        0.0252
     39 H          -1.4252    0.8447    0.1643 H       1  UNL1        0.1490
     40 H          -2.4870   -1.4824    1.6241 H       1  UNL1        0.0498
     41 H          -3.1646   -0.1576   -0.7609 H       1  UNL1        0.0283
     42 H          -4.1525   -1.4465    0.0595 H       1  UNL1        0.0283
     43 H          -4.5564    1.5896    0.4016 H       1  UNL1        0.0266
     44 H          -5.3823    0.4525   -0.6792 H       1  UNL1        0.0266
     45 H          -6.8305   -0.0156    0.9832 H       1  UNL1        0.0278
     46 H          -5.4768   -0.7418    1.9195 H       1  UNL1        0.0278
     47 H          -5.5281    2.2614    1.9739 H       1  UNL1        0.0454
     48 H          -4.6856    1.9687    3.9874 H       1  UNL1        0.0278
     49 H          -5.9058    0.8311    4.5093 H       1  UNL1        0.0278
     50 H          -3.5899    0.0802    4.5236 H       1  UNL1        0.0266
     51 H          -4.4973   -0.9827    3.4833 H       1  UNL1        0.0266
     52 H          -3.3629    1.4146    2.0474 H       1  UNL1        0.0283
     53 H          -2.1508    0.6710    3.0550 H       1  UNL1        0.0283
     54 H           1.1524   -2.3284   -0.6929 H       1  UNL1        0.0442
     55 H           2.0976   -2.1700    0.8123 H       1  UNL1        0.0442
     56 H           4.0272   -1.3622   -0.3234 H       1  UNL1        0.0477
     57 H           3.3894   -2.8511   -1.1961 H       1  UNL1        0.0477
     58 H           5.5003   -2.3296   -2.4154 H       1  UNL1        0.0652
     59 H           7.2418   -1.6580   -3.9254 H       1  UNL1        0.0625
     60 H           4.8272    1.4574   -5.4353 H       1  UNL1        0.0836
     61 H           1.1009   -1.5417   -2.7469 H       1  UNL1        0.0477
     62 H           1.6809   -0.0459   -3.5157 H       1  UNL1        0.0477
     63 H          -0.0534   -0.0989   -1.5197 H       1  UNL1        0.0442
     64 H           1.1059    1.2176   -1.4458 H       1  UNL1        0.0442
@<TRIPOS>BOND
     1     1     2    1
     2     2     3    1
     3     2     4    1
     4     4     5    2
     5     4     6   am
     6     6     7    1
     7     7     8    1
     8     8     9    1
     9     9    10    1
    10    10    11    1
    11    11    12    1
    12    12    13    3
    13    11    14    1
    14    14    15    1
    15    15    16    1
    16     2    17    1
    17    17    18    1
    18    18    19    1
    19    19    20    1
    20    20    21    1
    21    21    22   ar
    22    22    23   ar
    23    23    24   ar
    24    24    25    1
    25    25    26    1
    26    25    27    1
    27    25    28    1
    28    24    29   ar
    29    29    30   ar
    30    20    31    1
    31    31    32    1
    32    16     7    1
    33    32    17    1
    34    30    21   ar
    35     1    33    1
    36     1    34    1
    37     1    35    1
    38     3    36    1
    39     3    37    1
    40     3    38    1
    41     6    39    1
    42     7    40    1
    43     8    41    1
    44     8    42    1
    45     9    43    1
    46     9    44    1
    47    10    45    1
    48    10    46    1
    49    11    47    1
    50    14    48    1
    51    14    49    1
    52    15    50    1
    53    15    51    1
    54    16    52    1
    55    16    53    1
    56    18    54    1
    57    18    55    1
    58    19    56    1
    59    19    57    1
    60    22    58    1
    61    23    59    1
    62    29    60    1
    63    31    61    1
    64    31    62    1
    65    32    63    1
    66    32    64    1
