
     RDKit          3D

 64 66  0  0  0  0  0  0  0  0999 V2000
    0.7739    1.6755    1.0473 C   0  0  0  0  0  0  0  0  0  0  0  0
    1.0105    0.1905    1.0329 C   0  0  0  0  0  0  0  0  0  0  0  0
    1.9356   -0.0590    2.2354 C   0  0  0  0  0  0  0  0  0  0  0  0
   -0.3146   -0.4449    1.5199 C   0  0  0  0  0  0  0  0  0  0  0  0
   -0.3452   -1.2815    2.3243 O   0  0  0  0  0  0  0  0  0  0  0  0
   -1.4865    0.1561    0.8456 N   0  0  0  0  0  0  0  0  0  0  0  0
   -2.7609   -0.4540    1.3471 C   0  0  0  0  0  0  0  0  0  0  0  0
   -3.6959   -0.4218    0.1965 C   0  0  0  0  0  0  0  0  0  0  0  0
   -4.8485    0.5276    0.2916 C   0  0  0  0  0  0  0  0  0  0  0  0
   -5.8000    0.1916    1.3989 C   0  0  0  0  0  0  0  0  0  0  0  0
   -5.9270    1.3816    2.3548 C   0  0  0  0  0  0  0  0  0  0  0  0
   -7.4048    1.4939    2.6980 C   0  0  0  0  0  0  0  0  0  0  0  0
   -8.5700    1.5751    2.9882 N   0  0  0  0  0  0  0  0  0  0  0  0
   -5.2400    1.0106    3.6801 C   0  0  0  0  0  0  0  0  0  0  0  0
   -4.1216    0.0351    3.4729 C   0  0  0  0  0  0  0  0  0  0  0  0
   -3.1140    0.4099    2.5073 C   0  0  0  0  0  0  0  0  0  0  0  0
    1.4714   -0.3502   -0.1516 N   0  0  0  0  0  0  0  0  0  0  0  0
    1.9025   -1.7261   -0.1592 C   0  0  0  0  0  0  0  0  0  0  0  0
    3.2057   -1.7795   -0.9590 C   0  0  0  0  0  0  0  0  0  0  0  0
    3.0124   -1.0622   -2.1729 N   0  0  0  0  0  0  0  0  0  0  0  0
    4.1522   -0.8437   -3.0128 C   0  0  0  0  0  0  0  0  0  0  0  0
    5.3066   -1.4732   -3.0630 C   0  0  0  0  0  0  0  0  0  0  0  0
    6.2930   -1.0515   -3.9627 C   0  0  0  0  0  0  0  0  0  0  0  0
    6.1862   -0.0769   -4.7803 C   0  0  0  0  0  0  0  0  0  0  0  0
    7.1461    0.4921   -5.7940 C   0  0  0  0  0  0  0  0  0  0  0  0
    8.3986    0.0044   -5.6009 F   0  0  0  0  0  0  0  0  0  0  0  0
    7.1054    1.9065   -5.7819 F   0  0  0  0  0  0  0  0  0  0  0  0
    6.7311    0.1128   -7.0592 F   0  0  0  0  0  0  0  0  0  0  0  0
    4.8978    0.6575   -4.7533 C   0  0  0  0  0  0  0  0  0  0  0  0
    3.9840    0.2431   -3.8993 N   0  0  0  0  0  0  0  0  0  0  0  0
    1.7001   -0.5875   -2.5701 C   0  0  0  0  0  0  0  0  0  0  0  0
    1.0567    0.1276   -1.4072 C   0  0  0  0  0  0  0  0  0  0  0  0
    0.3858    1.9156    2.0805 H   0  0  0  0  0  0  0  0  0  0  0  0
    1.7540    2.2259    1.0151 H   0  0  0  0  0  0  0  0  0  0  0  0
    0.0657    2.0652    0.3319 H   0  0  0  0  0  0  0  0  0  0  0  0
    2.9824    0.1278    2.0343 H   0  0  0  0  0  0  0  0  0  0  0  0
    1.5762    0.6061    3.0533 H   0  0  0  0  0  0  0  0  0  0  0  0
    1.7204   -1.0965    2.5859 H   0  0  0  0  0  0  0  0  0  0  0  0
   -1.4252    0.8447    0.1643 H   0  0  0  0  0  0  0  0  0  0  0  0
   -2.4870   -1.4824    1.6241 H   0  0  0  0  0  0  0  0  0  0  0  0
   -3.1646   -0.1576   -0.7609 H   0  0  0  0  0  0  0  0  0  0  0  0
   -4.1525   -1.4465    0.0595 H   0  0  0  0  0  0  0  0  0  0  0  0
   -4.5564    1.5896    0.4016 H   0  0  0  0  0  0  0  0  0  0  0  0
   -5.3823    0.4525   -0.6792 H   0  0  0  0  0  0  0  0  0  0  0  0
   -6.8305   -0.0156    0.9832 H   0  0  0  0  0  0  0  0  0  0  0  0
   -5.4768   -0.7418    1.9195 H   0  0  0  0  0  0  0  0  0  0  0  0
   -5.5281    2.2614    1.9739 H   0  0  0  0  0  0  0  0  0  0  0  0
   -4.6856    1.9687    3.9874 H   0  0  0  0  0  0  0  0  0  0  0  0
   -5.9058    0.8311    4.5093 H   0  0  0  0  0  0  0  0  0  0  0  0
   -3.5899    0.0802    4.5236 H   0  0  0  0  0  0  0  0  0  0  0  0
   -4.4973   -0.9827    3.4833 H   0  0  0  0  0  0  0  0  0  0  0  0
   -3.3629    1.4146    2.0474 H   0  0  0  0  0  0  0  0  0  0  0  0
   -2.1508    0.6710    3.0550 H   0  0  0  0  0  0  0  0  0  0  0  0
    1.1524   -2.3284   -0.6929 H   0  0  0  0  0  0  0  0  0  0  0  0
    2.0976   -2.1700    0.8123 H   0  0  0  0  0  0  0  0  0  0  0  0
    4.0272   -1.3622   -0.3234 H   0  0  0  0  0  0  0  0  0  0  0  0
    3.3894   -2.8511   -1.1961 H   0  0  0  0  0  0  0  0  0  0  0  0
    5.5003   -2.3296   -2.4154 H   0  0  0  0  0  0  0  0  0  0  0  0
    7.2418   -1.6580   -3.9254 H   0  0  0  0  0  0  0  0  0  0  0  0
    4.8272    1.4574   -5.4353 H   0  0  0  0  0  0  0  0  0  0  0  0
    1.1009   -1.5417   -2.7469 H   0  0  0  0  0  0  0  0  0  0  0  0
    1.6809   -0.0459   -3.5157 H   0  0  0  0  0  0  0  0  0  0  0  0
   -0.0534   -0.0989   -1.5197 H   0  0  0  0  0  0  0  0  0  0  0  0
    1.1059    1.2176   -1.4458 H   0  0  0  0  0  0  0  0  0  0  0  0
  1  2  1  0
  2  3  1  0
  2  4  1  0
  4  5  2  0
  4  6  1  0
  6  7  1  0
  7  8  1  0
  8  9  1  0
  9 10  1  0
 10 11  1  0
 11 12  1  0
 12 13  3  0
 11 14  1  0
 14 15  1  0
 15 16  1  0
  2 17  1  0
 17 18  1  0
 18 19  1  0
 19 20  1  0
 20 21  1  0
 21 22  2  0
 22 23  1  0
 23 24  2  0
 24 25  1  0
 25 26  1  0
 25 27  1  0
 25 28  1  0
 24 29  1  0
 29 30  2  0
 20 31  1  0
 31 32  1  0
 16  7  1  0
 32 17  1  0
 30 21  1  0
  1 33  1  0
  1 34  1  0
  1 35  1  0
  3 36  1  0
  3 37  1  0
  3 38  1  0
  6 39  1  0
  7 40  1  0
  8 41  1  0
  8 42  1  0
  9 43  1  0
  9 44  1  0
 10 45  1  0
 10 46  1  0
 11 47  1  0
 14 48  1  0
 14 49  1  0
 15 50  1  0
 15 51  1  0
 16 52  1  0
 16 53  1  0
 18 54  1  0
 18 55  1  0
 19 56  1  0
 19 57  1  0
 22 58  1  0
 23 59  1  0
 29 60  1  0
 31 61  1  0
 31 62  1  0
 32 63  1  0
 32 64  1  0
M  END
$$$$
