@<TRIPOS>MOLECULE
*****
 51 54 0 0 0
SMALL
GASTEIGER

@<TRIPOS>ATOM
      1 C          -5.5361   -1.1770    2.1199 C.3     1  UNL1       -0.0495
      2 C          -5.9423   -1.8688    0.8113 C.3     1  UNL1        0.0102
      3 N          -5.0201   -1.4004   -0.2182 N.am    1  UNL1       -0.2995
      4 C          -3.6437   -1.6773    0.0119 C.2     1  UNL1        0.3022
      5 O          -3.2721   -2.2919    1.0529 O.2     1  UNL1       -0.2526
      6 N          -2.6921   -1.2395   -0.9690 N.am    1  UNL1       -0.2855
      7 C          -2.9068   -0.5271   -2.2226 C.3     1  UNL1        0.0178
      8 C          -2.5240    0.9058   -1.9293 C.3     1  UNL1       -0.0185
      9 C          -1.1587    0.9279   -1.2582 C.3     1  UNL1        0.0262
     10 C          -0.4548   -0.4035   -1.3887 C.3     1  UNL1       -0.0185
     11 C          -1.2620   -1.5139   -0.7465 C.3     1  UNL1        0.0178
     12 N          -0.3951    2.0148   -1.7742 N.pl3   1  UNL1       -0.3105
     13 C           0.9225    2.3554   -1.3598 C.ar    1  UNL1        0.2160
     14 N           1.6028    1.6778   -0.4228 N.ar    1  UNL1       -0.2130
     15 C           2.8373    1.9594    0.0033 C.ar    1  UNL1        0.0963
     16 C           3.5561    1.2202    1.0078 C.ar    1  UNL1        0.0269
     17 C           4.1554    1.6643    2.1877 C.ar    1  UNL1        0.0120
     18 N           4.7275    0.6156    2.8429 N.ar    1  UNL1       -0.3600
     19 C           4.5134   -0.5131    2.1109 C.ar    1  UNL1        0.0471
     20 C           4.9139   -1.8145    2.3852 C.ar    1  UNL1       -0.0378
     21 C           4.5492   -2.7676    1.4450 C.ar    1  UNL1       -0.0598
     22 C           3.8353   -2.4573    0.3073 C.ar    1  UNL1       -0.0611
     23 C           3.4534   -1.1478    0.0684 C.ar    1  UNL1       -0.0520
     24 C           3.7995   -0.1592    0.9878 C.ar    1  UNL1        0.0089
     25 C           3.4824    3.0397   -0.5609 C.ar    1  UNL1        0.0851
     26 CL          5.0933    3.5054   -0.0876 Cl      1  UNL1       -0.0797
     27 C           2.8269    3.7784   -1.5364 C.ar    1  UNL1        0.0516
     28 N           1.5862    3.3949   -1.8798 N.ar    1  UNL1       -0.2214
     29 H          -6.4277   -0.9009    2.7111 H       1  UNL1        0.0245
     30 H          -4.8956   -1.8907    2.7008 H       1  UNL1        0.0245
     31 H          -4.8790   -0.3023    1.9183 H       1  UNL1        0.0245
     32 H          -6.9466   -1.5040    0.5727 H       1  UNL1        0.0460
     33 H          -5.8834   -2.9649    0.9780 H       1  UNL1        0.0460
     34 H          -5.3993   -0.8882   -1.0705 H       1  UNL1        0.1502
     35 H          -3.9805   -0.6055   -2.5029 H       1  UNL1        0.0465
     36 H          -2.2608   -0.9699   -3.0057 H       1  UNL1        0.0465
     37 H          -2.4933    1.4209   -2.9200 H       1  UNL1        0.0298
     38 H          -3.3235    1.3345   -1.2966 H       1  UNL1        0.0298
     39 H          -1.3866    1.0293   -0.1641 H       1  UNL1        0.0499
     40 H          -0.2257   -0.6697   -2.4312 H       1  UNL1        0.0298
     41 H           0.5023   -0.3692   -0.8417 H       1  UNL1        0.0298
     42 H          -1.0252   -1.6883    0.3096 H       1  UNL1        0.0465
     43 H          -1.0443   -2.4486   -1.3021 H       1  UNL1        0.0465
     44 H          -0.8133    2.6393   -2.5289 H       1  UNL1        0.1492
     45 H           4.1392    2.6842    2.4868 H       1  UNL1        0.0814
     46 H           5.2452    0.6607    3.7540 H       1  UNL1        0.1654
     47 H           5.4752   -2.0828    3.2706 H       1  UNL1        0.0638
     48 H           4.8556   -3.7960    1.6436 H       1  UNL1        0.0618
     49 H           3.5659   -3.2439   -0.4173 H       1  UNL1        0.0618
     50 H           2.8881   -0.8538   -0.8152 H       1  UNL1        0.0624
     51 H           3.2661    4.6544   -2.0378 H       1  UNL1        0.0846
@<TRIPOS>BOND
     1     1     2    1
     2     2     3    1
     3     3     4   am
     4     4     5    2
     5     4     6   am
     6     6     7    1
     7     7     8    1
     8     8     9    1
     9     9    10    1
    10    10    11    1
    11     9    12    1
    12    12    13    1
    13    13    14   ar
    14    14    15   ar
    15    15    16    1
    16    16    17   ar
    17    17    18   ar
    18    18    19   ar
    19    19    20   ar
    20    20    21   ar
    21    21    22   ar
    22    22    23   ar
    23    23    24   ar
    24    15    25   ar
    25    25    26    1
    26    25    27   ar
    27    27    28   ar
    28    11     6    1
    29    28    13   ar
    30    24    16   ar
    31    24    19   ar
    32     1    29    1
    33     1    30    1
    34     1    31    1
    35     2    32    1
    36     2    33    1
    37     3    34    1
    38     7    35    1
    39     7    36    1
    40     8    37    1
    41     8    38    1
    42     9    39    1
    43    10    40    1
    44    10    41    1
    45    11    42    1
    46    11    43    1
    47    12    44    1
    48    17    45    1
    49    18    46    1
    50    20    47    1
    51    21    48    1
    52    22    49    1
    53    23    50    1
    54    27    51    1
