
     RDKit          3D

 50 53  0  0  0  0  0  0  0  0999 V2000
   -2.5037   -1.3936    0.5829 C   0  0  2  0  0  0  0  0  0  0  0  0
   -2.8651   -1.7014    2.0214 C   0  0  0  0  0  0  0  0  0  0  0  0
   -2.1253   -3.0277    2.2539 C   0  0  0  0  0  0  0  0  0  0  0  0
   -2.9712   -4.0428    2.5637 F   0  0  0  0  0  0  0  0  0  0  0  0
   -1.1312   -2.8558    3.1971 F   0  0  0  0  0  0  0  0  0  0  0  0
   -1.4090   -3.2800    0.9174 C   0  0  0  0  0  0  0  0  0  0  0  0
   -1.1625   -1.9207    0.5181 N   0  0  0  0  0  0  0  0  0  0  0  0
   -0.0421   -1.1662    0.1477 C   0  0  0  0  0  0  0  0  0  0  0  0
    0.2263   -2.3601    0.4209 O   0  0  0  0  0  0  0  0  0  0  0  0
    1.1291   -0.3773   -0.2395 C   0  0  0  0  0  0  0  0  0  0  0  0
    2.4264   -1.1591   -0.2559 C   0  0  0  0  0  0  0  0  0  0  0  0
    3.5398   -0.3214   -0.6444 N   0  0  0  0  0  0  0  0  0  0  0  0
    4.3574    0.4314    0.2424 C   0  0  0  0  0  0  0  0  0  0  0  0
    4.2360    0.4811    1.5016 O   0  0  0  0  0  0  0  0  0  0  0  0
    5.3861    1.1642   -0.4938 C   0  0  0  0  0  0  0  0  0  0  0  0
    5.1966    0.8586   -1.8312 C   0  0  0  0  0  0  0  0  0  0  0  0
    6.0635    1.4438   -2.7310 C   0  0  0  0  0  0  0  0  0  0  0  0
    7.0745    2.2928   -2.3440 C   0  0  0  0  0  0  0  0  0  0  0  0
    7.2405    2.5803   -1.0021 C   0  0  0  0  0  0  0  0  0  0  0  0
    6.3845    2.0084   -0.0627 C   0  0  0  0  0  0  0  0  0  0  0  0
    4.0654   -0.0541   -1.9437 C   0  0  0  0  0  0  0  0  0  0  0  0
    3.6178   -0.5343   -3.0155 O   0  0  0  0  0  0  0  0  0  0  0  0
   -2.5680    0.0444    0.2523 C   0  0  0  0  0  0  0  0  0  0  0  0
   -1.4941    0.6449   -0.0263 O   0  0  0  0  0  0  0  0  0  0  0  0
   -3.8409    0.6788    0.2652 N   0  0  0  0  0  0  0  0  0  0  0  0
   -5.2664    0.4302    0.5054 C   0  0  0  0  0  0  0  0  0  0  0  0
   -5.8509    0.8433   -0.8468 C   0  0  0  0  0  0  0  0  0  0  0  0
   -5.1074    2.1457   -1.0947 C   0  0  0  0  0  0  0  0  0  0  0  0
   -4.0168    2.0971   -0.0473 C   0  0  0  0  0  0  0  0  0  0  0  0
   -3.1541   -1.9656   -0.0776 H   0  0  0  0  0  0  0  0  0  0  0  0
   -2.5336   -0.9174    2.7331 H   0  0  0  0  0  0  0  0  0  0  0  0
   -3.9366   -1.9125    2.1045 H   0  0  0  0  0  0  0  0  0  0  0  0
   -0.5520   -3.9293    1.0351 H   0  0  0  0  0  0  0  0  0  0  0  0
   -2.1549   -3.6774    0.1683 H   0  0  0  0  0  0  0  0  0  0  0  0
    0.9813   -0.0393   -1.3074 H   0  0  0  0  0  0  0  0  0  0  0  0
    1.2376    0.5497    0.3359 H   0  0  0  0  0  0  0  0  0  0  0  0
    2.6078   -1.4935    0.7934 H   0  0  0  0  0  0  0  0  0  0  0  0
    2.3569   -2.0566   -0.8771 H   0  0  0  0  0  0  0  0  0  0  0  0
    5.9727    1.2486   -3.7923 H   0  0  0  0  0  0  0  0  0  0  0  0
    7.7556    2.7516   -3.0617 H   0  0  0  0  0  0  0  0  0  0  0  0
    8.0246    3.2415   -0.6781 H   0  0  0  0  0  0  0  0  0  0  0  0
    6.4909    2.2134    0.9764 H   0  0  0  0  0  0  0  0  0  0  0  0
   -5.6709    1.1437    1.2489 H   0  0  0  0  0  0  0  0  0  0  0  0
   -5.4742   -0.6292    0.7217 H   0  0  0  0  0  0  0  0  0  0  0  0
   -5.5841    0.1235   -1.6490 H   0  0  0  0  0  0  0  0  0  0  0  0
   -6.9493    1.0019   -0.7774 H   0  0  0  0  0  0  0  0  0  0  0  0
   -5.8246    2.9702   -0.9001 H   0  0  0  0  0  0  0  0  0  0  0  0
   -4.7212    2.2088   -2.1341 H   0  0  0  0  0  0  0  0  0  0  0  0
   -3.1169    2.5340   -0.5348 H   0  0  0  0  0  0  0  0  0  0  0  0
   -4.3443    2.6831    0.8248 H   0  0  0  0  0  0  0  0  0  0  0  0
  1  2  1  0
  2  3  1  0
  3  4  1  0
  3  5  1  0
  3  6  1  0
  6  7  1  0
  7  8  1  0
  8  9  2  0
  8 10  1  0
 10 11  1  0
 11 12  1  0
 12 13  1  0
 13 14  2  0
 13 15  1  0
 15 16  2  0
 16 17  1  0
 17 18  2  0
 18 19  1  0
 19 20  2  0
 16 21  1  0
 21 22  2  0
  1 23  1  0
 23 24  2  0
 23 25  1  0
 25 26  1  0
 26 27  1  0
 27 28  1  0
 28 29  1  0
  7  1  1  0
 21 12  1  0
 29 25  1  0
 20 15  1  0
  1 30  1  6
  2 31  1  0
  2 32  1  0
  6 33  1  0
  6 34  1  0
 10 35  1  0
 10 36  1  0
 11 37  1  0
 11 38  1  0
 17 39  1  0
 18 40  1  0
 19 41  1  0
 20 42  1  0
 26 43  1  0
 26 44  1  0
 27 45  1  0
 27 46  1  0
 28 47  1  0
 28 48  1  0
 29 49  1  0
 29 50  1  0
M  END
$$$$
