@<TRIPOS>MOLECULE
*****
 50 53 0 0 0
SMALL
GASTEIGER

@<TRIPOS>ATOM
      1 C          -2.5037   -1.3936    0.5829 C.3     1  UNL1        0.1080
      2 C          -2.8651   -1.7014    2.0214 C.3     1  UNL1        0.0395
      3 C          -2.1253   -3.0277    2.2539 C.3     1  UNL1        0.2664
      4 F          -2.9712   -4.0428    2.5637 F       1  UNL1       -0.2039
      5 F          -1.1312   -2.8558    3.1971 F       1  UNL1       -0.2039
      6 C          -1.4090   -3.2800    0.9174 C.3     1  UNL1        0.0789
      7 N          -1.1625   -1.9207    0.5181 N.am    1  UNL1       -0.2840
      8 C          -0.0421   -1.1662    0.1477 C.2     1  UNL1        0.2179
      9 O           0.2263   -2.3601    0.4209 O.2     1  UNL1       -0.2755
     10 C           1.1291   -0.3773   -0.2395 C.3     1  UNL1        0.0404
     11 C           2.4264   -1.1591   -0.2559 C.3     1  UNL1        0.0312
     12 N           3.5398   -0.3214   -0.6444 N.am    1  UNL1       -0.2336
     13 C           4.3574    0.4314    0.2424 C.2     1  UNL1        0.2538
     14 O           4.2360    0.4811    1.5016 O.2     1  UNL1       -0.2695
     15 C           5.3861    1.1642   -0.4938 C.ar    1  UNL1        0.0494
     16 C           5.1966    0.8586   -1.8312 C.ar    1  UNL1        0.0494
     17 C           6.0635    1.4438   -2.7310 C.ar    1  UNL1       -0.0489
     18 C           7.0745    2.2928   -2.3440 C.ar    1  UNL1       -0.0610
     19 C           7.2405    2.5803   -1.0021 C.ar    1  UNL1       -0.0610
     20 C           6.3845    2.0084   -0.0627 C.ar    1  UNL1       -0.0489
     21 C           4.0654   -0.0541   -1.9437 C.2     1  UNL1        0.2538
     22 O           3.6178   -0.5343   -3.0155 O.2     1  UNL1       -0.2695
     23 C          -2.5680    0.0444    0.2523 C.2     1  UNL1        0.2363
     24 O          -1.4941    0.6449   -0.0263 O.2     1  UNL1       -0.2736
     25 N          -3.8409    0.6788    0.2652 N.am    1  UNL1       -0.2999
     26 C          -5.2664    0.4302    0.5054 C.3     1  UNL1        0.0148
     27 C          -5.8509    0.8433   -0.8468 C.3     1  UNL1       -0.0357
     28 C          -5.1074    2.1457   -1.0947 C.3     1  UNL1       -0.0357
     29 C          -4.0168    2.0971   -0.0473 C.3     1  UNL1        0.0148
     30 H          -3.1541   -1.9656   -0.0776 H       1  UNL1        0.0599
     31 H          -2.5336   -0.9174    2.7331 H       1  UNL1        0.0346
     32 H          -3.9366   -1.9125    2.1045 H       1  UNL1        0.0346
     33 H          -0.5520   -3.9293    1.0351 H       1  UNL1        0.0523
     34 H          -2.1549   -3.6774    0.1683 H       1  UNL1        0.0523
     35 H           0.9813   -0.0393   -1.3074 H       1  UNL1        0.0374
     36 H           1.2376    0.5497    0.3359 H       1  UNL1        0.0374
     37 H           2.6078   -1.4935    0.7934 H       1  UNL1        0.0474
     38 H           2.3569   -2.0566   -0.8771 H       1  UNL1        0.0474
     39 H           5.9727    1.2486   -3.7923 H       1  UNL1        0.0625
     40 H           7.7556    2.7516   -3.0617 H       1  UNL1        0.0618
     41 H           8.0246    3.2415   -0.6781 H       1  UNL1        0.0618
     42 H           6.4909    2.2134    0.9764 H       1  UNL1        0.0625
     43 H          -5.6709    1.1437    1.2489 H       1  UNL1        0.0464
     44 H          -5.4742   -0.6292    0.7217 H       1  UNL1        0.0464
     45 H          -5.5841    0.1235   -1.6490 H       1  UNL1        0.0281
     46 H          -6.9493    1.0019   -0.7774 H       1  UNL1        0.0281
     47 H          -5.8246    2.9702   -0.9001 H       1  UNL1        0.0281
     48 H          -4.7212    2.2088   -2.1341 H       1  UNL1        0.0281
     49 H          -3.1169    2.5340   -0.5348 H       1  UNL1        0.0464
     50 H          -4.3443    2.6831    0.8248 H       1  UNL1        0.0464
@<TRIPOS>BOND
     1     1     2    1
     2     2     3    1
     3     3     4    1
     4     3     5    1
     5     3     6    1
     6     6     7    1
     7     7     8   am
     8     8     9    2
     9     8    10    1
    10    10    11    1
    11    11    12    1
    12    12    13   am
    13    13    14    2
    14    13    15    1
    15    15    16   ar
    16    16    17   ar
    17    17    18   ar
    18    18    19   ar
    19    19    20   ar
    20    16    21    1
    21    21    22    2
    22     1    23    1
    23    23    24    2
    24    23    25   am
    25    25    26    1
    26    26    27    1
    27    27    28    1
    28    28    29    1
    29     7     1    1
    30    21    12   am
    31    29    25    1
    32    20    15   ar
    33     1    30    1
    34     2    31    1
    35     2    32    1
    36     6    33    1
    37     6    34    1
    38    10    35    1
    39    10    36    1
    40    11    37    1
    41    11    38    1
    42    17    39    1
    43    18    40    1
    44    19    41    1
    45    20    42    1
    46    26    43    1
    47    26    44    1
    48    27    45    1
    49    27    46    1
    50    28    47    1
    51    28    48    1
    52    29    49    1
    53    29    50    1
