@<TRIPOS>MOLECULE
*****
 58 62 0 0 0
SMALL
GASTEIGER

@<TRIPOS>ATOM
      1 C          -1.9813   -4.4153   -1.2323 C.3     1  UNL1       -0.0397
      2 C          -2.3803   -3.0294   -0.8014 C.ar    1  UNL1       -0.0494
      3 C          -3.1517   -2.8417    0.3215 C.ar    1  UNL1       -0.0538
      4 C          -3.5134   -1.5687    0.7102 C.ar    1  UNL1       -0.0223
      5 C          -4.3448   -1.2947    1.9121 C.3     1  UNL1       -0.0376
      6 C          -3.0890   -0.4897   -0.0453 C.ar    1  UNL1        0.1011
      7 N          -3.4525    0.8274    0.3409 N.ar    1  UNL1       -0.1493
      8 N          -3.2028    1.3105    1.5246 N.ar    1  UNL1       -0.1556
      9 C          -3.6546    2.5579    1.5978 C.ar    1  UNL1        0.0697
     10 C          -4.2169    2.8562    0.3791 C.ar    1  UNL1        0.0697
     11 N          -4.0638    1.7494   -0.3602 N.ar    1  UNL1       -0.1556
     12 C          -2.3174   -0.6414   -1.1727 C.ar    1  UNL1        0.0645
     13 C          -1.9185    0.5218   -1.9087 C.2     1  UNL1        0.2491
     14 O          -2.7690    0.8865   -2.8129 O.2     1  UNL1       -0.2699
     15 N          -0.7738    1.2979   -1.7923 N.am    1  UNL1       -0.2897
     16 C          -0.6295    2.4758   -2.6884 C.3     1  UNL1        0.0388
     17 C           0.0289    3.5139   -1.7671 C.3     1  UNL1        0.0635
     18 O          -0.3435    3.3391   -0.4385 O.3     1  UNL1       -0.3764
     19 C           0.2085    2.2075    0.1542 C.3     1  UNL1        0.0666
     20 C           0.3481    1.1322   -0.9039 C.3     1  UNL1        0.0537
     21 C           0.5493   -0.2318   -0.3499 C.3     1  UNL1       -0.0068
     22 C           1.7701   -0.2117    0.5484 C.ar    1  UNL1       -0.0435
     23 C           1.6553    0.0718    1.8901 C.ar    1  UNL1       -0.0584
     24 C           2.7617    0.0960    2.7344 C.ar    1  UNL1       -0.0594
     25 C           4.0066   -0.1681    2.2287 C.ar    1  UNL1       -0.0345
     26 C           4.1465   -0.4568    0.8776 C.ar    1  UNL1        0.0864
     27 N           5.4535   -0.7259    0.3881 N.ar    1  UNL1       -0.1503
     28 N           6.2700    0.1039   -0.2360 N.ar    1  UNL1       -0.1556
     29 C           7.4149   -0.4876   -0.5513 C.ar    1  UNL1        0.0697
     30 C           7.3157   -1.7864   -0.0934 C.ar    1  UNL1        0.0697
     31 N           6.0907   -1.8845    0.4771 N.ar    1  UNL1       -0.1556
     32 C           3.0257   -0.4756    0.0509 C.ar    1  UNL1       -0.0313
     33 C          -1.9706   -1.9216   -1.5384 C.ar    1  UNL1       -0.0446
     34 H          -2.0479   -4.4364   -2.3504 H       1  UNL1        0.0278
     35 H          -2.7210   -5.1613   -0.8802 H       1  UNL1        0.0278
     36 H          -0.9890   -4.6927   -0.8545 H       1  UNL1        0.0278
     37 H          -3.4863   -3.6836    0.9161 H       1  UNL1        0.0623
     38 H          -3.7454   -0.7754    2.7039 H       1  UNL1        0.0278
     39 H          -4.8040   -2.2272    2.2919 H       1  UNL1        0.0278
     40 H          -5.1700   -0.5779    1.6602 H       1  UNL1        0.0278
     41 H          -3.5754    3.2008    2.4847 H       1  UNL1        0.0864
     42 H          -4.6872    3.8088    0.0939 H       1  UNL1        0.0864
     43 H          -1.5911    2.8027   -3.0747 H       1  UNL1        0.0487
     44 H           0.0863    2.2086   -3.4684 H       1  UNL1        0.0487
     45 H          -0.3479    4.5004   -2.0784 H       1  UNL1        0.0575
     46 H           1.1294    3.5219   -1.9023 H       1  UNL1        0.0575
     47 H          -0.5232    1.8329    0.8996 H       1  UNL1        0.0578
     48 H           1.1366    2.4406    0.6721 H       1  UNL1        0.0578
     49 H           1.2855    1.4001   -1.4913 H       1  UNL1        0.0526
     50 H          -0.2868   -0.4797    0.3285 H       1  UNL1        0.0332
     51 H           0.7274   -0.9925   -1.1155 H       1  UNL1        0.0332
     52 H           0.7075    0.2856    2.3383 H       1  UNL1        0.0620
     53 H           2.6455    0.3229    3.7922 H       1  UNL1        0.0618
     54 H           4.8404   -0.1419    2.9049 H       1  UNL1        0.0639
     55 H           8.2848   -0.0976   -1.0586 H       1  UNL1        0.0864
     56 H           8.0602   -2.5864   -0.1660 H       1  UNL1        0.0864
     57 H           3.1676   -0.7011   -0.9828 H       1  UNL1        0.0642
     58 H          -1.3683   -2.0887   -2.4128 H       1  UNL1        0.0628
@<TRIPOS>BOND
     1     1     2    1
     2     2     3   ar
     3     3     4   ar
     4     4     5    1
     5     4     6   ar
     6     6     7    1
     7     7     8   ar
     8     8     9   ar
     9     9    10   ar
    10    10    11   ar
    11     6    12   ar
    12    12    13    1
    13    13    14    2
    14    13    15   am
    15    15    16    1
    16    16    17    1
    17    17    18    1
    18    18    19    1
    19    19    20    1
    20    20    21    1
    21    21    22    1
    22    22    23   ar
    23    23    24   ar
    24    24    25   ar
    25    25    26   ar
    26    26    27    1
    27    27    28   ar
    28    28    29   ar
    29    29    30   ar
    30    30    31   ar
    31    26    32   ar
    32    12    33   ar
    33    33     2   ar
    34    11     7   ar
    35    20    15    1
    36    32    22   ar
    37    31    27   ar
    38     1    34    1
    39     1    35    1
    40     1    36    1
    41     3    37    1
    42     5    38    1
    43     5    39    1
    44     5    40    1
    45     9    41    1
    46    10    42    1
    47    16    43    1
    48    16    44    1
    49    17    45    1
    50    17    46    1
    51    19    47    1
    52    19    48    1
    53    20    49    1
    54    21    50    1
    55    21    51    1
    56    23    52    1
    57    24    53    1
    58    25    54    1
    59    29    55    1
    60    30    56    1
    61    32    57    1
    62    33    58    1
