@<TRIPOS>MOLECULE
*****
 19 18 0 0 0
SMALL
GASTEIGER

@<TRIPOS>ATOM
      1 C          -0.1448   -0.9616   -1.5524 C.3     1  UNL1       -0.0129
      2 C           0.1656   -0.6193   -0.1019 C.3     1  UNL1        0.2643
      3 O           0.3347   -1.8150    0.5632 O.3     1  UNL1       -0.3673
      4 P          -1.2335    0.2421    0.5985 P.3     1  UNL1        0.3707
      5 O          -2.1613    1.0180   -0.5985 O.3     1  UNL1       -0.3217
      6 O          -0.8237    1.3710    1.7758 O.3     1  UNL1       -0.3217
      7 O          -2.1462   -0.7645    1.2879 O.2     1  UNL1       -0.2552
      8 P           1.6964    0.3244   -0.1021 P.3     1  UNL1        0.3707
      9 O           1.4349    1.8906   -0.6825 O.3     1  UNL1       -0.3217
     10 O           2.4852    0.3152    1.3773 O.3     1  UNL1       -0.3217
     11 O           2.6259   -0.3350   -1.1142 O.2     1  UNL1       -0.2552
     12 H           0.4514   -0.3345   -2.2641 H       1  UNL1        0.0269
     13 H           0.1238   -2.0112   -1.7975 H       1  UNL1        0.0269
     14 H          -1.2109   -0.7889   -1.7743 H       1  UNL1        0.0269
     15 H           0.6537   -1.7375    1.4870 H       1  UNL1        0.2117
     16 H          -3.0399    0.5979   -0.7217 H       1  UNL1        0.2198
     17 H          -1.6898    1.6803    2.1661 H       1  UNL1        0.2198
     18 H           0.4704    2.1065   -0.6234 H       1  UNL1        0.2198
     19 H           2.0080   -0.1785    2.0768 H       1  UNL1        0.2198
@<TRIPOS>BOND
     1     1     2    1
     2     2     3    1
     3     2     4    1
     4     4     5    1
     5     4     6    1
     6     4     7    2
     7     2     8    1
     8     8     9    1
     9     8    10    1
    10     8    11    2
    11     1    12    1
    12     1    13    1
    13     1    14    1
    14     3    15    1
    15     5    16    1
    16     6    17    1
    17     9    18    1
    18    10    19    1
