
     RDKit          3D

 27 27  0  0  0  0  0  0  0  0999 V2000
   -0.2237   -0.1565    1.1607 C   0  0  1  0  0  0  0  0  0  0  0  0
   -1.0703   -0.6335    2.1442 O   0  0  0  0  0  0  0  0  0  0  0  0
    0.8913   -0.9718    0.9727 O   0  0  0  0  0  0  0  0  0  0  0  0
    1.7767   -0.1493    0.2452 C   0  0  1  0  0  0  0  0  0  0  0  0
    3.1726   -0.5120    0.4487 C   0  0  0  0  0  0  0  0  0  0  0  0
    3.8945   -1.4706    1.1813 O   0  0  0  0  0  0  0  0  0  0  0  0
    4.0598    0.1510   -0.1491 O   0  0  0  0  0  0  0  0  0  0  0  0
    1.3319   -0.2832   -1.1938 C   0  0  2  0  0  0  0  0  0  0  0  0
    2.0799    0.6400   -1.9281 O   0  0  0  0  0  0  0  0  0  0  0  0
   -0.1230   -0.1035   -1.3687 C   0  0  2  0  0  0  0  0  0  0  0  0
   -0.3342    1.0307   -2.1883 O   0  0  0  0  0  0  0  0  0  0  0  0
   -0.9290    0.0782   -0.1439 C   0  0  1  0  0  0  0  0  0  0  0  0
   -2.0105   -0.8337   -0.1497 O   0  0  0  0  0  0  0  0  0  0  0  0
   -3.4742   -0.0288   -0.0316 S   0  0  0  0  0  0  0  0  0  0  0  0
   -4.1290   -0.2682    1.5118 O   0  0  0  0  0  0  0  0  0  0  0  0
   -3.3064    1.4468   -0.2829 O   0  0  0  0  0  0  0  0  0  0  0  0
   -4.4387   -0.6477   -1.0055 O   0  0  0  0  0  0  0  0  0  0  0  0
    0.1826    0.8207    1.5134 H   0  0  0  0  0  0  0  0  0  0  0  0
   -1.3414   -1.5752    2.0047 H   0  0  0  0  0  0  0  0  0  0  0  0
    1.6367    0.9209    0.5027 H   0  0  0  0  0  0  0  0  0  0  0  0
    4.5142   -1.2070    1.9488 H   0  0  0  0  0  0  0  0  0  0  0  0
    1.6751   -1.2947   -1.5610 H   0  0  0  0  0  0  0  0  0  0  0  0
    2.2957    1.4367   -1.3778 H   0  0  0  0  0  0  0  0  0  0  0  0
   -0.5205   -0.9460   -1.9971 H   0  0  0  0  0  0  0  0  0  0  0  0
    0.3603    1.7064   -2.0189 H   0  0  0  0  0  0  0  0  0  0  0  0
   -1.4152    1.0723   -0.0600 H   0  0  0  0  0  0  0  0  0  0  0  0
   -4.5553    0.5671    1.8222 H   0  0  0  0  0  0  0  0  0  0  0  0
  1  2  1  0
  1  3  1  0
  3  4  1  0
  4  5  1  0
  5  6  1  0
  5  7  2  0
  4  8  1  0
  8  9  1  0
  8 10  1  0
 10 11  1  0
 10 12  1  0
 12 13  1  0
 13 14  1  0
 14 15  1  0
 14 16  2  0
 14 17  2  0
 12  1  1  0
  1 18  1  1
  2 19  1  0
  4 20  1  1
  6 21  1  0
  8 22  1  6
  9 23  1  0
 10 24  1  6
 11 25  1  0
 12 26  1  1
 15 27  1  0
M  END
$$$$
