@<TRIPOS>MOLECULE
*****
 27 27 0 0 0
SMALL
GASTEIGER

@<TRIPOS>ATOM
      1 C          -0.2237   -0.1565    1.1607 C.3     1  UNL1        0.1886
      2 O          -1.0703   -0.6335    2.1442 O.3     1  UNL1       -0.3648
      3 O           0.8913   -0.9718    0.9727 O.3     1  UNL1       -0.3316
      4 C           1.7767   -0.1493    0.2452 C.3     1  UNL1        0.1859
      5 C           3.1726   -0.5120    0.4487 C.2     1  UNL1        0.3367
      6 O           3.8945   -1.4706    1.1813 O.3     1  UNL1       -0.4788
      7 O           4.0598    0.1510   -0.1491 O.2     1  UNL1       -0.2480
      8 C           1.3319   -0.2832   -1.1938 C.3     1  UNL1        0.1202
      9 O           2.0799    0.6400   -1.9281 O.3     1  UNL1       -0.3860
     10 C          -0.1230   -0.1035   -1.3687 C.3     1  UNL1        0.1172
     11 O          -0.3342    1.0307   -2.1883 O.3     1  UNL1       -0.3863
     12 C          -0.9290    0.0782   -0.1439 C.3     1  UNL1        0.1682
     13 O          -2.0105   -0.8337   -0.1497 O.3     1  UNL1       -0.2047
     14 S          -3.4742   -0.0288   -0.0316 S.O2    1  UNL1        0.2080
     15 O          -4.1290   -0.2682    1.5118 O.3     1  UNL1       -0.2311
     16 O          -3.3064    1.4468   -0.2829 O.2     1  UNL1       -0.1181
     17 O          -4.4387   -0.6477   -1.0055 O.2     1  UNL1       -0.1181
     18 H           0.1826    0.8207    1.5134 H       1  UNL1        0.0937
     19 H          -1.3414   -1.5752    2.0047 H       1  UNL1        0.2126
     20 H           1.6367    0.9209    0.5027 H       1  UNL1        0.0741
     21 H           4.5142   -1.2070    1.9488 H       1  UNL1        0.2951
     22 H           1.6751   -1.2947   -1.5610 H       1  UNL1        0.0652
     23 H           2.2957    1.4367   -1.3778 H       1  UNL1        0.2100
     24 H          -0.5205   -0.9460   -1.9971 H       1  UNL1        0.0649
     25 H           0.3603    1.7064   -2.0189 H       1  UNL1        0.2100
     26 H          -1.4152    1.0723   -0.0600 H       1  UNL1        0.0699
     27 H          -4.5553    0.5671    1.8222 H       1  UNL1        0.2469
@<TRIPOS>BOND
     1     1     2    1
     2     1     3    1
     3     3     4    1
     4     4     5    1
     5     5     6    1
     6     5     7    2
     7     4     8    1
     8     8     9    1
     9     8    10    1
    10    10    11    1
    11    10    12    1
    12    12    13    1
    13    13    14    1
    14    14    15    1
    15    14    16    2
    16    14    17    2
    17    12     1    1
    18     1    18    1
    19     2    19    1
    20     4    20    1
    21     6    21    1
    22     8    22    1
    23     9    23    1
    24    10    24    1
    25    11    25    1
    26    12    26    1
    27    15    27    1
