@<TRIPOS>MOLECULE
*****
 44 47 0 0 0
SMALL
GASTEIGER

@<TRIPOS>ATOM
      1 O          -5.6791   -0.9012    1.3969 O.2     1  UNL1       -0.2655
      2 C          -4.4649   -0.6857    1.1353 C.ar    1  UNL1        0.2761
      3 N          -3.6634    0.0223    1.9508 N.ar    1  UNL1       -0.3009
      4 C          -2.3680    0.2538    1.6749 C.ar    1  UNL1        0.1614
      5 S          -1.4678    1.1236    2.7213 S.2     1  UNL1       -0.0128
      6 N          -1.8741   -0.2520    0.5323 N.ar    1  UNL1       -0.3149
      7 C          -0.5049   -0.0394    0.1838 C.3     1  UNL1        0.0510
      8 C          -0.2973    1.2008   -0.6181 C.ar    1  UNL1       -0.0233
      9 C          -1.3488    2.0404   -0.9473 C.ar    1  UNL1       -0.0566
     10 C          -1.0599    3.1677   -1.6941 C.ar    1  UNL1       -0.0614
     11 C           0.2197    3.4686   -2.1093 C.ar    1  UNL1       -0.0614
     12 C           1.2254    2.5911   -1.7487 C.ar    1  UNL1       -0.0570
     13 C           1.0048    1.4504   -1.0057 C.ar    1  UNL1       -0.0287
     14 C           2.1428    0.5591   -0.6597 C.3     1  UNL1        0.0218
     15 N           2.5721    0.6959    0.7085 N.3     1  UNL1       -0.3093
     16 C           3.6754   -0.2224    0.9080 C.3     1  UNL1        0.0079
     17 C           3.2074   -1.6517    0.6456 C.3     1  UNL1       -0.0375
     18 C           3.9859   -2.0911    1.8672 C.3     1  UNL1       -0.0502
     19 C           3.9267   -0.6378    2.3399 C.3     1  UNL1       -0.0375
     20 C          -2.6337   -0.9709   -0.3243 C.ar    1  UNL1        0.0743
     21 C          -2.4123   -1.5962   -1.5324 C.ar    1  UNL1       -0.0200
     22 C          -3.5618   -2.2034   -1.9889 C.ar    1  UNL1        0.0043
     23 N          -4.4897   -1.9418   -1.0449 N.ar    1  UNL1       -0.3553
     24 C          -3.9735   -1.2128   -0.0430 C.ar    1  UNL1        0.1283
     25 H          -4.1127    0.3935    2.8354 H       1  UNL1        0.1709
     26 H          -0.1201   -0.8789   -0.4110 H       1  UNL1        0.0542
     27 H           0.0798    0.0095    1.1286 H       1  UNL1        0.0542
     28 H          -2.3535    1.8182   -0.6303 H       1  UNL1        0.0621
     29 H          -1.8591    3.8555   -1.9745 H       1  UNL1        0.0618
     30 H           0.4403    4.3614   -2.6991 H       1  UNL1        0.0618
     31 H           2.2581    2.8044   -2.0654 H       1  UNL1        0.0621
     32 H           1.8588   -0.5228   -0.8000 H       1  UNL1        0.0474
     33 H           2.9501    0.7428   -1.3913 H       1  UNL1        0.0474
     34 H           2.7634    1.6572    1.0073 H       1  UNL1        0.1225
     35 H           4.5688    0.0460    0.3384 H       1  UNL1        0.0460
     36 H           2.1235   -1.7818    0.8386 H       1  UNL1        0.0280
     37 H           3.5091   -2.0843   -0.3054 H       1  UNL1        0.0280
     38 H           3.4337   -2.7652    2.5526 H       1  UNL1        0.0266
     39 H           5.0065   -2.4584    1.6608 H       1  UNL1        0.0266
     40 H           3.0927   -0.4668    3.0336 H       1  UNL1        0.0280
     41 H           4.8649   -0.2353    2.7234 H       1  UNL1        0.0280
     42 H          -1.4732   -1.6170   -2.0625 H       1  UNL1        0.0653
     43 H          -3.7164   -2.7700   -2.8974 H       1  UNL1        0.0807
     44 H          -5.4760   -2.2753   -1.1091 H       1  UNL1        0.1655
@<TRIPOS>BOND
     1     1     2    2
     2     2     3   ar
     3     3     4   ar
     4     4     5    2
     5     4     6   ar
     6     6     7    1
     7     7     8    1
     8     8     9   ar
     9     9    10   ar
    10    10    11   ar
    11    11    12   ar
    12    12    13   ar
    13    13    14    1
    14    14    15    1
    15    15    16    1
    16    16    17    1
    17    17    18    1
    18    18    19    1
    19     6    20   ar
    20    20    21   ar
    21    21    22   ar
    22    22    23   ar
    23    23    24   ar
    24    24     2   ar
    25    13     8   ar
    26    19    16    1
    27    24    20   ar
    28     3    25    1
    29     7    26    1
    30     7    27    1
    31     9    28    1
    32    10    29    1
    33    11    30    1
    34    12    31    1
    35    14    32    1
    36    14    33    1
    37    15    34    1
    38    16    35    1
    39    17    36    1
    40    17    37    1
    41    18    38    1
    42    18    39    1
    43    19    40    1
    44    19    41    1
    45    21    42    1
    46    22    43    1
    47    23    44    1
