@<TRIPOS>MOLECULE
*****
 98 100 0 0 0
SMALL
GASTEIGER

@<TRIPOS>ATOM
      1 C           6.4398    1.1931    0.1252 C.2     1  UNL1       -0.0626
      2 C           6.5266    0.0507    0.7625 C.2     1  UNL1       -0.0613
      3 C           6.0451   -1.3002    0.7154 C.2     1  UNL1       -0.0522
      4 C           6.6095   -2.1048    1.8268 C.3     1  UNL1       -0.0399
      5 C           5.2458   -1.9774   -0.0672 C.2     1  UNL1       -0.0526
      6 C           4.9022   -3.4176    0.1250 C.3     1  UNL1        0.0805
      7 O           4.4177   -3.5595    1.4458 O.3     1  UNL1       -0.3873
      8 C           3.8060   -3.8594   -0.8173 C.3     1  UNL1        0.0360
      9 C           3.2909   -5.2039   -0.5723 C.2     1  UNL1        0.1450
     10 O           3.5918   -6.0618    0.2494 O.2     1  UNL1       -0.2968
     11 C           2.1756   -5.5663   -1.5243 C.3     1  UNL1        0.0824
     12 C           0.9003   -5.4744   -0.7569 C.ar    1  UNL1        0.2032
     13 N           0.9033   -4.1195   -0.5942 N.ar    1  UNL1       -0.2083
     14 C          -0.1815   -3.7858    0.0907 C.ar    1  UNL1        0.1637
     15 C          -0.8824   -4.9270    0.3681 C.ar    1  UNL1        0.1245
     16 O          -0.1852   -5.8906   -0.1634 O.2     1  UNL1       -0.4467
     17 C          -0.3227   -2.3783    0.3365 C.2     1  UNL1        0.2688
     18 O          -0.3605   -2.0853    1.5203 O.2     1  UNL1       -0.2682
     19 N          -0.4470   -1.0829   -0.1778 N.am    1  UNL1       -0.2810
     20 C           0.3926   -0.6060   -1.2499 C.3     1  UNL1        0.0178
     21 C          -0.4558    0.4457   -1.9863 C.3     1  UNL1       -0.0125
     22 C          -1.7678    0.4563   -1.2628 C.3     1  UNL1        0.1071
     23 C          -1.3078    0.0402    0.1424 C.3     1  UNL1        0.1454
     24 C          -0.5560    1.1414    0.7927 C.2     1  UNL1        0.3300
     25 O           0.1184    0.6004    1.7324 O.2     1  UNL1       -0.2487
     26 O          -0.6309    2.4593    0.3957 O.3     1  UNL1       -0.4592
     27 C           0.0487    3.5337    0.9678 C.3     1  UNL1        0.1114
     28 C          -0.9544    4.4212    1.6579 C.3     1  UNL1       -0.0089
     29 C          -0.2918    5.6202    2.3059 C.3     1  UNL1       -0.0593
     30 C          -2.1121    4.8345    0.8229 C.3     1  UNL1       -0.0593
     31 C           0.9848    4.2787    0.0823 C.3     1  UNL1        0.0121
     32 C           0.3622    4.9121   -1.1236 C.3     1  UNL1       -0.0556
     33 C           2.1864    3.4740   -0.2842 C.2     1  UNL1       -0.0727
     34 C           2.6379    3.3439   -1.5387 C.2     1  UNL1       -0.0041
     35 C           3.8287    2.5425   -1.8909 C.2     1  UNL1        0.2077
     36 O           4.2663    2.4185   -3.2024 O.2     1  UNL1       -0.4926
     37 N           4.3971    1.9954   -0.9084 N.2     1  UNL1       -0.2468
     38 C           5.5747    1.1703   -1.0636 C.3     1  UNL1        0.0618
     39 S          -2.7862   -0.8330   -1.8727 S.O2    1  UNL1       -0.0247
     40 O          -1.9915   -2.0961   -1.9750 O.2     1  UNL1       -0.1740
     41 O          -3.3084   -0.4763   -3.2359 O.2     1  UNL1       -0.1740
     42 C          -4.1904   -1.1545   -0.8258 C.3     1  UNL1        0.0788
     43 C          -5.0673    0.0348   -0.6757 C.3     1  UNL1        0.0183
     44 N          -6.2191   -0.0879    0.1259 N.3     1  UNL1       -0.3013
     45 C          -6.0962   -0.2456    1.5139 C.3     1  UNL1       -0.0039
     46 C          -5.5413   -1.5050    2.0573 C.3     1  UNL1       -0.0524
     47 C          -7.3082   -0.8039   -0.4932 C.3     1  UNL1       -0.0039
     48 C          -8.4751   -0.8535    0.4746 C.3     1  UNL1       -0.0524
     49 H           6.8587    2.1586    0.2735 H       1  UNL1        0.0590
     50 H           7.1941    0.3667    1.5399 H       1  UNL1        0.0618
     51 H           6.6841   -3.1712    1.5542 H       1  UNL1        0.0277
     52 H           5.9367   -2.0062    2.7081 H       1  UNL1        0.0277
     53 H           7.6271   -1.7382    2.1514 H       1  UNL1        0.0277
     54 H           4.6757   -1.7420   -0.9476 H       1  UNL1        0.0600
     55 H           5.7733   -4.0892    0.0364 H       1  UNL1        0.0642
     56 H           3.4225   -3.4009    1.4462 H       1  UNL1        0.2102
     57 H           4.2627   -3.8896   -1.8555 H       1  UNL1        0.0370
     58 H           3.0225   -3.0911   -0.8252 H       1  UNL1        0.0370
     59 H           2.1760   -4.9894   -2.4294 H       1  UNL1        0.0437
     60 H           2.3029   -6.6638   -1.7735 H       1  UNL1        0.0437
     61 H          -1.7912   -4.7701    0.9279 H       1  UNL1        0.1054
     62 H           1.3311   -0.1367   -0.8914 H       1  UNL1        0.0465
     63 H           0.6688   -1.3408   -2.0021 H       1  UNL1        0.0465
     64 H           0.0425    1.4383   -1.9757 H       1  UNL1        0.0299
     65 H          -0.6384    0.1711   -3.0385 H       1  UNL1        0.0299
     66 H          -2.2774    1.4382   -1.2155 H       1  UNL1        0.0560
     67 H          -2.1984   -0.2342    0.6976 H       1  UNL1        0.0636
     68 H           0.6759    3.1054    1.8064 H       1  UNL1        0.0742
     69 H          -1.3419    3.8108    2.5208 H       1  UNL1        0.0331
     70 H           0.5671    5.2670    2.9081 H       1  UNL1        0.0233
     71 H          -0.9687    6.1391    3.0051 H       1  UNL1        0.0233
     72 H          -0.0190    6.3544    1.5316 H       1  UNL1        0.0233
     73 H          -3.0707    4.6202    1.3820 H       1  UNL1        0.0233
     74 H          -2.2186    4.2990   -0.1240 H       1  UNL1        0.0233
     75 H          -2.1196    5.9494    0.7301 H       1  UNL1        0.0233
     76 H           1.3857    5.1338    0.7004 H       1  UNL1        0.0376
     77 H           0.0732    4.1763   -1.9098 H       1  UNL1        0.0237
     78 H          -0.4028    5.6520   -0.8987 H       1  UNL1        0.0237
     79 H           1.1967    5.4982   -1.6160 H       1  UNL1        0.0237
     80 H           2.7355    2.9586    0.4986 H       1  UNL1        0.0578
     81 H           2.1225    3.8362   -2.3352 H       1  UNL1        0.0667
     82 H           4.8082    1.6037   -3.4807 H       1  UNL1        0.2937
     83 H           5.4016    0.1695   -1.4456 H       1  UNL1        0.0553
     84 H           6.2019    1.6378   -1.9331 H       1  UNL1        0.0553
     85 H          -3.8448   -1.6175    0.1252 H       1  UNL1        0.0513
     86 H          -4.7624   -1.9636   -1.3552 H       1  UNL1        0.0513
     87 H          -4.4261    0.8736   -0.3162 H       1  UNL1        0.0442
     88 H          -5.4141    0.3084   -1.7136 H       1  UNL1        0.0442
     89 H          -5.4301    0.5881    1.8960 H       1  UNL1        0.0424
     90 H          -7.0805   -0.0140    2.0222 H       1  UNL1        0.0424
     91 H          -4.4721   -1.4380    2.4022 H       1  UNL1        0.0242
     92 H          -6.0863   -1.7594    3.0217 H       1  UNL1        0.0242
     93 H          -5.6466   -2.4068    1.4469 H       1  UNL1        0.0242
     94 H          -7.0507   -1.7919   -0.8886 H       1  UNL1        0.0424
     95 H          -7.6629   -0.1909   -1.3523 H       1  UNL1        0.0424
     96 H          -8.7492    0.1525    0.8356 H       1  UNL1        0.0242
     97 H          -8.2981   -1.5011    1.3449 H       1  UNL1        0.0242
     98 H          -9.3896   -1.2707   -0.0250 H       1  UNL1        0.0242
@<TRIPOS>BOND
     1     1     2    2
     2     2     3    1
     3     3     4    1
     4     3     5    2
     5     5     6    1
     6     6     7    1
     7     6     8    1
     8     8     9    1
     9     9    10    2
    10     9    11    1
    11    11    12    1
    12    12    13   ar
    13    13    14   ar
    14    14    15   ar
    15    15    16   ar
    16    14    17    1
    17    17    18    2
    18    17    19   am
    19    19    20    1
    20    20    21    1
    21    21    22    1
    22    22    23    1
    23    23    24    1
    24    24    25    2
    25    24    26    1
    26    26    27    1
    27    27    28    1
    28    28    29    1
    29    28    30    1
    30    27    31    1
    31    31    32    1
    32    31    33    1
    33    33    34    2
    34    34    35    1
    35    35    36    1
    36    35    37    2
    37    37    38    1
    38    22    39    1
    39    39    40    2
    40    39    41    2
    41    39    42    1
    42    42    43    1
    43    43    44    1
    44    44    45    1
    45    45    46    1
    46    44    47    1
    47    47    48    1
    48    38     1    1
    49    16    12   ar
    50    23    19    1
    51     1    49    1
    52     2    50    1
    53     4    51    1
    54     4    52    1
    55     4    53    1
    56     5    54    1
    57     6    55    1
    58     7    56    1
    59     8    57    1
    60     8    58    1
    61    11    59    1
    62    11    60    1
    63    15    61    1
    64    20    62    1
    65    20    63    1
    66    21    64    1
    67    21    65    1
    68    22    66    1
    69    23    67    1
    70    27    68    1
    71    28    69    1
    72    29    70    1
    73    29    71    1
    74    29    72    1
    75    30    73    1
    76    30    74    1
    77    30    75    1
    78    31    76    1
    79    32    77    1
    80    32    78    1
    81    32    79    1
    82    33    80    1
    83    34    81    1
    84    36    82    1
    85    38    83    1
    86    38    84    1
    87    42    85    1
    88    42    86    1
    89    43    87    1
    90    43    88    1
    91    45    89    1
    92    45    90    1
    93    46    91    1
    94    46    92    1
    95    46    93    1
    96    47    94    1
    97    47    95    1
    98    48    96    1
    99    48    97    1
   100    48    98    1
