@<TRIPOS>MOLECULE
*****
 48 49 0 0 0
SMALL
GASTEIGER

@<TRIPOS>ATOM
      1 C          -6.2398    0.7462    0.6919 C.3     1  UNL1       -0.0524
      2 C          -4.7573    1.0813    0.5387 C.3     1  UNL1       -0.0040
      3 N          -4.0474   -0.1614    0.4281 N.3     1  UNL1       -0.3028
      4 C          -4.2775   -0.9090   -0.7584 C.3     1  UNL1       -0.0040
      5 C          -3.4725   -2.2067   -0.7089 C.3     1  UNL1       -0.0524
      6 C          -2.6159    0.0106    0.7231 C.3     1  UNL1       -0.0011
      7 C          -1.9381    0.8199   -0.3129 C.3     1  UNL1       -0.0385
      8 C          -0.5151    1.1420   -0.1852 C.3     1  UNL1       -0.0337
      9 C           0.4655    0.0366   -0.1330 C.3     1  UNL1        0.0179
     10 C           0.3228   -0.8864    1.0307 C.3     1  UNL1       -0.0467
     11 N           1.8447    0.5311   -0.1736 N.pl3   1  UNL1       -0.3407
     12 C           3.0107   -0.2457   -0.3307 C.ar    1  UNL1        0.0380
     13 C           4.2638    0.3214   -0.3391 C.ar    1  UNL1        0.0213
     14 C           4.4604    1.6707   -0.1788 C.ar    1  UNL1       -0.0494
     15 C           5.7176    2.2422   -0.1888 C.ar    1  UNL1       -0.0426
     16 C           6.8605    1.4657   -0.3644 C.ar    1  UNL1        0.0430
     17 CL          8.4736    2.1331   -0.3863 Cl      1  UNL1       -0.0835
     18 C           6.6264    0.1179   -0.5219 C.ar    1  UNL1       -0.0173
     19 C           5.3778   -0.4622   -0.5135 C.ar    1  UNL1        0.0741
     20 N           5.2812   -1.8061   -0.6817 N.ar    1  UNL1       -0.2548
     21 C           4.0871   -2.4254   -0.6844 C.ar    1  UNL1        0.0300
     22 C           2.9589   -1.6113   -0.5050 C.ar    1  UNL1       -0.0221
     23 H          -6.2990   -0.0887    1.4337 H       1  UNL1        0.0242
     24 H          -6.7979    1.6329    1.0418 H       1  UNL1        0.0242
     25 H          -6.6215    0.3470   -0.2702 H       1  UNL1        0.0242
     26 H          -4.4405    1.5667    1.4695 H       1  UNL1        0.0424
     27 H          -4.5950    1.7779   -0.3080 H       1  UNL1        0.0424
     28 H          -4.0933   -0.3591   -1.7014 H       1  UNL1        0.0424
     29 H          -5.3456   -1.2069   -0.7563 H       1  UNL1        0.0424
     30 H          -3.5144   -2.5283    0.3490 H       1  UNL1        0.0242
     31 H          -2.4620   -2.0180   -1.0715 H       1  UNL1        0.0242
     32 H          -3.9980   -2.9733   -1.3265 H       1  UNL1        0.0242
     33 H          -2.2416   -1.0221    0.8618 H       1  UNL1        0.0426
     34 H          -2.5672    0.5252    1.6954 H       1  UNL1        0.0426
     35 H          -2.5646    1.7695   -0.4491 H       1  UNL1        0.0278
     36 H          -2.0759    0.3249   -1.3156 H       1  UNL1        0.0278
     37 H          -0.2178    1.7666   -1.0926 H       1  UNL1        0.0283
     38 H          -0.3850    1.8457    0.6866 H       1  UNL1        0.0283
     39 H           0.3528   -0.5980   -1.0603 H       1  UNL1        0.0495
     40 H           1.3523   -1.0942    1.4398 H       1  UNL1        0.0247
     41 H          -0.0922   -1.8494    0.7326 H       1  UNL1        0.0247
     42 H          -0.2639   -0.4640    1.8758 H       1  UNL1        0.0247
     43 H           1.8862    1.5621   -0.0679 H       1  UNL1        0.1464
     44 H           3.6528    2.3559   -0.0371 H       1  UNL1        0.0625
     45 H           5.9157    3.3118   -0.0642 H       1  UNL1        0.0632
     46 H           7.4740   -0.5201   -0.6604 H       1  UNL1        0.0653
     47 H           4.0155   -3.4953   -0.8192 H       1  UNL1        0.0830
     48 H           2.0387   -2.1732   -0.5269 H       1  UNL1        0.0651
@<TRIPOS>BOND
     1     1     2    1
     2     2     3    1
     3     3     4    1
     4     4     5    1
     5     3     6    1
     6     6     7    1
     7     7     8    1
     8     8     9    1
     9     9    10    1
    10     9    11    1
    11    11    12    1
    12    12    13   ar
    13    13    14   ar
    14    14    15   ar
    15    15    16   ar
    16    16    17    1
    17    16    18   ar
    18    18    19   ar
    19    19    20   ar
    20    20    21   ar
    21    21    22   ar
    22    22    12   ar
    23    19    13   ar
    24     1    23    1
    25     1    24    1
    26     1    25    1
    27     2    26    1
    28     2    27    1
    29     4    28    1
    30     4    29    1
    31     5    30    1
    32     5    31    1
    33     5    32    1
    34     6    33    1
    35     6    34    1
    36     7    35    1
    37     7    36    1
    38     8    37    1
    39     8    38    1
    40     9    39    1
    41    10    40    1
    42    10    41    1
    43    10    42    1
    44    11    43    1
    45    14    44    1
    46    15    45    1
    47    18    46    1
    48    21    47    1
    49    22    48    1
