@<TRIPOS>MOLECULE
*****
 59 63 0 0 0
SMALL
GASTEIGER

@<TRIPOS>ATOM
      1 C          -3.9582   -0.5389    2.3878 C.3     1  UNL1       -0.0275
      2 C          -3.4379    0.2548    1.2076 C.3     1  UNL1        0.1021
      3 O          -3.3243   -0.5540    0.0849 O.3     1  UNL1       -0.4880
      4 C          -2.1465   -0.8467   -0.5519 C.ar    1  UNL1        0.1321
      5 C          -0.8987   -0.4005   -0.1979 C.ar    1  UNL1       -0.0114
      6 C           0.1958   -0.7983   -0.9604 C.ar    1  UNL1       -0.0123
      7 C           1.5280   -0.3100   -0.5676 C.ar    1  UNL1       -0.0176
      8 C           2.4488   -0.1220   -1.5769 C.ar    1  UNL1       -0.0523
      9 C           3.7198    0.3324   -1.3052 C.ar    1  UNL1       -0.0401
     10 C           4.1181    0.6176   -0.0024 C.ar    1  UNL1        0.0298
     11 N           5.4276    1.0785    0.2415 N.pl3   1  UNL1       -0.3255
     12 C           6.3836    1.1854   -0.8436 C.3     1  UNL1        0.0357
     13 C           7.7551    1.2271   -0.1580 C.3     1  UNL1        0.0634
     14 O           7.8183    0.2577    0.8477 O.3     1  UNL1       -0.3767
     15 C           7.0059    0.5155    1.9270 C.3     1  UNL1        0.0634
     16 C           5.8885    1.4660    1.5508 C.3     1  UNL1        0.0357
     17 C           3.1743    0.4185    0.9776 C.ar    1  UNL1       -0.0401
     18 C           1.8834   -0.0406    0.7228 C.ar    1  UNL1       -0.0523
     19 C           0.0658   -1.6234   -2.0560 C.ar    1  UNL1       -0.0260
     20 C          -1.2021   -2.0699   -2.4064 C.ar    1  UNL1        0.0968
     21 N          -1.6516   -2.8733   -3.4079 N.ar    1  UNL1       -0.1713
     22 N          -2.9612   -3.0216   -3.3445 N.ar    1  UNL1       -0.2732
     23 C          -3.8337   -3.7925   -4.2164 C.3     1  UNL1        0.0302
     24 C          -3.3690   -2.2936   -2.2720 C.ar    1  UNL1        0.0364
     25 C          -2.2804   -1.6898   -1.6711 C.ar    1  UNL1        0.0614
     26 C          -4.2816    1.4776    0.9326 C.3     1  UNL1        0.0195
     27 C          -5.7144    1.1497    0.6183 C.3     1  UNL1        0.0182
     28 N          -6.4146    1.2573    1.8768 N.am    1  UNL1       -0.3149
     29 C          -5.5288    1.6998    2.8903 C.2     1  UNL1        0.2135
     30 O          -5.6627    1.5942    4.1573 O.2     1  UNL1       -0.2758
     31 C          -4.3834    2.3271    2.1795 C.3     1  UNL1        0.0315
     32 H          -5.0364   -0.6637    2.3968 H       1  UNL1        0.0265
     33 H          -3.6466   -0.0942    3.3552 H       1  UNL1        0.0265
     34 H          -3.5019   -1.5642    2.3214 H       1  UNL1        0.0265
     35 H          -2.4474    0.6289    1.5085 H       1  UNL1        0.0733
     36 H          -0.7557    0.2447    0.6506 H       1  UNL1        0.0660
     37 H           2.1627   -0.3384   -2.6128 H       1  UNL1        0.0624
     38 H           4.3902    0.4559   -2.1566 H       1  UNL1        0.0636
     39 H           6.3264    0.3300   -1.5466 H       1  UNL1        0.0486
     40 H           6.2444    2.1677   -1.3247 H       1  UNL1        0.0486
     41 H           8.4969    0.9233   -0.9250 H       1  UNL1        0.0575
     42 H           8.0151    2.2240    0.1963 H       1  UNL1        0.0575
     43 H           7.6355    1.0061    2.7112 H       1  UNL1        0.0575
     44 H           6.5948   -0.4268    2.3052 H       1  UNL1        0.0575
     45 H           5.1270    1.5800    2.3132 H       1  UNL1        0.0486
     46 H           6.3660    2.4827    1.4045 H       1  UNL1        0.0486
     47 H           3.3953    0.6109    2.0014 H       1  UNL1        0.0636
     48 H           1.1617   -0.1892    1.5017 H       1  UNL1        0.0624
     49 H           0.8974   -1.9369   -2.6505 H       1  UNL1        0.0646
     50 H          -3.2507   -4.6446   -4.6628 H       1  UNL1        0.0473
     51 H          -4.7208   -4.1651   -3.6797 H       1  UNL1        0.0473
     52 H          -4.1656   -3.1759   -5.0890 H       1  UNL1        0.0473
     53 H          -4.3915   -2.1937   -1.9290 H       1  UNL1        0.0833
     54 H          -3.8320    2.0355    0.1120 H       1  UNL1        0.0356
     55 H          -5.8534    0.1900    0.1192 H       1  UNL1        0.0466
     56 H          -6.0962    1.9736   -0.0405 H       1  UNL1        0.0466
     57 H          -7.4163    1.0445    2.0262 H       1  UNL1        0.1487
     58 H          -4.6181    3.3532    1.8628 H       1  UNL1        0.0363
     59 H          -3.4447    2.2573    2.7665 H       1  UNL1        0.0363
@<TRIPOS>BOND
     1     1     2    1
     2     2     3    1
     3     3     4    1
     4     4     5   ar
     5     5     6   ar
     6     6     7    1
     7     7     8   ar
     8     8     9   ar
     9     9    10   ar
    10    10    11    1
    11    11    12    1
    12    12    13    1
    13    13    14    1
    14    14    15    1
    15    15    16    1
    16    10    17   ar
    17    17    18   ar
    18     6    19   ar
    19    19    20   ar
    20    20    21   ar
    21    21    22   ar
    22    22    23    1
    23    22    24   ar
    24    24    25   ar
    25     2    26    1
    26    26    27    1
    27    27    28    1
    28    28    29   am
    29    29    30    2
    30    29    31    1
    31    25     4   ar
    32    31    26    1
    33    18     7   ar
    34    25    20   ar
    35    16    11    1
    36     1    32    1
    37     1    33    1
    38     1    34    1
    39     2    35    1
    40     5    36    1
    41     8    37    1
    42     9    38    1
    43    12    39    1
    44    12    40    1
    45    13    41    1
    46    13    42    1
    47    15    43    1
    48    15    44    1
    49    16    45    1
    50    16    46    1
    51    17    47    1
    52    18    48    1
    53    19    49    1
    54    23    50    1
    55    23    51    1
    56    23    52    1
    57    24    53    1
    58    26    54    1
    59    27    55    1
    60    27    56    1
    61    28    57    1
    62    31    58    1
    63    31    59    1
