
     RDKit          3D

 59 63  0  0  0  0  0  0  0  0999 V2000
   -3.9582   -0.5389    2.3878 C   0  0  0  0  0  0  0  0  0  0  0  0
   -3.4379    0.2548    1.2076 C   0  0  1  0  0  0  0  0  0  0  0  0
   -3.3243   -0.5540    0.0849 O   0  0  0  0  0  0  0  0  0  0  0  0
   -2.1465   -0.8467   -0.5519 C   0  0  0  0  0  0  0  0  0  0  0  0
   -0.8987   -0.4005   -0.1979 C   0  0  0  0  0  0  0  0  0  0  0  0
    0.1958   -0.7983   -0.9604 C   0  0  0  0  0  0  0  0  0  0  0  0
    1.5280   -0.3100   -0.5676 C   0  0  0  0  0  0  0  0  0  0  0  0
    2.4488   -0.1220   -1.5769 C   0  0  0  0  0  0  0  0  0  0  0  0
    3.7198    0.3324   -1.3052 C   0  0  0  0  0  0  0  0  0  0  0  0
    4.1181    0.6176   -0.0024 C   0  0  0  0  0  0  0  0  0  0  0  0
    5.4276    1.0785    0.2415 N   0  0  0  0  0  0  0  0  0  0  0  0
    6.3836    1.1854   -0.8436 C   0  0  0  0  0  0  0  0  0  0  0  0
    7.7551    1.2271   -0.1580 C   0  0  0  0  0  0  0  0  0  0  0  0
    7.8183    0.2577    0.8477 O   0  0  0  0  0  0  0  0  0  0  0  0
    7.0059    0.5155    1.9270 C   0  0  0  0  0  0  0  0  0  0  0  0
    5.8885    1.4660    1.5508 C   0  0  0  0  0  0  0  0  0  0  0  0
    3.1743    0.4185    0.9776 C   0  0  0  0  0  0  0  0  0  0  0  0
    1.8834   -0.0406    0.7228 C   0  0  0  0  0  0  0  0  0  0  0  0
    0.0658   -1.6234   -2.0560 C   0  0  0  0  0  0  0  0  0  0  0  0
   -1.2021   -2.0699   -2.4064 C   0  0  0  0  0  0  0  0  0  0  0  0
   -1.6516   -2.8733   -3.4079 N   0  0  0  0  0  0  0  0  0  0  0  0
   -2.9612   -3.0216   -3.3445 N   0  0  0  0  0  0  0  0  0  0  0  0
   -3.8337   -3.7925   -4.2164 C   0  0  0  0  0  0  0  0  0  0  0  0
   -3.3690   -2.2936   -2.2720 C   0  0  0  0  0  0  0  0  0  0  0  0
   -2.2804   -1.6898   -1.6711 C   0  0  0  0  0  0  0  0  0  0  0  0
   -4.2816    1.4776    0.9326 C   0  0  1  0  0  0  0  0  0  0  0  0
   -5.7144    1.1497    0.6183 C   0  0  0  0  0  0  0  0  0  0  0  0
   -6.4146    1.2573    1.8768 N   0  0  0  0  0  0  0  0  0  0  0  0
   -5.5288    1.6998    2.8903 C   0  0  0  0  0  0  0  0  0  0  0  0
   -5.6627    1.5942    4.1573 O   0  0  0  0  0  0  0  0  0  0  0  0
   -4.3834    2.3271    2.1795 C   0  0  0  0  0  0  0  0  0  0  0  0
   -5.0364   -0.6637    2.3968 H   0  0  0  0  0  0  0  0  0  0  0  0
   -3.6466   -0.0942    3.3552 H   0  0  0  0  0  0  0  0  0  0  0  0
   -3.5019   -1.5642    2.3214 H   0  0  0  0  0  0  0  0  0  0  0  0
   -2.4474    0.6289    1.5085 H   0  0  0  0  0  0  0  0  0  0  0  0
   -0.7557    0.2447    0.6506 H   0  0  0  0  0  0  0  0  0  0  0  0
    2.1627   -0.3384   -2.6128 H   0  0  0  0  0  0  0  0  0  0  0  0
    4.3902    0.4559   -2.1566 H   0  0  0  0  0  0  0  0  0  0  0  0
    6.3264    0.3300   -1.5466 H   0  0  0  0  0  0  0  0  0  0  0  0
    6.2444    2.1677   -1.3247 H   0  0  0  0  0  0  0  0  0  0  0  0
    8.4969    0.9233   -0.9250 H   0  0  0  0  0  0  0  0  0  0  0  0
    8.0151    2.2240    0.1963 H   0  0  0  0  0  0  0  0  0  0  0  0
    7.6355    1.0061    2.7112 H   0  0  0  0  0  0  0  0  0  0  0  0
    6.5948   -0.4268    2.3052 H   0  0  0  0  0  0  0  0  0  0  0  0
    5.1270    1.5800    2.3132 H   0  0  0  0  0  0  0  0  0  0  0  0
    6.3660    2.4827    1.4045 H   0  0  0  0  0  0  0  0  0  0  0  0
    3.3953    0.6109    2.0014 H   0  0  0  0  0  0  0  0  0  0  0  0
    1.1617   -0.1892    1.5017 H   0  0  0  0  0  0  0  0  0  0  0  0
    0.8974   -1.9369   -2.6505 H   0  0  0  0  0  0  0  0  0  0  0  0
   -3.2507   -4.6446   -4.6628 H   0  0  0  0  0  0  0  0  0  0  0  0
   -4.7208   -4.1651   -3.6797 H   0  0  0  0  0  0  0  0  0  0  0  0
   -4.1656   -3.1759   -5.0890 H   0  0  0  0  0  0  0  0  0  0  0  0
   -4.3915   -2.1937   -1.9290 H   0  0  0  0  0  0  0  0  0  0  0  0
   -3.8320    2.0355    0.1120 H   0  0  0  0  0  0  0  0  0  0  0  0
   -5.8534    0.1900    0.1192 H   0  0  0  0  0  0  0  0  0  0  0  0
   -6.0962    1.9736   -0.0405 H   0  0  0  0  0  0  0  0  0  0  0  0
   -7.4163    1.0445    2.0262 H   0  0  0  0  0  0  0  0  0  0  0  0
   -4.6181    3.3532    1.8628 H   0  0  0  0  0  0  0  0  0  0  0  0
   -3.4447    2.2573    2.7665 H   0  0  0  0  0  0  0  0  0  0  0  0
  1  2  1  0
  2  3  1  0
  3  4  1  0
  4  5  2  0
  5  6  1  0
  6  7  1  0
  7  8  2  0
  8  9  1  0
  9 10  2  0
 10 11  1  0
 11 12  1  0
 12 13  1  0
 13 14  1  0
 14 15  1  0
 15 16  1  0
 10 17  1  0
 17 18  2  0
  6 19  2  0
 19 20  1  0
 20 21  2  0
 21 22  1  0
 22 23  1  0
 22 24  1  0
 24 25  2  0
  2 26  1  0
 26 27  1  0
 27 28  1  0
 28 29  1  0
 29 30  2  0
 29 31  1  0
 25  4  1  0
 31 26  1  0
 18  7  1  0
 25 20  1  0
 16 11  1  0
  1 32  1  0
  1 33  1  0
  1 34  1  0
  2 35  1  1
  5 36  1  0
  8 37  1  0
  9 38  1  0
 12 39  1  0
 12 40  1  0
 13 41  1  0
 13 42  1  0
 15 43  1  0
 15 44  1  0
 16 45  1  0
 16 46  1  0
 17 47  1  0
 18 48  1  0
 19 49  1  0
 23 50  1  0
 23 51  1  0
 23 52  1  0
 24 53  1  0
 26 54  1  6
 27 55  1  0
 27 56  1  0
 28 57  1  0
 31 58  1  0
 31 59  1  0
M  END
$$$$
