
     RDKit          3D

 59 63  0  0  0  0  0  0  0  0999 V2000
   -3.9918   -2.3440    1.3928 C   0  0  0  0  0  0  0  0  0  0  0  0
   -2.8022   -2.9461    0.7452 C   0  0  0  0  0  0  0  0  0  0  0  0
   -1.6744   -2.2708    0.2985 C   0  0  0  0  0  0  0  0  0  0  0  0
   -1.3363   -0.9091    0.3203 C   0  0  0  0  0  0  0  0  0  0  0  0
   -2.2758   -0.0858    0.8785 O   0  0  0  0  0  0  0  0  0  0  0  0
   -2.2657    1.2821    1.0567 C   0  0  2  0  0  0  0  0  0  0  0  0
   -2.4055    1.7163    2.4998 C   0  0  0  0  0  0  0  0  0  0  0  0
   -3.3806    1.9795    0.2948 C   0  0  1  0  0  0  0  0  0  0  0  0
   -3.2747    3.4687    0.5616 C   0  0  0  0  0  0  0  0  0  0  0  0
   -4.0325    4.0236   -0.5406 N   0  0  0  0  0  0  0  0  0  0  0  0
   -3.8430    3.1596   -1.6551 C   0  0  0  0  0  0  0  0  0  0  0  0
   -4.2265    3.4551   -2.8261 O   0  0  0  0  0  0  0  0  0  0  0  0
   -3.1483    1.9180   -1.1994 C   0  0  0  0  0  0  0  0  0  0  0  0
   -0.1336   -0.4754   -0.1944 C   0  0  0  0  0  0  0  0  0  0  0  0
    0.7359   -1.3970   -0.7324 C   0  0  0  0  0  0  0  0  0  0  0  0
    2.0346   -0.9977   -1.2974 C   0  0  0  0  0  0  0  0  0  0  0  0
    2.6547   -1.6509   -2.3395 C   0  0  0  0  0  0  0  0  0  0  0  0
    3.8118   -1.0120   -2.5834 N   0  0  0  0  0  0  0  0  0  0  0  0
    3.9480    0.0035   -1.7512 N   0  0  0  0  0  0  0  0  0  0  0  0
    5.0869    0.9334   -1.7152 C   0  0  0  0  0  0  0  0  0  0  0  0
    6.2034    0.2302   -0.9529 C   0  0  0  0  0  0  0  0  0  0  0  0
    5.7349    0.4480    0.4865 C   0  0  0  0  0  0  0  0  0  0  0  0
    5.3967    1.9210    0.4707 C   0  0  0  0  0  0  0  0  0  0  0  0
    4.5412    2.2618    1.5003 F   0  0  0  0  0  0  0  0  0  0  0  0
    6.6067    2.6061    0.5660 F   0  0  0  0  0  0  0  0  0  0  0  0
    4.7735    2.1442   -0.8919 C   0  0  0  0  0  0  0  0  0  0  0  0
    2.8685    0.0227   -0.9605 C   0  0  0  0  0  0  0  0  0  0  0  0
    0.3866   -2.7498   -0.7477 C   0  0  0  0  0  0  0  0  0  0  0  0
   -0.7989   -3.1959   -0.2428 C   0  0  0  0  0  0  0  0  0  0  0  0
   -1.4117   -4.4040   -0.1131 N   0  0  0  0  0  0  0  0  0  0  0  0
   -2.5885   -4.2474    0.4686 N   0  0  0  0  0  0  0  0  0  0  0  0
   -3.4805   -5.3730    0.7425 C   0  0  0  0  0  0  0  0  0  0  0  0
   -3.8619   -2.1934    2.4820 H   0  0  0  0  0  0  0  0  0  0  0  0
   -4.8536   -3.0683    1.3014 H   0  0  0  0  0  0  0  0  0  0  0  0
   -4.3308   -1.4231    0.8720 H   0  0  0  0  0  0  0  0  0  0  0  0
   -1.3211    1.7001    0.6605 H   0  0  0  0  0  0  0  0  0  0  0  0
   -1.8306    2.6678    2.6952 H   0  0  0  0  0  0  0  0  0  0  0  0
   -2.0434    0.9647    3.2121 H   0  0  0  0  0  0  0  0  0  0  0  0
   -3.4541    1.9594    2.7696 H   0  0  0  0  0  0  0  0  0  0  0  0
   -4.3731    1.6281    0.5789 H   0  0  0  0  0  0  0  0  0  0  0  0
   -3.6894    3.7495    1.5506 H   0  0  0  0  0  0  0  0  0  0  0  0
   -2.2036    3.7649    0.4505 H   0  0  0  0  0  0  0  0  0  0  0  0
   -4.5975    4.8988   -0.4783 H   0  0  0  0  0  0  0  0  0  0  0  0
   -3.5265    1.0124   -1.6716 H   0  0  0  0  0  0  0  0  0  0  0  0
   -2.0676    2.0332   -1.3979 H   0  0  0  0  0  0  0  0  0  0  0  0
    0.1116    0.5751   -0.1701 H   0  0  0  0  0  0  0  0  0  0  0  0
    2.3220   -2.5087   -2.8867 H   0  0  0  0  0  0  0  0  0  0  0  0
    5.4723    1.1501   -2.7185 H   0  0  0  0  0  0  0  0  0  0  0  0
    7.1712    0.7370   -1.0679 H   0  0  0  0  0  0  0  0  0  0  0  0
    6.2429   -0.8542   -1.1953 H   0  0  0  0  0  0  0  0  0  0  0  0
    4.8102   -0.1277    0.6510 H   0  0  0  0  0  0  0  0  0  0  0  0
    6.5399    0.2100    1.2112 H   0  0  0  0  0  0  0  0  0  0  0  0
    5.3204    3.0061   -1.3706 H   0  0  0  0  0  0  0  0  0  0  0  0
    3.6865    2.3429   -0.8390 H   0  0  0  0  0  0  0  0  0  0  0  0
    2.6457    0.7277   -0.1555 H   0  0  0  0  0  0  0  0  0  0  0  0
    1.0826   -3.4347   -1.1713 H   0  0  0  0  0  0  0  0  0  0  0  0
   -3.2827   -6.2012    0.0362 H   0  0  0  0  0  0  0  0  0  0  0  0
   -3.1503   -5.7572    1.7516 H   0  0  0  0  0  0  0  0  0  0  0  0
   -4.5319   -5.0742    0.8015 H   0  0  0  0  0  0  0  0  0  0  0  0
  1  2  1  0
  2  3  2  0
  3  4  1  0
  4  5  1  0
  5  6  1  0
  6  7  1  0
  6  8  1  0
  8  9  1  0
  9 10  1  0
 10 11  1  0
 11 12  2  0
 11 13  1  0
  4 14  2  0
 14 15  1  0
 15 16  1  0
 16 17  1  0
 17 18  2  0
 18 19  1  0
 19 20  1  0
 20 21  1  0
 21 22  1  0
 22 23  1  0
 23 24  1  0
 23 25  1  0
 23 26  1  0
 19 27  1  0
 15 28  2  0
 28 29  1  0
 29 30  2  0
 30 31  1  0
 31 32  1  0
 31  2  1  0
 29  3  1  0
 13  8  1  0
 27 16  2  0
 26 20  1  0
  1 33  1  0
  1 34  1  0
  1 35  1  0
  6 36  1  6
  7 37  1  0
  7 38  1  0
  7 39  1  0
  8 40  1  6
  9 41  1  0
  9 42  1  0
 10 43  1  0
 13 44  1  0
 13 45  1  0
 14 46  1  0
 17 47  1  0
 20 48  1  0
 21 49  1  0
 21 50  1  0
 22 51  1  0
 22 52  1  0
 26 53  1  0
 26 54  1  0
 27 55  1  0
 28 56  1  0
 32 57  1  0
 32 58  1  0
 32 59  1  0
M  END
$$$$
