@<TRIPOS>MOLECULE
*****
 59 63 0 0 0
SMALL
GASTEIGER

@<TRIPOS>ATOM
      1 C          -3.9918   -2.3440    1.3928 C.3     1  UNL1       -0.0220
      2 C          -2.8022   -2.9461    0.7452 C.ar    1  UNL1        0.0471
      3 C          -1.6744   -2.2708    0.2985 C.ar    1  UNL1        0.0643
      4 C          -1.3363   -0.9091    0.3203 C.ar    1  UNL1        0.1324
      5 O          -2.2758   -0.0858    0.8785 O.3     1  UNL1       -0.4880
      6 C          -2.2657    1.2821    1.0567 C.3     1  UNL1        0.1021
      7 C          -2.4055    1.7163    2.4998 C.3     1  UNL1       -0.0275
      8 C          -3.3806    1.9795    0.2948 C.3     1  UNL1        0.0195
      9 C          -3.2747    3.4687    0.5616 C.3     1  UNL1        0.0182
     10 N          -4.0325    4.0236   -0.5406 N.am    1  UNL1       -0.3149
     11 C          -3.8430    3.1596   -1.6551 C.2     1  UNL1        0.2135
     12 O          -4.2265    3.4551   -2.8261 O.2     1  UNL1       -0.2758
     13 C          -3.1483    1.9180   -1.1994 C.3     1  UNL1        0.0315
     14 C          -0.1336   -0.4754   -0.1944 C.ar    1  UNL1       -0.0113
     15 C           0.7359   -1.3970   -0.7324 C.ar    1  UNL1       -0.0094
     16 C           2.0346   -0.9977   -1.2974 C.ar    1  UNL1        0.0198
     17 C           2.6547   -1.6509   -2.3395 C.ar    1  UNL1        0.0571
     18 N           3.8118   -1.0120   -2.5834 N.ar    1  UNL1       -0.1788
     19 N           3.9480    0.0035   -1.7512 N.ar    1  UNL1       -0.2676
     20 C           5.0869    0.9334   -1.7152 C.3     1  UNL1        0.0583
     21 C           6.2034    0.2302   -0.9529 C.3     1  UNL1       -0.0249
     22 C           5.7349    0.4480    0.4865 C.3     1  UNL1        0.0127
     23 C           5.3967    1.9210    0.4707 C.3     1  UNL1        0.2509
     24 F           4.5412    2.2618    1.5003 F       1  UNL1       -0.2056
     25 F           6.6067    2.6061    0.5660 F       1  UNL1       -0.2056
     26 C           4.7735    2.1442   -0.8919 C.3     1  UNL1        0.0332
     27 C           2.8685    0.0227   -0.9605 C.ar    1  UNL1        0.0335
     28 C           0.3866   -2.7498   -0.7477 C.ar    1  UNL1       -0.0259
     29 C          -0.7989   -3.1959   -0.2428 C.ar    1  UNL1        0.0971
     30 N          -1.4117   -4.4040   -0.1131 N.ar    1  UNL1       -0.1711
     31 N          -2.5885   -4.2474    0.4686 N.ar    1  UNL1       -0.2704
     32 C          -3.4805   -5.3730    0.7425 C.3     1  UNL1        0.0305
     33 H          -3.8619   -2.1934    2.4820 H       1  UNL1        0.0293
     34 H          -4.8536   -3.0683    1.3014 H       1  UNL1        0.0293
     35 H          -4.3308   -1.4231    0.8720 H       1  UNL1        0.0293
     36 H          -1.3211    1.7001    0.6605 H       1  UNL1        0.0733
     37 H          -1.8306    2.6678    2.6952 H       1  UNL1        0.0265
     38 H          -2.0434    0.9647    3.2121 H       1  UNL1        0.0265
     39 H          -3.4541    1.9594    2.7696 H       1  UNL1        0.0265
     40 H          -4.3731    1.6281    0.5789 H       1  UNL1        0.0356
     41 H          -3.6894    3.7495    1.5506 H       1  UNL1        0.0466
     42 H          -2.2036    3.7649    0.4505 H       1  UNL1        0.0466
     43 H          -4.5975    4.8988   -0.4783 H       1  UNL1        0.1487
     44 H          -3.5265    1.0124   -1.6716 H       1  UNL1        0.0363
     45 H          -2.0676    2.0332   -1.3979 H       1  UNL1        0.0363
     46 H           0.1116    0.5751   -0.1701 H       1  UNL1        0.0660
     47 H           2.3220   -2.5087   -2.8867 H       1  UNL1        0.0854
     48 H           5.4723    1.1501   -2.7185 H       1  UNL1        0.0547
     49 H           7.1712    0.7370   -1.0679 H       1  UNL1        0.0288
     50 H           6.2429   -0.8542   -1.1953 H       1  UNL1        0.0288
     51 H           4.8102   -0.1277    0.6510 H       1  UNL1        0.0323
     52 H           6.5399    0.2100    1.2112 H       1  UNL1        0.0323
     53 H           5.3204    3.0061   -1.3706 H       1  UNL1        0.0343
     54 H           3.6865    2.3429   -0.8390 H       1  UNL1        0.0343
     55 H           2.6457    0.7277   -0.1555 H       1  UNL1        0.0832
     56 H           1.0826   -3.4347   -1.1713 H       1  UNL1        0.0646
     57 H          -3.2827   -6.2012    0.0362 H       1  UNL1        0.0473
     58 H          -3.1503   -5.7572    1.7516 H       1  UNL1        0.0473
     59 H          -4.5319   -5.0742    0.8015 H       1  UNL1        0.0473
@<TRIPOS>BOND
     1     1     2    1
     2     2     3   ar
     3     3     4   ar
     4     4     5    1
     5     5     6    1
     6     6     7    1
     7     6     8    1
     8     8     9    1
     9     9    10    1
    10    10    11   am
    11    11    12    2
    12    11    13    1
    13     4    14   ar
    14    14    15   ar
    15    15    16    1
    16    16    17   ar
    17    17    18   ar
    18    18    19   ar
    19    19    20    1
    20    20    21    1
    21    21    22    1
    22    22    23    1
    23    23    24    1
    24    23    25    1
    25    23    26    1
    26    19    27   ar
    27    15    28   ar
    28    28    29   ar
    29    29    30   ar
    30    30    31   ar
    31    31    32    1
    32    31     2   ar
    33    29     3   ar
    34    13     8    1
    35    27    16   ar
    36    26    20    1
    37     1    33    1
    38     1    34    1
    39     1    35    1
    40     6    36    1
    41     7    37    1
    42     7    38    1
    43     7    39    1
    44     8    40    1
    45     9    41    1
    46     9    42    1
    47    10    43    1
    48    13    44    1
    49    13    45    1
    50    14    46    1
    51    17    47    1
    52    20    48    1
    53    21    49    1
    54    21    50    1
    55    22    51    1
    56    22    52    1
    57    26    53    1
    58    26    54    1
    59    27    55    1
    60    28    56    1
    61    32    57    1
    62    32    58    1
    63    32    59    1
