
     RDKit          3D

 44 44  0  0  0  0  0  0  0  0999 V2000
   -8.5998   -1.5261    0.7454 O   0  0  0  0  0  0  0  0  0  0  0  0
   -7.3234   -1.0921    0.6167 N   0  0  0  0  0  0  0  0  0  0  0  0
   -6.9529   -0.0597   -0.2882 C   0  0  0  0  0  0  0  0  0  0  0  0
   -7.9122    0.4101   -0.9534 O   0  0  0  0  0  0  0  0  0  0  0  0
   -5.5987    0.4403   -0.4627 C   0  0  0  0  0  0  0  0  0  0  0  0
   -4.5715   -0.0279    0.2162 C   0  0  0  0  0  0  0  0  0  0  0  0
   -3.2033    0.4496    0.0664 C   0  0  0  0  0  0  0  0  0  0  0  0
   -2.7263    1.5173   -0.8480 C   0  0  0  0  0  0  0  0  0  0  0  0
   -2.1940   -0.0648    0.7854 C   0  0  0  0  0  0  0  0  0  0  0  0
   -0.7835    0.3621    0.6935 C   0  0  1  0  0  0  0  0  0  0  0  0
   -0.3525    0.8462    2.0474 C   0  0  0  0  0  0  0  0  0  0  0  0
    0.1120   -0.7512    0.2895 C   0  0  0  0  0  0  0  0  0  0  0  0
   -0.3015   -1.9186    0.0708 O   0  0  0  0  0  0  0  0  0  0  0  0
    1.5434   -0.5423    0.1229 C   0  0  0  0  0  0  0  0  0  0  0  0
    2.3379   -1.6110   -0.2494 C   0  0  0  0  0  0  0  0  0  0  0  0
    3.7218   -1.5220   -0.4385 C   0  0  0  0  0  0  0  0  0  0  0  0
    4.3397   -0.3051   -0.2458 C   0  0  0  0  0  0  0  0  0  0  0  0
    5.7436   -0.1712   -0.4274 N   0  0  0  0  0  0  0  0  0  0  0  0
    6.5015   -1.3261   -0.8144 C   0  0  0  0  0  0  0  0  0  0  0  0
    6.3900    1.1024   -0.2255 C   0  0  0  0  0  0  0  0  0  0  0  0
    3.5647    0.7945    0.1308 C   0  0  0  0  0  0  0  0  0  0  0  0
    2.2102    0.6505    0.3025 C   0  0  0  0  0  0  0  0  0  0  0  0
   -9.2604   -0.8412    0.4154 H   0  0  0  0  0  0  0  0  0  0  0  0
   -6.6041   -1.5353    1.2026 H   0  0  0  0  0  0  0  0  0  0  0  0
   -5.4333    1.2161   -1.1682 H   0  0  0  0  0  0  0  0  0  0  0  0
   -4.7260   -0.8171    0.9369 H   0  0  0  0  0  0  0  0  0  0  0  0
   -3.5671    1.9646   -1.4120 H   0  0  0  0  0  0  0  0  0  0  0  0
   -2.0183    1.1064   -1.6178 H   0  0  0  0  0  0  0  0  0  0  0  0
   -2.2630    2.3606   -0.2851 H   0  0  0  0  0  0  0  0  0  0  0  0
   -2.3812   -0.8608    1.5052 H   0  0  0  0  0  0  0  0  0  0  0  0
   -0.6358    1.1457   -0.0985 H   0  0  0  0  0  0  0  0  0  0  0  0
   -0.2188    1.9523    2.0632 H   0  0  0  0  0  0  0  0  0  0  0  0
    0.5578    0.3324    2.3895 H   0  0  0  0  0  0  0  0  0  0  0  0
   -1.1368    0.6409    2.8168 H   0  0  0  0  0  0  0  0  0  0  0  0
    1.9500   -2.6244   -0.4291 H   0  0  0  0  0  0  0  0  0  0  0  0
    4.3198   -2.3656   -0.7280 H   0  0  0  0  0  0  0  0  0  0  0  0
    7.5914   -1.1081   -0.7677 H   0  0  0  0  0  0  0  0  0  0  0  0
    6.3146   -2.1443   -0.0921 H   0  0  0  0  0  0  0  0  0  0  0  0
    6.2225   -1.6954   -1.8206 H   0  0  0  0  0  0  0  0  0  0  0  0
    6.4439    1.3320    0.8555 H   0  0  0  0  0  0  0  0  0  0  0  0
    5.8281    1.9436   -0.7085 H   0  0  0  0  0  0  0  0  0  0  0  0
    7.4055    1.0758   -0.7036 H   0  0  0  0  0  0  0  0  0  0  0  0
    4.0447    1.7594    0.2851 H   0  0  0  0  0  0  0  0  0  0  0  0
    1.6213    1.5077    0.5927 H   0  0  0  0  0  0  0  0  0  0  0  0
  1  2  1  0
  2  3  1  0
  3  4  2  0
  3  5  1  0
  5  6  2  0
  6  7  1  0
  7  8  1  0
  7  9  2  0
  9 10  1  0
 10 11  1  0
 10 12  1  0
 12 13  2  0
 12 14  1  0
 14 15  2  0
 15 16  1  0
 16 17  2  0
 17 18  1  0
 18 19  1  0
 18 20  1  0
 17 21  1  0
 21 22  2  0
 22 14  1  0
  1 23  1  0
  2 24  1  0
  5 25  1  0
  6 26  1  0
  8 27  1  0
  8 28  1  0
  8 29  1  0
  9 30  1  0
 10 31  1  6
 11 32  1  0
 11 33  1  0
 11 34  1  0
 15 35  1  0
 16 36  1  0
 19 37  1  0
 19 38  1  0
 19 39  1  0
 20 40  1  0
 20 41  1  0
 20 42  1  0
 21 43  1  0
 22 44  1  0
M  END
$$$$
