
     RDKit          3D

 40 42  0  0  0  0  0  0  0  0999 V2000
    0.4609    1.0107   -4.4065 C   0  0  0  0  0  0  0  0  0  0  0  0
   -0.1206    0.6677   -3.1492 N   0  0  0  0  0  0  0  0  0  0  0  0
    0.3901    0.6278   -1.8337 C   0  0  0  0  0  0  0  0  0  0  0  0
   -0.3443    0.2629   -0.7261 C   0  0  0  0  0  0  0  0  0  0  0  0
    0.2978    0.2726    0.4960 C   0  0  0  0  0  0  0  0  0  0  0  0
    1.6194    0.6200    0.6922 C   0  0  0  0  0  0  0  0  0  0  0  0
    2.4120    0.6190    2.2918 S   0  0  0  0  0  0  0  0  0  0  0  0
    4.1025    1.1206    2.1398 C   0  0  0  0  0  0  0  0  0  0  0  0
    4.6306    2.3513    2.2005 N   0  0  0  0  0  0  0  0  0  0  0  0
    5.9491    2.2941    2.0367 N   0  0  0  0  0  0  0  0  0  0  0  0
    6.2526    0.9860    1.8685 C   0  0  0  0  0  0  0  0  0  0  0  0
    5.1213    0.2536    1.9302 N   0  0  0  0  0  0  0  0  0  0  0  0
    5.0831   -1.1915    1.7891 C   0  0  0  0  0  0  0  0  0  0  0  0
    2.3579    0.9894   -0.4392 C   0  0  0  0  0  0  0  0  0  0  0  0
    1.7009    0.9773   -1.6741 C   0  0  0  0  0  0  0  0  0  0  0  0
   -1.7153   -0.1159   -0.7974 C   0  0  0  0  0  0  0  0  0  0  0  0
   -2.4323   -0.1732   -1.8245 O   0  0  0  0  0  0  0  0  0  0  0  0
   -2.4648   -0.4872    0.3184 N   0  0  0  0  0  0  0  0  0  0  0  0
   -3.8638   -0.8823    0.3054 C   0  0  0  0  0  0  0  0  0  0  0  0
   -4.6204   -1.2177    1.1494 N   0  0  0  0  0  0  0  0  0  0  0  0
   -5.8906   -1.5514    0.9624 C   0  0  0  0  0  0  0  0  0  0  0  0
   -6.6771   -1.9482    2.1663 C   0  0  0  0  0  0  0  0  0  0  0  0
   -6.3579   -1.4813   -0.4544 C   0  0  0  0  0  0  0  0  0  0  0  0
   -4.7728   -0.9103   -1.3015 S   0  0  0  0  0  0  0  0  0  0  0  0
    1.5148    1.3510   -4.2168 H   0  0  0  0  0  0  0  0  0  0  0  0
   -0.0707    1.8614   -4.9206 H   0  0  0  0  0  0  0  0  0  0  0  0
    0.5281    0.1090   -5.0606 H   0  0  0  0  0  0  0  0  0  0  0  0
   -1.0840    0.4367   -3.4676 H   0  0  0  0  0  0  0  0  0  0  0  0
   -0.1707    0.0074    1.4323 H   0  0  0  0  0  0  0  0  0  0  0  0
    7.2927    0.6911    1.7141 H   0  0  0  0  0  0  0  0  0  0  0  0
    5.1356   -1.6617    2.7943 H   0  0  0  0  0  0  0  0  0  0  0  0
    5.9416   -1.5093    1.1481 H   0  0  0  0  0  0  0  0  0  0  0  0
    4.1475   -1.4936    1.2727 H   0  0  0  0  0  0  0  0  0  0  0  0
    3.4019    1.2652   -0.2942 H   0  0  0  0  0  0  0  0  0  0  0  0
    2.3929    1.2821   -2.4451 H   0  0  0  0  0  0  0  0  0  0  0  0
   -2.0715   -0.5124    1.2798 H   0  0  0  0  0  0  0  0  0  0  0  0
   -7.6772   -2.2974    1.9122 H   0  0  0  0  0  0  0  0  0  0  0  0
   -6.7034   -1.0958    2.8990 H   0  0  0  0  0  0  0  0  0  0  0  0
   -6.1752   -2.7884    2.7268 H   0  0  0  0  0  0  0  0  0  0  0  0
   -7.5207   -1.8026   -0.5145 H   0  0  0  0  0  0  0  0  0  0  0  0
  1  2  1  0
  2  3  1  0
  3  4  2  0
  4  5  1  0
  5  6  2  0
  6  7  1  0
  7  8  1  0
  8  9  2  0
  9 10  1  0
 10 11  2  0
 11 12  1  0
 12 13  1  0
  6 14  1  0
 14 15  2  0
  4 16  1  0
 16 17  2  0
 16 18  1  0
 18 19  1  0
 19 20  2  0
 20 21  1  0
 21 22  1  0
 21 23  2  0
 23 24  1  0
 15  3  1  0
 24 19  1  0
 12  8  1  0
  1 25  1  0
  1 26  1  0
  1 27  1  0
  2 28  1  0
  5 29  1  0
 11 30  1  0
 13 31  1  0
 13 32  1  0
 13 33  1  0
 14 34  1  0
 15 35  1  0
 18 36  1  0
 22 37  1  0
 22 38  1  0
 22 39  1  0
 23 40  1  0
M  END
$$$$
