
     RDKit          3D

 50 53  0  0  0  0  0  0  0  0999 V2000
    8.2005    1.3235    0.4239 N   0  0  0  0  0  0  0  0  0  0  0  0
    7.6109   -0.2770    0.1300 S   0  0  0  0  0  0  0  0  0  0  0  0
    7.9138   -0.6292   -1.2774 O   0  0  0  0  0  0  0  0  0  0  0  0
    8.2744   -1.2515    1.0789 O   0  0  0  0  0  0  0  0  0  0  0  0
    5.8742   -0.3788    0.3939 C   0  0  0  0  0  0  0  0  0  0  0  0
    5.0087    0.6166    0.5676 C   0  0  0  0  0  0  0  0  0  0  0  0
    3.8195    0.8113    0.8664 C   0  0  0  0  0  0  0  0  0  0  0  0
    3.1331   -0.4152    1.1134 C   0  0  0  0  0  0  0  0  0  0  0  0
    1.8245   -0.6879    1.4466 N   0  0  0  0  0  0  0  0  0  0  0  0
    0.9560   -0.6586    0.3745 C   0  0  0  0  0  0  0  0  0  0  0  0
   -0.4320   -1.1261    0.6233 C   0  0  0  0  0  0  0  0  0  0  0  0
   -1.2742   -1.1109   -0.4488 C   0  0  0  0  0  0  0  0  0  0  0  0
   -2.3751   -1.6597    0.2599 O   0  0  0  0  0  0  0  0  0  0  0  0
   -3.5235   -1.3263   -0.3466 C   0  0  0  0  0  0  0  0  0  0  0  0
   -3.7300    0.2784   -0.2522 C   0  0  0  0  0  0  0  0  0  0  0  0
   -4.7366    0.8908   -1.1920 C   0  0  0  0  0  0  0  0  0  0  0  0
   -6.1386    0.9708   -0.8580 C   0  0  0  0  0  0  0  0  0  0  0  0
   -6.3551    1.2657    0.6227 C   0  0  0  0  0  0  0  0  0  0  0  0
   -5.5584    0.3517    1.4676 C   0  0  0  0  0  0  0  0  0  0  0  0
   -4.1056    0.5859    1.2447 C   0  0  0  0  0  0  0  0  0  0  0  0
   -1.0157   -0.7567   -1.7022 N   0  0  0  0  0  0  0  0  0  0  0  0
    0.2902   -0.3128   -1.9475 C   0  0  0  0  0  0  0  0  0  0  0  0
    0.9541    0.1537   -3.0908 N   0  0  0  0  0  0  0  0  0  0  0  0
    2.3747    0.4149   -2.5667 C   0  0  0  0  0  0  0  0  0  0  0  0
    2.0757    0.0785   -1.4387 N   0  0  0  0  0  0  0  0  0  0  0  0
    1.0222   -0.3258   -0.9723 N   0  0  0  0  0  0  0  0  0  0  0  0
    3.9490   -1.6462    1.0209 C   0  0  0  0  0  0  0  0  0  0  0  0
    5.2646   -1.6346    0.6794 C   0  0  0  0  0  0  0  0  0  0  0  0
    7.9598    1.5866    1.4360 H   0  0  0  0  0  0  0  0  0  0  0  0
    7.5652    1.9576   -0.1307 H   0  0  0  0  0  0  0  0  0  0  0  0
    5.4383    1.6127    0.0864 H   0  0  0  0  0  0  0  0  0  0  0  0
    3.1237    1.6147    1.0541 H   0  0  0  0  0  0  0  0  0  0  0  0
    1.4048   -0.8791    2.3545 H   0  0  0  0  0  0  0  0  0  0  0  0
   -0.5717   -1.4497    1.7225 H   0  0  0  0  0  0  0  0  0  0  0  0
   -4.3278   -1.5876   -0.9698 H   0  0  0  0  0  0  0  0  0  0  0  0
   -4.1879   -1.7309    0.6403 H   0  0  0  0  0  0  0  0  0  0  0  0
   -2.7873    0.6667   -0.3256 H   0  0  0  0  0  0  0  0  0  0  0  0
   -4.5559    0.2453   -2.1294 H   0  0  0  0  0  0  0  0  0  0  0  0
   -4.2302    1.8682   -1.4322 H   0  0  0  0  0  0  0  0  0  0  0  0
   -6.7769    0.1871   -1.2395 H   0  0  0  0  0  0  0  0  0  0  0  0
   -6.4983    1.9081   -1.4132 H   0  0  0  0  0  0  0  0  0  0  0  0
   -7.4523    1.0309    0.7662 H   0  0  0  0  0  0  0  0  0  0  0  0
   -6.2076    2.3203    0.7830 H   0  0  0  0  0  0  0  0  0  0  0  0
   -5.9128    0.4824    2.5019 H   0  0  0  0  0  0  0  0  0  0  0  0
   -5.7820   -0.7035    1.1268 H   0  0  0  0  0  0  0  0  0  0  0  0
   -3.5528   -0.0303    1.9317 H   0  0  0  0  0  0  0  0  0  0  0  0
   -3.8688    1.7264    1.4045 H   0  0  0  0  0  0  0  0  0  0  0  0
    2.6877    0.7439   -3.6531 H   0  0  0  0  0  0  0  0  0  0  0  0
    3.3748   -2.5739    1.1596 H   0  0  0  0  0  0  0  0  0  0  0  0
    5.8568   -2.5408    0.5704 H   0  0  0  0  0  0  0  0  0  0  0  0
  1  2  1  0
  2  3  2  0
  2  4  2  0
  2  5  1  0
  5  6  2  0
  6  7  1  0
  7  8  2  0
  8  9  1  0
  9 10  1  0
 10 11  2  0
 11 12  1  0
 12 13  1  0
 13 14  1  0
 14 15  1  0
 15 16  1  0
 16 17  1  0
 17 18  1  0
 18 19  1  0
 19 20  1  0
 12 21  2  0
 21 22  1  0
 22 23  2  0
 23 24  1  0
 24 25  2  0
 25 26  1  0
  8 27  1  0
 27 28  2  0
 28  5  1  0
 26 10  1  0
 20 15  1  0
 26 22  1  0
  1 29  1  0
  1 30  1  0
  6 31  1  0
  7 32  1  0
  9 33  1  0
 11 34  1  0
 14 35  1  0
 14 36  1  0
 15 37  1  0
 16 38  1  0
 16 39  1  0
 17 40  1  0
 17 41  1  0
 18 42  1  0
 18 43  1  0
 19 44  1  0
 19 45  1  0
 20 46  1  0
 20 47  1  0
 24 48  1  0
 27 49  1  0
 28 50  1  0
M  END
$$$$
