@<TRIPOS>MOLECULE
*****
 50 53 0 0 0
SMALL
GASTEIGER

@<TRIPOS>ATOM
      1 N           8.2005    1.3235    0.4239 N.3     1  UNL1       -0.2035
      2 S           7.6109   -0.2770    0.1300 S.O2    1  UNL1        0.0559
      3 O           7.9138   -0.6292   -1.2774 O.2     1  UNL1       -0.1533
      4 O           8.2744   -1.2515    1.0789 O.2     1  UNL1       -0.1533
      5 C           5.8742   -0.3788    0.3939 C.ar    1  UNL1        0.1051
      6 C           5.0087    0.6166    0.5676 C.ar    1  UNL1       -0.0336
      7 C           3.8195    0.8113    0.8664 C.ar    1  UNL1       -0.0387
      8 C           3.1331   -0.4152    1.1134 C.ar    1  UNL1        0.0325
      9 N           1.8245   -0.6879    1.4466 N.pl3   1  UNL1       -0.2992
     10 C           0.9560   -0.6586    0.3745 C.ar    1  UNL1        0.1333
     11 C          -0.4320   -1.1261    0.6233 C.ar    1  UNL1        0.0402
     12 C          -1.2742   -1.1109   -0.4488 C.ar    1  UNL1        0.2212
     13 O          -2.3751   -1.6597    0.2599 O.3     1  UNL1       -0.4759
     14 C          -3.5235   -1.3263   -0.3466 C.3     1  UNL1        0.0940
     15 C          -3.7300    0.2784   -0.2522 C.3     1  UNL1       -0.0067
     16 C          -4.7366    0.8908   -1.1920 C.3     1  UNL1       -0.0471
     17 C          -6.1386    0.9708   -0.8580 C.3     1  UNL1       -0.0527
     18 C          -6.3551    1.2657    0.6227 C.3     1  UNL1       -0.0530
     19 C          -5.5584    0.3517    1.4676 C.3     1  UNL1       -0.0527
     20 C          -4.1056    0.5859    1.2447 C.3     1  UNL1       -0.0471
     21 N          -1.0157   -0.7567   -1.7022 N.ar    1  UNL1       -0.1754
     22 C           0.2902   -0.3128   -1.9475 C.ar    1  UNL1        0.2576
     23 N           0.9541    0.1537   -3.0908 N.ar    1  UNL1       -0.1973
     24 C           2.3747    0.4149   -2.5667 C.ar    1  UNL1        0.1406
     25 N           2.0757    0.0785   -1.4387 N.ar    1  UNL1       -0.1506
     26 N           1.0222   -0.3258   -0.9723 N.ar    1  UNL1       -0.1821
     27 C           3.9490   -1.6462    1.0209 C.ar    1  UNL1       -0.0387
     28 C           5.2646   -1.6346    0.6794 C.ar    1  UNL1       -0.0336
     29 H           7.9598    1.5866    1.4360 H       1  UNL1        0.1442
     30 H           7.5652    1.9576   -0.1307 H       1  UNL1        0.1442
     31 H           5.4383    1.6127    0.0864 H       1  UNL1        0.0638
     32 H           3.1237    1.6147    1.0541 H       1  UNL1        0.0637
     33 H           1.4048   -0.8791    2.3545 H       1  UNL1        0.1536
     34 H          -0.5717   -1.4497    1.7225 H       1  UNL1        0.0705
     35 H          -4.3278   -1.5876   -0.9698 H       1  UNL1        0.0700
     36 H          -4.1879   -1.7309    0.6403 H       1  UNL1        0.0700
     37 H          -2.7873    0.6667   -0.3256 H       1  UNL1        0.0334
     38 H          -4.5559    0.2453   -2.1294 H       1  UNL1        0.0269
     39 H          -4.2302    1.8682   -1.4322 H       1  UNL1        0.0269
     40 H          -6.7769    0.1871   -1.2395 H       1  UNL1        0.0265
     41 H          -6.4983    1.9081   -1.4132 H       1  UNL1        0.0265
     42 H          -7.4523    1.0309    0.7662 H       1  UNL1        0.0265
     43 H          -6.2076    2.3203    0.7830 H       1  UNL1        0.0265
     44 H          -5.9128    0.4824    2.5019 H       1  UNL1        0.0265
     45 H          -5.7820   -0.7035    1.1268 H       1  UNL1        0.0265
     46 H          -3.5528   -0.0303    1.9317 H       1  UNL1        0.0269
     47 H          -3.8688    1.7264    1.4045 H       1  UNL1        0.0269
     48 H           2.6877    0.7439   -3.6531 H       1  UNL1        0.1066
     49 H           3.3748   -2.5739    1.1596 H       1  UNL1        0.0637
     50 H           5.8568   -2.5408    0.5704 H       1  UNL1        0.0638
@<TRIPOS>BOND
     1     1     2    1
     2     2     3    2
     3     2     4    2
     4     2     5    1
     5     5     6   ar
     6     6     7   ar
     7     7     8   ar
     8     8     9    1
     9     9    10    1
    10    10    11   ar
    11    11    12   ar
    12    12    13    1
    13    13    14    1
    14    14    15    1
    15    15    16    1
    16    16    17    1
    17    17    18    1
    18    18    19    1
    19    19    20    1
    20    12    21   ar
    21    21    22   ar
    22    22    23   ar
    23    23    24   ar
    24    24    25   ar
    25    25    26   ar
    26     8    27   ar
    27    27    28   ar
    28    28     5   ar
    29    26    10   ar
    30    20    15    1
    31    26    22   ar
    32     1    29    1
    33     1    30    1
    34     6    31    1
    35     7    32    1
    36     9    33    1
    37    11    34    1
    38    14    35    1
    39    14    36    1
    40    15    37    1
    41    16    38    1
    42    16    39    1
    43    17    40    1
    44    17    41    1
    45    18    42    1
    46    18    43    1
    47    19    44    1
    48    19    45    1
    49    20    46    1
    50    20    47    1
    51    24    48    1
    52    27    49    1
    53    28    50    1
