@<TRIPOS>MOLECULE
*****
 75 78 0 0 0
SMALL
GASTEIGER

@<TRIPOS>ATOM
      1 N          13.7110   -0.2252   -0.5741 N.pl3   1  UNL1       -0.3430
      2 C          12.3201   -0.1065   -0.2831 C.ar    1  UNL1        0.1230
      3 N          11.4237   -0.9966   -0.7622 N.ar    1  UNL1       -0.1783
      4 C          10.1083   -0.8973   -0.4960 C.ar    1  UNL1        0.3521
      5 O           9.2223   -1.6801   -0.9026 O.2     1  UNL1       -0.2444
      6 N           9.6502    0.1102    0.2677 N.ar    1  UNL1       -0.2725
      7 C          10.5355    1.0224    0.7637 C.ar    1  UNL1        0.0151
      8 C          11.8813    0.9280    0.4963 C.ar    1  UNL1       -0.0056
      9 C           8.2940    0.3951    0.6680 C.3     1  UNL1        0.1423
     10 C           7.6956    1.4069   -0.2756 C.3     1  UNL1        0.0214
     11 C           6.2501    0.9255   -0.3701 C.3     1  UNL1        0.0877
     12 O           5.4277    2.0079   -0.0374 O.3     1  UNL1       -0.3890
     13 C           6.1956   -0.1352    0.6837 C.3     1  UNL1        0.1108
     14 C           5.0766   -1.1172    0.4984 C.3     1  UNL1        0.0878
     15 O           3.8158   -0.5496    0.5604 O.3     1  UNL1       -0.2837
     16 P           2.5842   -1.6613    0.3516 P.3     1  UNL1        0.4835
     17 O           1.3171   -1.3878    1.4638 O.3     1  UNL1       -0.3022
     18 O           3.1252   -3.0455    0.6671 O.2     1  UNL1       -0.2269
     19 O           1.8911   -1.6145   -1.1903 O.3     1  UNL1       -0.1858
     20 P           1.9258   -0.0699   -1.8382 P.3     1  UNL1        0.4918
     21 O           2.5765    0.9810   -0.6905 O.3     1  UNL1       -0.3019
     22 O           2.8802   -0.1012   -3.0293 O.2     1  UNL1       -0.2265
     23 O           0.4078    0.4813   -2.3317 O.3     1  UNL1       -0.1855
     24 P          -0.6007    0.5376   -0.9795 P.3     1  UNL1        0.4918
     25 O           0.1690    1.2633    0.3398 O.3     1  UNL1       -0.3019
     26 O          -0.9690   -0.9118   -0.6747 O.2     1  UNL1       -0.2265
     27 O          -2.0122    1.4113   -1.2921 O.3     1  UNL1       -0.1858
     28 P          -3.2605    0.4281   -1.8247 P.3     1  UNL1        0.4835
     29 O          -3.9770    0.9951   -3.2294 O.3     1  UNL1       -0.3022
     30 O          -2.6702   -0.9405   -2.1699 O.2     1  UNL1       -0.2269
     31 O          -4.3497    0.2009   -0.5742 O.3     1  UNL1       -0.2837
     32 C          -5.6717    0.4362   -0.9379 C.3     1  UNL1        0.0879
     33 C          -6.6314    0.2281    0.1925 C.3     1  UNL1        0.1134
     34 O          -7.9238    0.4945   -0.2969 O.3     1  UNL1       -0.3456
     35 C          -8.6981   -0.0291    0.7345 C.3     1  UNL1        0.1679
     36 C          -8.1375   -1.4059    0.9624 C.3     1  UNL1        0.1286
     37 O          -8.3381   -1.7163    2.3261 O.3     1  UNL1       -0.3847
     38 C          -6.6653   -1.2077    0.6615 C.3     1  UNL1        0.1135
     39 O          -5.9494   -1.3330    1.8618 O.3     1  UNL1       -0.3864
     40 N         -10.1025   -0.0414    0.4270 N.ar    1  UNL1       -0.2715
     41 C         -10.9924    0.1261    1.4294 C.ar    1  UNL1        0.0171
     42 C         -12.3552    0.1251    1.2054 C.ar    1  UNL1        0.0192
     43 C         -12.8017   -0.0541   -0.0899 C.ar    1  UNL1        0.2539
     44 O         -14.0460   -0.0579   -0.3140 O.2     1  UNL1       -0.2677
     45 N         -11.8715   -0.2187   -1.0656 N.ar    1  UNL1       -0.2749
     46 C         -10.5534   -0.2148   -0.8291 C.ar    1  UNL1        0.3314
     47 O          -9.7654   -0.3739   -1.7904 O.2     1  UNL1       -0.2464
     48 O           7.4605   -0.7230    0.6185 O.3     1  UNL1       -0.3483
     49 H          14.2066    0.6113   -0.9381 H       1  UNL1        0.1437
     50 H          14.2884   -1.0751   -0.4579 H       1  UNL1        0.1437
     51 H          10.2681    1.8764    1.3928 H       1  UNL1        0.0812
     52 H          12.6057    1.6302    0.8716 H       1  UNL1        0.0666
     53 H           8.2506    0.7460    1.7289 H       1  UNL1        0.0840
     54 H           8.1710    1.4041   -1.2709 H       1  UNL1        0.0335
     55 H           7.7487    2.4264    0.1373 H       1  UNL1        0.0335
     56 H           6.0552    0.5774   -1.3900 H       1  UNL1        0.0621
     57 H           5.6316    2.7856   -0.6183 H       1  UNL1        0.2099
     58 H           6.0348    0.3588    1.6610 H       1  UNL1        0.0646
     59 H           5.2034   -1.9194    1.2539 H       1  UNL1        0.0592
     60 H           5.1557   -1.5705   -0.5169 H       1  UNL1        0.0592
     61 H           1.5198   -0.5325    1.9324 H       1  UNL1        0.2220
     62 H           2.5168    1.9027   -1.0657 H       1  UNL1        0.2220
     63 H          -0.5023    1.6158    0.9787 H       1  UNL1        0.2220
     64 H          -3.8975    1.9897   -3.2167 H       1  UNL1        0.2220
     65 H          -5.8352    1.4227   -1.3755 H       1  UNL1        0.0592
     66 H          -5.9264   -0.3019   -1.7246 H       1  UNL1        0.0592
     67 H          -6.4753    0.8552    1.0687 H       1  UNL1        0.0647
     68 H          -8.4578    0.5712    1.6380 H       1  UNL1        0.0867
     69 H          -8.6011   -2.1826    0.3276 H       1  UNL1        0.0665
     70 H          -7.9933   -2.6215    2.4725 H       1  UNL1        0.2101
     71 H          -6.2725   -1.9012   -0.1032 H       1  UNL1        0.0647
     72 H          -5.3454   -0.5418    1.9981 H       1  UNL1        0.2100
     73 H         -10.6230    0.2643    2.4324 H       1  UNL1        0.0813
     74 H         -13.0198    0.2664    2.0650 H       1  UNL1        0.0686
     75 H         -12.3090   -0.3463   -2.0070 H       1  UNL1        0.1734
@<TRIPOS>BOND
     1     1     2    1
     2     2     3   ar
     3     3     4   ar
     4     4     5    2
     5     4     6   ar
     6     6     7   ar
     7     7     8   ar
     8     6     9    1
     9     9    10    1
    10    10    11    1
    11    11    12    1
    12    11    13    1
    13    13    14    1
    14    14    15    1
    15    15    16    1
    16    16    17    1
    17    16    18    2
    18    16    19    1
    19    19    20    1
    20    20    21    1
    21    20    22    2
    22    20    23    1
    23    23    24    1
    24    24    25    1
    25    24    26    2
    26    24    27    1
    27    27    28    1
    28    28    29    1
    29    28    30    2
    30    28    31    1
    31    31    32    1
    32    32    33    1
    33    33    34    1
    34    34    35    1
    35    35    36    1
    36    36    37    1
    37    36    38    1
    38    38    39    1
    39    35    40    1
    40    40    41   ar
    41    41    42   ar
    42    42    43   ar
    43    43    44    2
    44    43    45   ar
    45    45    46   ar
    46    46    47    2
    47    13    48    1
    48     8     2   ar
    49    48     9    1
    50    38    33    1
    51    46    40   ar
    52     1    49    1
    53     1    50    1
    54     7    51    1
    55     8    52    1
    56     9    53    1
    57    10    54    1
    58    10    55    1
    59    11    56    1
    60    12    57    1
    61    13    58    1
    62    14    59    1
    63    14    60    1
    64    17    61    1
    65    21    62    1
    66    25    63    1
    67    29    64    1
    68    32    65    1
    69    32    66    1
    70    33    67    1
    71    35    68    1
    72    36    69    1
    73    37    70    1
    74    38    71    1
    75    39    72    1
    76    41    73    1
    77    42    74    1
    78    45    75    1
