@<TRIPOS>MOLECULE
*****
 60 63 0 0 0
SMALL
GASTEIGER

@<TRIPOS>ATOM
      1 C          -8.0571    0.3844    1.5782 C.3     1  UNL1       -0.0397
      2 C          -6.5586    0.3179    1.6867 C.ar    1  UNL1       -0.0487
      3 C          -5.9408    0.3396    2.9143 C.ar    1  UNL1       -0.0587
      4 C          -4.5684    0.2761    2.9589 C.ar    1  UNL1       -0.0598
      5 C          -3.7754    0.1904    1.8080 C.ar    1  UNL1       -0.0406
      6 C          -4.3961    0.1687    0.5834 C.ar    1  UNL1        0.0319
      7 N          -3.6637    0.0668   -0.6554 N.pl3   1  UNL1       -0.2998
      8 C          -4.2324    0.4404   -1.9345 C.3     1  UNL1        0.0793
      9 N          -3.2630    0.0698   -2.9403 N.am    1  UNL1       -0.2978
     10 C          -2.3364   -0.8095   -2.3169 C.2     1  UNL1        0.2379
     11 O          -1.6679   -1.7316   -2.8491 O.2     1  UNL1       -0.2734
     12 C          -2.3411   -0.3873   -0.8897 C.3     1  UNL1        0.1145
     13 C          -1.9295   -1.5750   -0.0621 C.3     1  UNL1       -0.0100
     14 C          -0.5477   -1.3158    0.4640 C.3     1  UNL1        0.0014
     15 N           0.3851   -0.9982   -0.6066 N.3     1  UNL1       -0.3004
     16 C           1.6977   -0.8817   -0.0117 C.3     1  UNL1        0.0171
     17 C           2.7599   -0.5733   -1.0473 C.3     1  UNL1        0.0333
     18 C           2.7909   -1.6907   -2.0680 C.3     1  UNL1       -0.0454
     19 N           4.0801   -0.5770   -0.3906 N.am    1  UNL1       -0.3075
     20 C           4.9285    0.5501   -0.4380 C.2     1  UNL1        0.2443
     21 O           4.5240    1.5691   -1.0622 O.2     1  UNL1       -0.2702
     22 C           6.2272    0.5161    0.2204 C.ar    1  UNL1        0.0368
     23 C           7.0693    1.6213    0.1815 C.ar    1  UNL1       -0.0486
     24 C           8.2942    1.6086    0.7942 C.ar    1  UNL1       -0.0470
     25 C           8.7256    0.4878    1.4713 C.ar    1  UNL1        0.0179
     26 BR         10.4430    0.4731    2.3288 Br      1  UNL1       -0.0503
     27 C           7.9070   -0.6192    1.5227 C.ar    1  UNL1       -0.0470
     28 C           6.6615   -0.5920    0.8937 C.ar    1  UNL1       -0.0486
     29 C          -0.0186    0.1825   -1.3332 C.3     1  UNL1        0.0014
     30 C          -1.3043    0.7041   -0.7375 C.3     1  UNL1       -0.0100
     31 C          -5.7782    0.2334    0.5540 C.ar    1  UNL1       -0.0377
     32 H          -8.4704   -0.6631    1.5704 H       1  UNL1        0.0278
     33 H          -8.5054    1.0220    2.3390 H       1  UNL1        0.0278
     34 H          -8.2808    0.7956    0.5708 H       1  UNL1        0.0278
     35 H          -6.5534    0.4062    3.8148 H       1  UNL1        0.0620
     36 H          -4.0656    0.2925    3.9249 H       1  UNL1        0.0618
     37 H          -2.6910    0.1523    1.8996 H       1  UNL1        0.0636
     38 H          -5.1708   -0.0985   -2.1596 H       1  UNL1        0.0671
     39 H          -4.4325    1.5347   -1.9357 H       1  UNL1        0.0671
     40 H          -3.1949    0.3504   -3.9410 H       1  UNL1        0.1503
     41 H          -1.8272   -2.4975   -0.7167 H       1  UNL1        0.0303
     42 H          -2.6004   -1.8715    0.7304 H       1  UNL1        0.0303
     43 H          -0.5005   -0.5820    1.2916 H       1  UNL1        0.0427
     44 H          -0.1734   -2.2792    0.9062 H       1  UNL1        0.0427
     45 H           1.9637   -1.8661    0.4230 H       1  UNL1        0.0445
     46 H           1.6300   -0.0912    0.7587 H       1  UNL1        0.0445
     47 H           2.6537    0.4274   -1.5068 H       1  UNL1        0.0508
     48 H           3.7348   -2.2811   -2.0270 H       1  UNL1        0.0248
     49 H           1.9772   -2.4337   -1.8471 H       1  UNL1        0.0248
     50 H           2.7112   -1.3097   -3.1066 H       1  UNL1        0.0248
     51 H           4.2976   -1.4749    0.0909 H       1  UNL1        0.1493
     52 H           6.7236    2.5032   -0.3544 H       1  UNL1        0.0625
     53 H           8.9536    2.4742    0.7635 H       1  UNL1        0.0629
     54 H           8.2089   -1.5200    2.0445 H       1  UNL1        0.0629
     55 H           6.0645   -1.4933    0.9700 H       1  UNL1        0.0625
     56 H          -0.2025   -0.0014   -2.4108 H       1  UNL1        0.0427
     57 H           0.7282    1.0047   -1.2436 H       1  UNL1        0.0427
     58 H          -1.5774    1.6034   -1.3626 H       1  UNL1        0.0303
     59 H          -1.1839    1.0640    0.2905 H       1  UNL1        0.0303
     60 H          -6.3318    0.2206   -0.3937 H       1  UNL1        0.0639
@<TRIPOS>BOND
     1     1     2    1
     2     2     3   ar
     3     3     4   ar
     4     4     5   ar
     5     5     6   ar
     6     6     7    1
     7     7     8    1
     8     8     9    1
     9     9    10   am
    10    10    11    2
    11    10    12    1
    12    12    13    1
    13    13    14    1
    14    14    15    1
    15    15    16    1
    16    16    17    1
    17    17    18    1
    18    17    19    1
    19    19    20   am
    20    20    21    2
    21    20    22    1
    22    22    23   ar
    23    23    24   ar
    24    24    25   ar
    25    25    26    1
    26    25    27   ar
    27    27    28   ar
    28    15    29    1
    29    29    30    1
    30     6    31   ar
    31    31     2   ar
    32    12     7    1
    33    28    22   ar
    34    30    12    1
    35     1    32    1
    36     1    33    1
    37     1    34    1
    38     3    35    1
    39     4    36    1
    40     5    37    1
    41     8    38    1
    42     8    39    1
    43     9    40    1
    44    13    41    1
    45    13    42    1
    46    14    43    1
    47    14    44    1
    48    16    45    1
    49    16    46    1
    50    17    47    1
    51    18    48    1
    52    18    49    1
    53    18    50    1
    54    19    51    1
    55    23    52    1
    56    24    53    1
    57    27    54    1
    58    28    55    1
    59    29    56    1
    60    29    57    1
    61    30    58    1
    62    30    59    1
    63    31    60    1
