@<TRIPOS>MOLECULE
*****
 45 48 0 0 0
SMALL
GASTEIGER

@<TRIPOS>ATOM
      1 C           6.2326    1.7316   -5.2097 C.3     1  UNL1        0.0805
      2 O           6.1591    1.4757   -3.8424 O.3     1  UNL1       -0.4786
      3 C           5.0345    0.9676   -3.2054 C.ar    1  UNL1        0.2332
      4 C           4.9897    0.7245   -1.8544 C.ar    1  UNL1        0.0899
      5 N           3.8584    0.2304   -1.3145 N.ar    1  UNL1       -0.2435
      6 C           2.7647   -0.0363   -2.0474 C.ar    1  UNL1        0.1439
      7 C           1.5630   -0.5700   -1.4147 C.2     1  UNL1        0.2681
      8 O           0.5241   -0.8297   -2.0696 O.2     1  UNL1       -0.2681
      9 N           1.5251   -0.8173   -0.0201 N.am    1  UNL1       -0.2802
     10 C           0.4087   -1.3304    0.6772 C.ar    1  UNL1        0.0356
     11 C           0.2069   -2.6829    0.8598 C.ar    1  UNL1       -0.0193
     12 C          -0.8768   -3.1747    1.5384 C.ar    1  UNL1        0.0782
     13 CL         -1.1007   -4.8994    1.7517 Cl      1  UNL1       -0.0805
     14 C          -1.8293   -2.3313    2.0777 C.ar    1  UNL1        0.1473
     15 F          -2.8854   -2.8622    2.7494 F       1  UNL1       -0.2036
     16 C          -1.6613   -0.9793    1.9152 C.ar    1  UNL1        0.0213
     17 C          -2.6732   -0.0188    2.4790 C.3     1  UNL1        0.1285
     18 C          -2.6025   -0.1666    3.9856 C.3     1  UNL1        0.1199
     19 F          -3.4935    0.6725    4.6220 F       1  UNL1       -0.2462
     20 N          -2.1974    1.3118    2.1418 N.2     1  UNL1       -0.2225
     21 C          -2.5095    1.8312    1.0234 C.2     1  UNL1        0.2763
     22 N          -2.0086    3.1519    0.7428 N.pl3   1  UNL1       -0.3134
     23 O          -3.2946    1.1213    0.1530 O.2     1  UNL1       -0.4622
     24 C          -4.3696    0.3830    0.6469 C.3     1  UNL1        0.1090
     25 C          -5.0966    0.7303    1.8916 C.3     1  UNL1       -0.0065
     26 C          -4.0226   -0.2896    1.9269 C.3     1  UNL1        0.0315
     27 C          -0.5465   -0.4996    1.2185 C.ar    1  UNL1       -0.0321
     28 C           2.8241    0.2124   -3.4010 C.ar    1  UNL1        0.0619
     29 N           3.9628    0.7118   -3.9567 N.ar    1  UNL1       -0.2178
     30 H           6.8344    2.6566   -5.4454 H       1  UNL1        0.0660
     31 H           5.1868    1.9889   -5.5474 H       1  UNL1        0.0660
     32 H           6.6523    0.9316   -5.8224 H       1  UNL1        0.0660
     33 H           5.8777    0.9440   -1.2751 H       1  UNL1        0.0884
     34 H           2.3872   -0.6034    0.5275 H       1  UNL1        0.1552
     35 H           0.9573   -3.3531    0.4351 H       1  UNL1        0.0652
     36 H          -2.7095   -1.2136    4.3015 H       1  UNL1        0.0643
     37 H          -1.5837    0.1590    4.2824 H       1  UNL1        0.0643
     38 H          -2.1732    3.8983    1.4276 H       1  UNL1        0.1466
     39 H          -1.5027    3.2855   -0.1433 H       1  UNL1        0.1466
     40 H          -4.9199   -0.1811   -0.1609 H       1  UNL1        0.0737
     41 H          -4.9766    1.7237    2.3607 H       1  UNL1        0.0306
     42 H          -6.1334    0.3413    1.9633 H       1  UNL1        0.0306
     43 H          -4.3360   -1.3694    1.9422 H       1  UNL1        0.0365
     44 H          -0.4099    0.5676    1.0896 H       1  UNL1        0.0640
     45 H           1.9634    0.0062   -4.0008 H       1  UNL1        0.0854
@<TRIPOS>BOND
     1     1     2    1
     2     2     3    1
     3     3     4   ar
     4     4     5   ar
     5     5     6   ar
     6     6     7    1
     7     7     8    2
     8     7     9   am
     9     9    10    1
    10    10    11   ar
    11    11    12   ar
    12    12    13    1
    13    12    14   ar
    14    14    15    1
    15    14    16   ar
    16    16    17    1
    17    17    18    1
    18    18    19    1
    19    17    20    1
    20    20    21    2
    21    21    22    1
    22    21    23    1
    23    23    24    1
    24    24    25    1
    25    25    26    1
    26    16    27   ar
    27     6    28   ar
    28    28    29   ar
    29    29     3   ar
    30    27    10   ar
    31    26    17    1
    32    26    24    1
    33     1    30    1
    34     1    31    1
    35     1    32    1
    36     4    33    1
    37     9    34    1
    38    11    35    1
    39    18    36    1
    40    18    37    1
    41    22    38    1
    42    22    39    1
    43    24    40    1
    44    25    41    1
    45    25    42    1
    46    26    43    1
    47    27    44    1
    48    28    45    1
