
     RDKit          3D

 34 37  0  0  0  0  0  0  0  0999 V2000
    4.3914    1.7295    2.4161 O   0  0  0  0  0  0  0  0  0  0  0  0
    4.1054    2.0084    0.8027 S   0  0  0  0  0  0  0  0  0  0  0  0
    5.4033    2.2706    0.1131 O   0  0  0  0  0  0  0  0  0  0  0  0
    3.1911    3.2141    0.6423 O   0  0  0  0  0  0  0  0  0  0  0  0
    3.3150    0.5878    0.1092 C   0  0  0  0  0  0  0  0  0  0  0  0
    4.1788   -0.3846   -0.4113 C   0  0  0  0  0  0  0  0  0  0  0  0
    3.6058   -1.5098   -0.9623 C   0  0  0  0  0  0  0  0  0  0  0  0
    2.2222   -1.6225   -0.9742 C   0  0  0  0  0  0  0  0  0  0  0  0
    1.5382   -2.7652   -1.5303 N   0  0  0  0  0  0  0  0  0  0  0  0
    0.1544   -2.4951   -1.3483 C   0  0  0  0  0  0  0  0  0  0  0  0
   -0.7384   -3.2791   -1.7160 O   0  0  0  0  0  0  0  0  0  0  0  0
    0.0408   -1.2207   -0.6994 C   0  0  0  0  0  0  0  0  0  0  0  0
   -1.0659   -0.6429   -0.3706 C   0  0  0  0  0  0  0  0  0  0  0  0
   -2.3760   -1.1284   -0.5735 N   0  0  0  0  0  0  0  0  0  0  0  0
   -3.3978   -0.2476   -0.0941 C   0  0  0  0  0  0  0  0  0  0  0  0
   -4.7677   -0.4015   -0.1272 C   0  0  0  0  0  0  0  0  0  0  0  0
   -5.4774    0.6286    0.4175 C   0  0  0  0  0  0  0  0  0  0  0  0
   -4.9096    1.7562    0.9697 C   0  0  0  0  0  0  0  0  0  0  0  0
   -3.5413    1.8186    0.9565 C   0  0  0  0  0  0  0  0  0  0  0  0
   -2.6902    0.8384    0.4324 C   0  0  0  0  0  0  0  0  0  0  0  0
   -1.2662    0.6171    0.2738 C   0  0  0  0  0  0  0  0  0  0  0  0
   -0.5681    1.5181    0.7070 O   0  0  0  0  0  0  0  0  0  0  0  0
    1.3531   -0.7023   -0.4798 C   0  0  0  0  0  0  0  0  0  0  0  0
    1.9586    0.3765    0.0466 C   0  0  0  0  0  0  0  0  0  0  0  0
    5.3262    1.4501    2.5932 H   0  0  0  0  0  0  0  0  0  0  0  0
    5.2499   -0.2657   -0.3862 H   0  0  0  0  0  0  0  0  0  0  0  0
    4.2784   -2.2330   -1.3505 H   0  0  0  0  0  0  0  0  0  0  0  0
    1.9301   -3.6323   -1.9821 H   0  0  0  0  0  0  0  0  0  0  0  0
   -2.5635   -2.0447   -1.0311 H   0  0  0  0  0  0  0  0  0  0  0  0
   -5.2182   -1.2669   -0.5505 H   0  0  0  0  0  0  0  0  0  0  0  0
   -6.5567    0.5680    0.4221 H   0  0  0  0  0  0  0  0  0  0  0  0
   -5.4891    2.5657    1.3984 H   0  0  0  0  0  0  0  0  0  0  0  0
   -3.0913    2.6996    1.3877 H   0  0  0  0  0  0  0  0  0  0  0  0
    1.4748    1.1948    0.4767 H   0  0  0  0  0  0  0  0  0  0  0  0
  1  2  1  0
  2  3  2  0
  2  4  2  0
  2  5  1  0
  5  6  2  0
  6  7  1  0
  7  8  2  0
  8  9  1  0
  9 10  1  0
 10 11  2  0
 10 12  1  0
 12 13  2  0
 13 14  1  0
 14 15  1  0
 15 16  2  0
 16 17  1  0
 17 18  2  0
 18 19  1  0
 19 20  2  0
 20 21  1  0
 21 22  2  0
 12 23  1  0
 23 24  2  0
 24  5  1  0
 23  8  1  0
 21 13  1  0
 20 15  1  0
  1 25  1  0
  6 26  1  0
  7 27  1  0
  9 28  1  0
 14 29  1  0
 16 30  1  0
 17 31  1  0
 18 32  1  0
 19 33  1  0
 24 34  1  0
M  END
$$$$
