
     RDKit          3D

 42 44  0  0  0  0  0  0  0  0999 V2000
   -6.1161    2.0041   -1.1937 C   0  0  0  0  0  0  0  0  0  0  0  0
   -6.0739    0.5558   -1.5750 C   0  0  0  0  0  0  0  0  0  0  0  0
   -5.2278   -0.1678   -0.5758 C   0  0  0  0  0  0  0  0  0  0  0  0
   -5.8113   -0.7138    0.5710 C   0  0  0  0  0  0  0  0  0  0  0  0
   -5.0241   -1.3793    1.4870 C   0  0  0  0  0  0  0  0  0  0  0  0
   -3.6760   -1.5075    1.2787 C   0  0  0  0  0  0  0  0  0  0  0  0
   -3.1178   -0.9657    0.1474 C   0  0  0  0  0  0  0  0  0  0  0  0
   -1.7189   -1.0841   -0.0944 N   0  0  0  0  0  0  0  0  0  0  0  0
   -0.8537   -0.0818    0.3926 C   0  0  0  0  0  0  0  0  0  0  0  0
   -1.2546    0.9320    1.0417 O   0  0  0  0  0  0  0  0  0  0  0  0
    0.6026   -0.1906    0.1494 C   0  0  0  0  0  0  0  0  0  0  0  0
    1.4819    0.7479    0.5969 C   0  0  0  0  0  0  0  0  0  0  0  0
    2.8142    0.6349    0.3665 C   0  0  0  0  0  0  0  0  0  0  0  0
    3.7183    1.6064    0.8304 O   0  0  0  0  0  0  0  0  0  0  0  0
    5.0760    1.4606    0.5773 C   0  0  0  0  0  0  0  0  0  0  0  0
    5.9057    0.7891    1.4518 C   0  0  0  0  0  0  0  0  0  0  0  0
    7.2060    0.6713    1.1707 N   0  0  0  0  0  0  0  0  0  0  0  0
    7.7808    1.1735    0.0667 C   0  0  0  0  0  0  0  0  0  0  0  0
    6.9696    1.8321   -0.7920 N   0  0  0  0  0  0  0  0  0  0  0  0
    5.6522    1.9828   -0.5626 C   0  0  0  0  0  0  0  0  0  0  0  0
    3.2710   -0.4575   -0.3360 C   0  0  0  0  0  0  0  0  0  0  0  0
    2.3891   -1.4271   -0.8015 C   0  0  0  0  0  0  0  0  0  0  0  0
    2.9031   -2.5992   -1.5582 C   0  0  0  0  0  0  0  0  0  0  0  0
    1.0835   -1.2466   -0.5344 N   0  0  0  0  0  0  0  0  0  0  0  0
   -3.9149   -0.3279   -0.7167 N   0  0  0  0  0  0  0  0  0  0  0  0
   -5.7224    2.1979   -0.1652 H   0  0  0  0  0  0  0  0  0  0  0  0
   -5.4515    2.6063   -1.8743 H   0  0  0  0  0  0  0  0  0  0  0  0
   -7.1331    2.4016   -1.3187 H   0  0  0  0  0  0  0  0  0  0  0  0
   -7.0937    0.1111   -1.6174 H   0  0  0  0  0  0  0  0  0  0  0  0
   -5.6481    0.4778   -2.5976 H   0  0  0  0  0  0  0  0  0  0  0  0
   -6.8697   -0.6097    0.7285 H   0  0  0  0  0  0  0  0  0  0  0  0
   -5.5094   -1.7975    2.3777 H   0  0  0  0  0  0  0  0  0  0  0  0
   -3.0436   -2.0363    2.0043 H   0  0  0  0  0  0  0  0  0  0  0  0
   -1.3544   -1.8939   -0.6182 H   0  0  0  0  0  0  0  0  0  0  0  0
    1.0949    1.5978    1.1473 H   0  0  0  0  0  0  0  0  0  0  0  0
    5.4600    0.3740    2.3532 H   0  0  0  0  0  0  0  0  0  0  0  0
    8.8394    1.0573   -0.1262 H   0  0  0  0  0  0  0  0  0  0  0  0
    5.0051    2.5145   -1.2587 H   0  0  0  0  0  0  0  0  0  0  0  0
    4.3121   -0.5917   -0.5432 H   0  0  0  0  0  0  0  0  0  0  0  0
    3.0731   -3.4052   -0.8163 H   0  0  0  0  0  0  0  0  0  0  0  0
    3.8458   -2.3353   -2.0753 H   0  0  0  0  0  0  0  0  0  0  0  0
    2.1307   -2.9103   -2.3129 H   0  0  0  0  0  0  0  0  0  0  0  0
  1  2  1  0
  2  3  1  0
  3  4  2  0
  4  5  1  0
  5  6  2  0
  6  7  1  0
  7  8  1  0
  8  9  1  0
  9 10  2  0
  9 11  1  0
 11 12  2  0
 12 13  1  0
 13 14  1  0
 14 15  1  0
 15 16  2  0
 16 17  1  0
 17 18  2  0
 18 19  1  0
 19 20  2  0
 13 21  2  0
 21 22  1  0
 22 23  1  0
 22 24  2  0
  7 25  2  0
 25  3  1  0
 24 11  1  0
 20 15  1  0
  1 26  1  0
  1 27  1  0
  1 28  1  0
  2 29  1  0
  2 30  1  0
  4 31  1  0
  5 32  1  0
  6 33  1  0
  8 34  1  0
 12 35  1  0
 16 36  1  0
 18 37  1  0
 20 38  1  0
 21 39  1  0
 23 40  1  0
 23 41  1  0
 23 42  1  0
M  END
$$$$
