@<TRIPOS>MOLECULE
*****
 42 44 0 0 0
SMALL
GASTEIGER

@<TRIPOS>ATOM
      1 C          -6.1161    2.0041   -1.1937 C.3     1  UNL1       -0.0598
      2 C          -6.0739    0.5558   -1.5750 C.3     1  UNL1       -0.0132
      3 C          -5.2278   -0.1678   -0.5758 C.ar    1  UNL1        0.0432
      4 C          -5.8113   -0.7138    0.5710 C.ar    1  UNL1       -0.0403
      5 C          -5.0241   -1.3793    1.4870 C.ar    1  UNL1       -0.0568
      6 C          -3.6760   -1.5075    1.2787 C.ar    1  UNL1       -0.0215
      7 C          -3.1178   -0.9657    0.1474 C.ar    1  UNL1        0.1254
      8 N          -1.7189   -1.0841   -0.0944 N.am    1  UNL1       -0.2651
      9 C          -0.8537   -0.0818    0.3926 C.2     1  UNL1        0.2678
     10 O          -1.2546    0.9320    1.0417 O.2     1  UNL1       -0.2681
     11 C           0.6026   -0.1906    0.1494 C.ar    1  UNL1        0.1295
     12 C           1.4819    0.7479    0.5969 C.ar    1  UNL1        0.0112
     13 C           2.8142    0.6349    0.3665 C.ar    1  UNL1        0.1324
     14 O           3.7183    1.6064    0.8304 O.3     1  UNL1       -0.4529
     15 C           5.0760    1.4606    0.5773 C.ar    1  UNL1        0.1644
     16 C           5.9057    0.7891    1.4518 C.ar    1  UNL1        0.0730
     17 N           7.2060    0.6713    1.1707 N.ar    1  UNL1       -0.2401
     18 C           7.7808    1.1735    0.0667 C.ar    1  UNL1        0.1161
     19 N           6.9696    1.8321   -0.7920 N.ar    1  UNL1       -0.2401
     20 C           5.6522    1.9828   -0.5626 C.ar    1  UNL1        0.0730
     21 C           3.2710   -0.4575   -0.3360 C.ar    1  UNL1        0.0018
     22 C           2.3891   -1.4271   -0.8015 C.ar    1  UNL1        0.0426
     23 C           2.9031   -2.5992   -1.5582 C.3     1  UNL1       -0.0222
     24 N           1.0835   -1.2466   -0.5344 N.ar    1  UNL1       -0.2470
     25 N          -3.9149   -0.3279   -0.7167 N.ar    1  UNL1       -0.2368
     26 H          -5.7224    2.1979   -0.1652 H       1  UNL1        0.0233
     27 H          -5.4515    2.6063   -1.8743 H       1  UNL1        0.0233
     28 H          -7.1331    2.4016   -1.3187 H       1  UNL1        0.0233
     29 H          -7.0937    0.1111   -1.6174 H       1  UNL1        0.0326
     30 H          -5.6481    0.4778   -2.5976 H       1  UNL1        0.0326
     31 H          -6.8697   -0.6097    0.7285 H       1  UNL1        0.0635
     32 H          -5.5094   -1.7975    2.3777 H       1  UNL1        0.0619
     33 H          -3.0436   -2.0363    2.0043 H       1  UNL1        0.0652
     34 H          -1.3544   -1.8939   -0.6182 H       1  UNL1        0.1566
     35 H           1.0949    1.5978    1.1473 H       1  UNL1        0.0677
     36 H           5.4600    0.3740    2.3532 H       1  UNL1        0.0868
     37 H           8.8394    1.0573   -0.1262 H       1  UNL1        0.1047
     38 H           5.0051    2.5145   -1.2587 H       1  UNL1        0.0868
     39 H           4.3121   -0.5917   -0.5432 H       1  UNL1        0.0672
     40 H           3.0731   -3.4052   -0.8163 H       1  UNL1        0.0293
     41 H           3.8458   -2.3353   -2.0753 H       1  UNL1        0.0293
     42 H           2.1307   -2.9103   -2.3129 H       1  UNL1        0.0293
@<TRIPOS>BOND
     1     1     2    1
     2     2     3    1
     3     3     4   ar
     4     4     5   ar
     5     5     6   ar
     6     6     7   ar
     7     7     8    1
     8     8     9   am
     9     9    10    2
    10     9    11    1
    11    11    12   ar
    12    12    13   ar
    13    13    14    1
    14    14    15    1
    15    15    16   ar
    16    16    17   ar
    17    17    18   ar
    18    18    19   ar
    19    19    20   ar
    20    13    21   ar
    21    21    22   ar
    22    22    23    1
    23    22    24   ar
    24     7    25   ar
    25    25     3   ar
    26    24    11   ar
    27    20    15   ar
    28     1    26    1
    29     1    27    1
    30     1    28    1
    31     2    29    1
    32     2    30    1
    33     4    31    1
    34     5    32    1
    35     6    33    1
    36     8    34    1
    37    12    35    1
    38    16    36    1
    39    18    37    1
    40    20    38    1
    41    21    39    1
    42    23    40    1
    43    23    41    1
    44    23    42    1
