@<TRIPOS>MOLECULE
*****
 38 41 0 0 0
SMALL
GASTEIGER

@<TRIPOS>ATOM
      1 N           7.9389    1.4424   -1.0464 N.1     1  UNL1       -0.1908
      2 C           7.0289    0.7253   -0.5515 C.1     1  UNL1        0.1008
      3 C           5.9998   -0.1132    0.0011 C.ar    1  UNL1        0.0733
      4 C           6.1696   -0.5589    1.2274 C.ar    1  UNL1        0.0452
      5 N           5.1834   -1.3545    1.8265 N.ar    1  UNL1       -0.2583
      6 C           4.0894   -1.5967    1.0254 C.ar    1  UNL1        0.0699
      7 C           3.9168   -1.1346   -0.2385 C.ar    1  UNL1        0.1477
      8 O           2.7190   -1.4612   -0.9279 O.3     1  UNL1       -0.4529
      9 C           1.6562   -0.5592   -0.7699 C.ar    1  UNL1        0.1474
     10 C           0.3571   -0.8005   -1.0833 C.ar    1  UNL1       -0.0021
     11 C          -0.5812    0.1517   -0.8880 C.ar    1  UNL1        0.0847
     12 C          -2.0359   -0.0304   -1.0962 C.2     1  UNL1        0.2530
     13 O          -2.5517    0.0684   -2.2271 O.2     1  UNL1       -0.2697
     14 N          -2.8711   -0.3203   -0.0117 N.am    1  UNL1       -0.2663
     15 C          -4.2724   -0.5124    0.0366 C.ar    1  UNL1        0.1253
     16 C          -4.8451   -0.6951    1.2889 C.ar    1  UNL1       -0.0188
     17 C          -6.2104   -0.8646    1.3745 C.ar    1  UNL1       -0.0217
     18 C          -7.0025   -0.8551    0.2599 C.ar    1  UNL1        0.1415
     19 F          -8.3535   -1.0240    0.3835 F       1  UNL1       -0.2039
     20 C          -6.4242   -0.6740   -0.9853 C.ar    1  UNL1        0.0649
     21 N          -5.0519   -0.5061   -1.0359 N.ar    1  UNL1       -0.2373
     22 C          -0.2712    1.4170   -0.3635 C.ar    1  UNL1        0.1680
     23 N          -0.9766    2.5377   -0.0719 N.ar    1  UNL1       -0.2141
     24 C          -0.1394    3.4603    0.4227 C.ar    1  UNL1        0.1390
     25 N           1.0710    2.8991    0.4286 N.ar    1  UNL1       -0.1534
     26 N           1.0111    1.6484   -0.0542 N.ar    1  UNL1       -0.2161
     27 C           1.9491    0.7203   -0.2401 C.ar    1  UNL1        0.0737
     28 C           4.8679   -0.3582   -0.8421 C.ar    1  UNL1        0.0010
     29 H           7.0956   -0.3292    1.8169 H       1  UNL1        0.0842
     30 H           3.3259   -2.2191    1.5049 H       1  UNL1        0.0867
     31 H           0.0681   -1.7672   -1.4940 H       1  UNL1        0.0663
     32 H          -2.3213   -0.4012    0.9292 H       1  UNL1        0.1566
     33 H          -4.2466   -0.6863    2.1794 H       1  UNL1        0.0653
     34 H          -6.7141   -1.0206    2.3399 H       1  UNL1        0.0648
     35 H          -6.9988   -0.6555   -1.8761 H       1  UNL1        0.0859
     36 H          -0.3974    4.4795    0.7586 H       1  UNL1        0.1066
     37 H           2.9791    0.9087    0.0034 H       1  UNL1        0.0868
     38 H           4.8384    0.0394   -1.8064 H       1  UNL1        0.0668
@<TRIPOS>BOND
     1     1     2    3
     2     2     3    1
     3     3     4   ar
     4     4     5   ar
     5     5     6   ar
     6     6     7   ar
     7     7     8    1
     8     8     9    1
     9     9    10   ar
    10    10    11   ar
    11    11    12    1
    12    12    13    2
    13    12    14   am
    14    14    15    1
    15    15    16   ar
    16    16    17   ar
    17    17    18   ar
    18    18    19    1
    19    18    20   ar
    20    20    21   ar
    21    11    22   ar
    22    22    23   ar
    23    23    24   ar
    24    24    25   ar
    25    25    26   ar
    26    26    27   ar
    27     7    28   ar
    28    28     3   ar
    29    27     9   ar
    30    21    15   ar
    31    26    22   ar
    32     4    29    1
    33     6    30    1
    34    10    31    1
    35    14    32    1
    36    16    33    1
    37    17    34    1
    38    20    35    1
    39    24    36    1
    40    27    37    1
    41    28    38    1
