@<TRIPOS>MOLECULE
*****
 72 77 0 0 0
SMALL
GASTEIGER

@<TRIPOS>ATOM
      1 C           4.5420    3.2120   -1.2526 C.3     1  UNL1       -0.0391
      2 C           5.7351    2.5244   -0.6834 C.ar    1  UNL1       -0.0420
      3 C           6.9982    3.0768   -0.8860 C.ar    1  UNL1       -0.0443
      4 C           8.1406    2.4875   -0.3954 C.ar    1  UNL1        0.0591
      5 C           9.4622    3.0647   -0.6076 C.2     1  UNL1        0.3368
      6 O           9.5843    4.1335   -1.2549 O.2     1  UNL1       -0.2451
      7 O          10.6104    2.4725   -0.1161 O.3     1  UNL1       -0.4771
      8 C           7.9660    1.3169    0.3098 C.ar    1  UNL1       -0.0472
      9 C           6.7315    0.7526    0.5232 C.ar    1  UNL1       -0.0530
     10 C           5.5755    1.3586    0.0209 C.ar    1  UNL1       -0.0149
     11 C           4.2655    0.7397    0.2693 C.ar    1  UNL1       -0.0175
     12 C           3.1677    1.4104    0.7361 C.ar    1  UNL1       -0.0523
     13 C           1.9343    0.7893    0.9545 C.ar    1  UNL1       -0.0392
     14 C           1.8374   -0.5534    0.6841 C.ar    1  UNL1        0.0455
     15 N           0.6049   -1.2247    0.8935 N.am    1  UNL1       -0.1920
     16 C           0.2699   -2.5892    0.6743 C.2     1  UNL1        0.3219
     17 O           1.0278   -3.5086    0.2330 O.2     1  UNL1       -0.2512
     18 N          -1.1126   -2.8218    1.0327 N.am    1  UNL1       -0.2229
     19 C          -1.6445   -4.0831    1.4110 C.ar    1  UNL1        0.1478
     20 C          -2.1622   -4.9443    0.4653 C.ar    1  UNL1        0.0679
     21 N          -2.6799   -6.1498    0.7569 N.ar    1  UNL1       -0.2583
     22 C          -2.7077   -6.5649    2.0310 C.ar    1  UNL1        0.0458
     23 C          -2.1988   -5.7302    3.0026 C.ar    1  UNL1        0.0478
     24 N          -1.6807   -4.5173    2.6873 N.ar    1  UNL1       -0.2368
     25 C          -1.7416   -1.5258    0.9086 C.3     1  UNL1        0.1240
     26 C          -2.9768   -1.3711    1.7120 C.3     1  UNL1       -0.0095
     27 C          -4.1971   -1.4711    0.8083 C.3     1  UNL1        0.0017
     28 N          -4.2280   -0.2764    0.0116 N.3     1  UNL1       -0.2965
     29 C          -5.4102   -0.1772   -0.8053 C.3     1  UNL1        0.0415
     30 C          -5.3604    1.0788   -1.5879 C.ar    1  UNL1        0.0581
     31 N          -5.0566    1.0900   -2.9113 N.ar    1  UNL1       -0.2583
     32 C          -5.0047    2.2068   -3.6425 C.ar    1  UNL1        0.0279
     33 C          -5.2711    3.4149   -3.0337 C.ar    1  UNL1       -0.0433
     34 C          -5.5845    3.4511   -1.6903 C.ar    1  UNL1       -0.0557
     35 C          -5.6306    2.2820   -0.9608 C.ar    1  UNL1       -0.0279
     36 C          -5.9663    2.3014    0.4875 C.3     1  UNL1       -0.0380
     37 C          -3.0410   -0.1807   -0.7810 C.3     1  UNL1        0.0017
     38 C          -2.0416   -1.2690   -0.5432 C.3     1  UNL1       -0.0095
     39 C          -0.6218   -0.6510    1.3941 C.2     1  UNL1        0.2516
     40 O          -0.7558    0.3613    2.0890 O.2     1  UNL1       -0.2724
     41 C           2.9349   -1.2307    0.2162 C.ar    1  UNL1       -0.0392
     42 C           4.1689   -0.6093   -0.0025 C.ar    1  UNL1       -0.0523
     43 H           4.7976    3.6104   -2.2811 H       1  UNL1        0.0278
     44 H           3.6950    2.5142   -1.3974 H       1  UNL1        0.0278
     45 H           4.2173    4.0109   -0.5807 H       1  UNL1        0.0278
     46 H           7.0935    3.9980   -1.4457 H       1  UNL1        0.0628
     47 H          11.4090    3.0288    0.2172 H       1  UNL1        0.2954
     48 H           8.8709    0.8390    0.7051 H       1  UNL1        0.0626
     49 H           6.6088   -0.1707    1.0811 H       1  UNL1        0.0624
     50 H           3.2620    2.4599    0.9479 H       1  UNL1        0.0624
     51 H           1.1445    1.4010    1.3173 H       1  UNL1        0.0636
     52 H          -2.1229   -4.5714   -0.5684 H       1  UNL1        0.0865
     53 H          -3.1158   -7.5324    2.3232 H       1  UNL1        0.0845
     54 H          -2.1906   -6.0064    4.0581 H       1  UNL1        0.0846
     55 H          -3.0546   -2.0260    2.5962 H       1  UNL1        0.0303
     56 H          -2.9918   -0.3167    2.1119 H       1  UNL1        0.0303
     57 H          -5.1322   -1.5114    1.3900 H       1  UNL1        0.0427
     58 H          -4.1726   -2.3397    0.1468 H       1  UNL1        0.0427
     59 H          -6.3411   -0.2873   -0.2525 H       1  UNL1        0.0491
     60 H          -5.3526   -1.0261   -1.5473 H       1  UNL1        0.0491
     61 H          -4.7521    2.1464   -4.7110 H       1  UNL1        0.0829
     62 H          -5.2244    4.3107   -3.6420 H       1  UNL1        0.0633
     63 H          -5.7934    4.4142   -1.2205 H       1  UNL1        0.0621
     64 H          -5.0543    1.9576    1.0251 H       1  UNL1        0.0278
     65 H          -6.1398    3.3507    0.8080 H       1  UNL1        0.0278
     66 H          -6.8583    1.6953    0.7143 H       1  UNL1        0.0278
     67 H          -2.5158    0.7990   -0.6290 H       1  UNL1        0.0427
     68 H          -3.3118   -0.2098   -1.8573 H       1  UNL1        0.0427
     69 H          -1.0802   -0.9334   -1.0147 H       1  UNL1        0.0303
     70 H          -2.3065   -2.2116   -1.0664 H       1  UNL1        0.0303
     71 H           2.9230   -2.2823   -0.0137 H       1  UNL1        0.0636
     72 H           5.0066   -1.1861   -0.3727 H       1  UNL1        0.0624
@<TRIPOS>BOND
     1     1     2    1
     2     2     3   ar
     3     3     4   ar
     4     4     5    1
     5     5     6    2
     6     5     7    1
     7     4     8   ar
     8     8     9   ar
     9     9    10   ar
    10    10    11    1
    11    11    12   ar
    12    12    13   ar
    13    13    14   ar
    14    14    15    1
    15    15    16   am
    16    16    17    2
    17    16    18   am
    18    18    19    1
    19    19    20   ar
    20    20    21   ar
    21    21    22   ar
    22    22    23   ar
    23    23    24   ar
    24    18    25    1
    25    25    26    1
    26    26    27    1
    27    27    28    1
    28    28    29    1
    29    29    30    1
    30    30    31   ar
    31    31    32   ar
    32    32    33   ar
    33    33    34   ar
    34    34    35   ar
    35    35    36    1
    36    28    37    1
    37    37    38    1
    38    25    39    1
    39    39    40    2
    40    14    41   ar
    41    41    42   ar
    42    10     2   ar
    43    42    11   ar
    44    39    15   am
    45    24    19   ar
    46    38    25    1
    47    35    30   ar
    48     1    43    1
    49     1    44    1
    50     1    45    1
    51     3    46    1
    52     7    47    1
    53     8    48    1
    54     9    49    1
    55    12    50    1
    56    13    51    1
    57    20    52    1
    58    22    53    1
    59    23    54    1
    60    26    55    1
    61    26    56    1
    62    27    57    1
    63    27    58    1
    64    29    59    1
    65    29    60    1
    66    32    61    1
    67    33    62    1
    68    34    63    1
    69    36    64    1
    70    36    65    1
    71    36    66    1
    72    37    67    1
    73    37    68    1
    74    38    69    1
    75    38    70    1
    76    41    71    1
    77    42    72    1
