@<TRIPOS>MOLECULE
*****
 56 60 0 0 0
SMALL
GASTEIGER

@<TRIPOS>ATOM
      1 C          -2.3930   -2.6247   -0.6076 C.3     1  UNL1        0.0790
      2 O          -1.4378   -1.6378   -0.5518 O.3     1  UNL1       -0.4914
      3 C          -1.5383   -0.4161    0.0582 C.ar    1  UNL1        0.1623
      4 C          -2.6881   -0.0589    0.7085 C.ar    1  UNL1       -0.0038
      5 C          -2.8157    1.1483    1.3269 C.ar    1  UNL1        0.0441
      6 C          -3.9650    1.4711    1.9857 C.ar    1  UNL1        0.1340
      7 N          -5.1519    0.7295    2.0522 N.pl3   1  UNL1       -0.2977
      8 C          -5.7574   -0.0538    1.0660 C.ar    1  UNL1        0.0524
      9 C          -6.0819   -1.3981    1.1851 C.ar    1  UNL1       -0.0379
     10 C          -6.6804   -2.0843    0.1562 C.ar    1  UNL1       -0.0445
     11 C          -6.9911   -1.4893   -1.0419 C.ar    1  UNL1        0.0377
     12 BR         -7.8119   -2.4635   -2.4401 Br      1  UNL1       -0.0487
     13 C          -6.6757   -0.1579   -1.1753 C.ar    1  UNL1        0.0750
     14 CL         -7.0405    0.6666   -2.6829 Cl      1  UNL1       -0.0808
     15 C          -6.0840    0.5327   -0.1679 C.ar    1  UNL1        0.0814
     16 CL         -5.6887    2.2383   -0.3670 Cl      1  UNL1       -0.0801
     17 N          -4.0156    2.7063    2.6141 N.ar    1  UNL1       -0.2200
     18 C          -2.9628    3.5102    2.5484 C.ar    1  UNL1        0.1187
     19 N          -1.8312    3.1925    1.8980 N.ar    1  UNL1       -0.2352
     20 C          -1.7156    2.0154    1.2705 C.ar    1  UNL1        0.0797
     21 C          -0.5569    1.6529    0.6129 C.ar    1  UNL1        0.0098
     22 C          -0.4074    0.4385   -0.0186 C.ar    1  UNL1        0.1640
     23 O           0.6378    0.0486   -0.6406 O.3     1  UNL1       -0.4878
     24 C           1.6973   -0.3455   -1.2706 C.3     1  UNL1        0.0971
     25 C           2.9076   -0.3820   -0.3605 C.3     1  UNL1        0.0453
     26 C           3.2915    0.9197    0.2302 C.3     1  UNL1        0.0566
     27 O           4.6428    0.8993    0.4253 O.3     1  UNL1       -0.3709
     28 C           5.1747   -0.2962    0.0031 C.3     1  UNL1        0.1133
     29 C           6.4471   -0.0985   -0.7870 C.3     1  UNL1        0.1100
     30 O           7.3318   -1.1029   -0.3962 O.3     1  UNL1       -0.3748
     31 C           8.4950   -0.5536    0.0847 C.3     1  UNL1        0.0370
     32 C           5.9606   -0.3187   -2.2104 C.3     1  UNL1        0.0768
     33 O           4.5563   -0.1514   -2.1410 O.3     1  UNL1       -0.3708
     34 C           4.1693   -0.8488   -1.0158 C.3     1  UNL1        0.0954
     35 H          -3.0218   -2.5721   -1.5418 H       1  UNL1        0.0660
     36 H          -3.0643   -2.5683    0.2663 H       1  UNL1        0.0660
     37 H          -1.8317   -3.6144   -0.6040 H       1  UNL1        0.0660
     38 H          -3.5302   -0.7252    0.7638 H       1  UNL1        0.0663
     39 H          -5.6590    0.7676    2.9984 H       1  UNL1        0.1536
     40 H          -5.8358   -1.8678    2.1216 H       1  UNL1        0.0637
     41 H          -6.9135   -3.1248    0.2922 H       1  UNL1        0.0630
     42 H          -3.0645    4.4788    3.0681 H       1  UNL1        0.1048
     43 H           0.2557    2.3613    0.6077 H       1  UNL1        0.0677
     44 H           1.5900   -1.4390   -1.5996 H       1  UNL1        0.0701
     45 H           1.9657    0.1522   -2.2481 H       1  UNL1        0.0701
     46 H           2.7171   -1.0994    0.4842 H       1  UNL1        0.0382
     47 H           3.0506    1.7346   -0.5088 H       1  UNL1        0.0565
     48 H           2.7012    1.0609    1.1704 H       1  UNL1        0.0565
     49 H           5.2449   -1.0409    0.7998 H       1  UNL1        0.0649
     50 H           6.9013    0.8835   -0.6236 H       1  UNL1        0.0646
     51 H           9.1728   -1.3976    0.3939 H       1  UNL1        0.0524
     52 H           8.3731    0.0947    0.9605 H       1  UNL1        0.0524
     53 H           9.0720    0.0208   -0.6766 H       1  UNL1        0.0524
     54 H           6.1905   -1.3801   -2.4790 H       1  UNL1        0.0587
     55 H           6.4154    0.4094   -2.8893 H       1  UNL1        0.0587
     56 H           4.2498   -1.9434   -1.1070 H       1  UNL1        0.0627
@<TRIPOS>BOND
     1     1     2    1
     2     2     3    1
     3     3     4   ar
     4     4     5   ar
     5     5     6   ar
     6     6     7    1
     7     7     8    1
     8     8     9   ar
     9     9    10   ar
    10    10    11   ar
    11    11    12    1
    12    11    13   ar
    13    13    14    1
    14    13    15   ar
    15    15    16    1
    16     6    17   ar
    17    17    18   ar
    18    18    19   ar
    19    19    20   ar
    20    20    21   ar
    21    21    22   ar
    22    22    23    1
    23    23    24    1
    24    24    25    1
    25    25    26    1
    26    26    27    1
    27    27    28    1
    28    28    29    1
    29    29    30    1
    30    30    31    1
    31    29    32    1
    32    32    33    1
    33    33    34    1
    34    22     3   ar
    35    34    25    1
    36    20     5   ar
    37    34    28    1
    38    15     8   ar
    39     1    35    1
    40     1    36    1
    41     1    37    1
    42     4    38    1
    43     7    39    1
    44     9    40    1
    45    10    41    1
    46    18    42    1
    47    21    43    1
    48    24    44    1
    49    24    45    1
    50    25    46    1
    51    26    47    1
    52    26    48    1
    53    28    49    1
    54    29    50    1
    55    31    51    1
    56    31    52    1
    57    31    53    1
    58    32    54    1
    59    32    55    1
    60    34    56    1
