
     RDKit          3D

 56 60  0  0  0  0  0  0  0  0999 V2000
   -2.3930   -2.6247   -0.6076 C   0  0  0  0  0  0  0  0  0  0  0  0
   -1.4378   -1.6378   -0.5518 O   0  0  0  0  0  0  0  0  0  0  0  0
   -1.5383   -0.4161    0.0582 C   0  0  0  0  0  0  0  0  0  0  0  0
   -2.6881   -0.0589    0.7085 C   0  0  0  0  0  0  0  0  0  0  0  0
   -2.8157    1.1483    1.3269 C   0  0  0  0  0  0  0  0  0  0  0  0
   -3.9650    1.4711    1.9857 C   0  0  0  0  0  0  0  0  0  0  0  0
   -5.1519    0.7295    2.0522 N   0  0  0  0  0  0  0  0  0  0  0  0
   -5.7574   -0.0538    1.0660 C   0  0  0  0  0  0  0  0  0  0  0  0
   -6.0819   -1.3981    1.1851 C   0  0  0  0  0  0  0  0  0  0  0  0
   -6.6804   -2.0843    0.1562 C   0  0  0  0  0  0  0  0  0  0  0  0
   -6.9911   -1.4893   -1.0419 C   0  0  0  0  0  0  0  0  0  0  0  0
   -7.8119   -2.4635   -2.4401 Br  0  0  0  0  0  0  0  0  0  0  0  0
   -6.6757   -0.1579   -1.1753 C   0  0  0  0  0  0  0  0  0  0  0  0
   -7.0405    0.6666   -2.6829 Cl  0  0  0  0  0  0  0  0  0  0  0  0
   -6.0840    0.5327   -0.1679 C   0  0  0  0  0  0  0  0  0  0  0  0
   -5.6887    2.2383   -0.3670 Cl  0  0  0  0  0  0  0  0  0  0  0  0
   -4.0156    2.7063    2.6141 N   0  0  0  0  0  0  0  0  0  0  0  0
   -2.9628    3.5102    2.5484 C   0  0  0  0  0  0  0  0  0  0  0  0
   -1.8312    3.1925    1.8980 N   0  0  0  0  0  0  0  0  0  0  0  0
   -1.7156    2.0154    1.2705 C   0  0  0  0  0  0  0  0  0  0  0  0
   -0.5569    1.6529    0.6129 C   0  0  0  0  0  0  0  0  0  0  0  0
   -0.4074    0.4385   -0.0186 C   0  0  0  0  0  0  0  0  0  0  0  0
    0.6378    0.0486   -0.6406 O   0  0  0  0  0  0  0  0  0  0  0  0
    1.6973   -0.3455   -1.2706 C   0  0  0  0  0  0  0  0  0  0  0  0
    2.9076   -0.3820   -0.3605 C   0  0  2  0  0  0  0  0  0  0  0  0
    3.2915    0.9197    0.2302 C   0  0  0  0  0  0  0  0  0  0  0  0
    4.6428    0.8993    0.4253 O   0  0  0  0  0  0  0  0  0  0  0  0
    5.1747   -0.2962    0.0031 C   0  0  2  0  0  0  0  0  0  0  0  0
    6.4471   -0.0985   -0.7870 C   0  0  1  0  0  0  0  0  0  0  0  0
    7.3318   -1.1029   -0.3962 O   0  0  0  0  0  0  0  0  0  0  0  0
    8.4950   -0.5536    0.0847 C   0  0  0  0  0  0  0  0  0  0  0  0
    5.9606   -0.3187   -2.2104 C   0  0  0  0  0  0  0  0  0  0  0  0
    4.5563   -0.1514   -2.1410 O   0  0  0  0  0  0  0  0  0  0  0  0
    4.1693   -0.8488   -1.0158 C   0  0  2  0  0  0  0  0  0  0  0  0
   -3.0218   -2.5721   -1.5418 H   0  0  0  0  0  0  0  0  0  0  0  0
   -3.0643   -2.5683    0.2663 H   0  0  0  0  0  0  0  0  0  0  0  0
   -1.8317   -3.6144   -0.6040 H   0  0  0  0  0  0  0  0  0  0  0  0
   -3.5302   -0.7252    0.7638 H   0  0  0  0  0  0  0  0  0  0  0  0
   -5.6590    0.7676    2.9984 H   0  0  0  0  0  0  0  0  0  0  0  0
   -5.8358   -1.8678    2.1216 H   0  0  0  0  0  0  0  0  0  0  0  0
   -6.9135   -3.1248    0.2922 H   0  0  0  0  0  0  0  0  0  0  0  0
   -3.0645    4.4788    3.0681 H   0  0  0  0  0  0  0  0  0  0  0  0
    0.2557    2.3613    0.6077 H   0  0  0  0  0  0  0  0  0  0  0  0
    1.5900   -1.4390   -1.5996 H   0  0  0  0  0  0  0  0  0  0  0  0
    1.9657    0.1522   -2.2481 H   0  0  0  0  0  0  0  0  0  0  0  0
    2.7171   -1.0994    0.4842 H   0  0  0  0  0  0  0  0  0  0  0  0
    3.0506    1.7346   -0.5088 H   0  0  0  0  0  0  0  0  0  0  0  0
    2.7012    1.0609    1.1704 H   0  0  0  0  0  0  0  0  0  0  0  0
    5.2449   -1.0409    0.7998 H   0  0  0  0  0  0  0  0  0  0  0  0
    6.9013    0.8835   -0.6236 H   0  0  0  0  0  0  0  0  0  0  0  0
    9.1728   -1.3976    0.3939 H   0  0  0  0  0  0  0  0  0  0  0  0
    8.3731    0.0947    0.9605 H   0  0  0  0  0  0  0  0  0  0  0  0
    9.0720    0.0208   -0.6766 H   0  0  0  0  0  0  0  0  0  0  0  0
    6.1905   -1.3801   -2.4790 H   0  0  0  0  0  0  0  0  0  0  0  0
    6.4154    0.4094   -2.8893 H   0  0  0  0  0  0  0  0  0  0  0  0
    4.2498   -1.9434   -1.1070 H   0  0  0  0  0  0  0  0  0  0  0  0
  1  2  1  0
  2  3  1  0
  3  4  2  0
  4  5  1  0
  5  6  2  0
  6  7  1  0
  7  8  1  0
  8  9  2  0
  9 10  1  0
 10 11  2  0
 11 12  1  0
 11 13  1  0
 13 14  1  0
 13 15  2  0
 15 16  1  0
  6 17  1  0
 17 18  2  0
 18 19  1  0
 19 20  2  0
 20 21  1  0
 21 22  2  0
 22 23  1  0
 23 24  1  0
 24 25  1  0
 25 26  1  0
 26 27  1  0
 27 28  1  0
 28 29  1  0
 29 30  1  0
 30 31  1  0
 29 32  1  0
 32 33  1  0
 33 34  1  0
 22  3  1  0
 34 25  1  0
 20  5  1  0
 34 28  1  0
 15  8  1  0
  1 35  1  0
  1 36  1  0
  1 37  1  0
  4 38  1  0
  7 39  1  0
  9 40  1  0
 10 41  1  0
 18 42  1  0
 21 43  1  0
 24 44  1  0
 24 45  1  0
 25 46  1  1
 26 47  1  0
 26 48  1  0
 28 49  1  1
 29 50  1  6
 31 51  1  0
 31 52  1  0
 31 53  1  0
 32 54  1  0
 32 55  1  0
 34 56  1  6
M  END
$$$$
