@<TRIPOS>MOLECULE
*****
 67 71 0 0 0
SMALL
GASTEIGER

@<TRIPOS>ATOM
      1 C          -8.6246   -3.0823   -1.4026 C.3     1  UNL1        0.0805
      2 O          -7.6498   -2.1172   -1.0587 O.3     1  UNL1       -0.4774
      3 C          -8.0601   -0.8428   -0.6966 C.ar    1  UNL1        0.2552
      4 N          -9.2956   -0.3445   -0.6134 N.ar    1  UNL1       -0.1317
      5 N          -9.2639    0.9153   -0.2317 N.ar    1  UNL1       -0.2692
      6 C         -10.4161    1.7953   -0.0287 C.3     1  UNL1        0.0304
      7 C          -7.9507    1.2465   -0.0606 C.ar    1  UNL1        0.0503
      8 C          -7.1675    0.1670   -0.3437 C.ar    1  UNL1        0.1152
      9 N          -5.7706    0.0610   -0.2992 N.pl3   1  UNL1       -0.2782
     10 C          -4.9312    1.1311    0.0673 C.ar    1  UNL1        0.2202
     11 N          -5.4008    2.3526    0.4035 N.ar    1  UNL1       -0.2212
     12 C          -4.6082    3.3563    0.7476 C.ar    1  UNL1        0.0516
     13 C          -3.2283    3.1434    0.7638 C.ar    1  UNL1        0.0851
     14 CL         -2.2415    4.4916    1.2219 Cl      1  UNL1       -0.0797
     15 C          -2.7236    1.9192    0.4287 C.ar    1  UNL1        0.0963
     16 C          -1.2910    1.6280    0.4249 C.ar    1  UNL1        0.0270
     17 C          -0.2123    2.4102    0.7184 C.ar    1  UNL1        0.0120
     18 N           0.9448    1.6907    0.5718 N.ar    1  UNL1       -0.3586
     19 C           0.6451    0.4373    0.1835 C.ar    1  UNL1        0.0686
     20 C           1.4561   -0.6641   -0.0958 C.ar    1  UNL1        0.0576
     21 N           2.8565   -0.4732    0.0407 N.am    1  UNL1       -0.2825
     22 C           3.5669   -0.6948    1.2272 C.2     1  UNL1        0.2342
     23 O           2.8661   -1.0915    2.2216 O.2     1  UNL1       -0.2738
     24 C           5.0026   -0.5238    1.4497 C.3     1  UNL1        0.0848
     25 C           5.5078   -1.7738    2.1514 C.3     1  UNL1       -0.0409
     26 N           5.7816   -0.1508    0.3322 N.3     1  UNL1       -0.2893
     27 C           5.8428   -1.0191   -0.7682 C.3     1  UNL1        0.0124
     28 C           7.1666   -1.6855   -1.0036 C.3     1  UNL1        0.0114
     29 N           8.2943   -0.8413   -0.6969 N.3     1  UNL1       -0.3029
     30 C           8.5490    0.1395   -1.7306 C.3     1  UNL1       -0.0127
     31 C           8.1861   -0.2200    0.6013 C.3     1  UNL1        0.0114
     32 C           6.9459    0.6197    0.6125 C.3     1  UNL1        0.0124
     33 C           0.8641   -1.8196   -0.4716 C.ar    1  UNL1       -0.0384
     34 C          -0.5058   -1.8993   -0.5738 C.ar    1  UNL1       -0.0593
     35 C          -1.3216   -0.7978   -0.2948 C.ar    1  UNL1       -0.0518
     36 C          -0.7279    0.3790    0.0875 C.ar    1  UNL1        0.0107
     37 N          -3.6045    0.9395    0.0866 N.ar    1  UNL1       -0.2127
     38 H          -8.1811   -3.8487   -2.0403 H       1  UNL1        0.0660
     39 H          -8.9759   -3.5900   -0.4757 H       1  UNL1        0.0660
     40 H          -9.5143   -2.6111   -1.8905 H       1  UNL1        0.0660
     41 H         -10.4073    2.5222   -0.8495 H       1  UNL1        0.0473
     42 H         -11.3318    1.2113    0.0739 H       1  UNL1        0.0473
     43 H         -10.1946    2.3345    0.9348 H       1  UNL1        0.0473
     44 H          -7.6795    2.2402    0.2538 H       1  UNL1        0.0846
     45 H          -5.3111   -0.8576   -0.5495 H       1  UNL1        0.1552
     46 H          -5.0160    4.3421    1.0175 H       1  UNL1        0.0846
     47 H          -0.2163    3.4333    1.0210 H       1  UNL1        0.0814
     48 H           1.9016    2.0659    0.7376 H       1  UNL1        0.1654
     49 H           3.3821   -0.1457   -0.7962 H       1  UNL1        0.1549
     50 H           5.1168    0.2987    2.2178 H       1  UNL1        0.0556
     51 H           6.3261   -1.5251    2.8613 H       1  UNL1        0.0249
     52 H           4.6622   -2.1490    2.8001 H       1  UNL1        0.0249
     53 H           5.7397   -2.5857    1.4615 H       1  UNL1        0.0249
     54 H           5.0812   -1.8190   -0.6632 H       1  UNL1        0.0439
     55 H           5.5677   -0.4572   -1.7032 H       1  UNL1        0.0439
     56 H           7.2300   -2.6150   -0.4188 H       1  UNL1        0.0439
     57 H           7.2353   -1.9661   -2.0746 H       1  UNL1        0.0439
     58 H           7.6556    0.3241   -2.3579 H       1  UNL1        0.0391
     59 H           9.4488   -0.1073   -2.3314 H       1  UNL1        0.0391
     60 H           8.7766    1.1007   -1.2234 H       1  UNL1        0.0391
     61 H           9.0975    0.4180    0.7183 H       1  UNL1        0.0439
     62 H           8.1839   -0.9888    1.3787 H       1  UNL1        0.0439
     63 H           6.7889    1.1420    1.5809 H       1  UNL1        0.0439
     64 H           7.0520    1.4076   -0.1651 H       1  UNL1        0.0439
     65 H           1.4887   -2.6751   -0.6887 H       1  UNL1        0.0637
     66 H          -1.0064   -2.8153   -0.8736 H       1  UNL1        0.0618
     67 H          -2.3809   -0.8654   -0.3755 H       1  UNL1        0.0624
@<TRIPOS>BOND
     1     1     2    1
     2     2     3    1
     3     3     4   ar
     4     4     5   ar
     5     5     6    1
     6     5     7   ar
     7     7     8   ar
     8     8     9    1
     9     9    10    1
    10    10    11   ar
    11    11    12   ar
    12    12    13   ar
    13    13    14    1
    14    13    15   ar
    15    15    16    1
    16    16    17   ar
    17    17    18   ar
    18    18    19   ar
    19    19    20   ar
    20    20    21    1
    21    21    22   am
    22    22    23    2
    23    22    24    1
    24    24    25    1
    25    24    26    1
    26    26    27    1
    27    27    28    1
    28    28    29    1
    29    29    30    1
    30    29    31    1
    31    31    32    1
    32    20    33   ar
    33    33    34   ar
    34    34    35   ar
    35    35    36   ar
    36    15    37   ar
    37     8     3   ar
    38    37    10   ar
    39    36    16   ar
    40    36    19   ar
    41    32    26    1
    42     1    38    1
    43     1    39    1
    44     1    40    1
    45     6    41    1
    46     6    42    1
    47     6    43    1
    48     7    44    1
    49     9    45    1
    50    12    46    1
    51    17    47    1
    52    18    48    1
    53    21    49    1
    54    24    50    1
    55    25    51    1
    56    25    52    1
    57    25    53    1
    58    27    54    1
    59    27    55    1
    60    28    56    1
    61    28    57    1
    62    30    58    1
    63    30    59    1
    64    30    60    1
    65    31    61    1
    66    31    62    1
    67    32    63    1
    68    32    64    1
    69    33    65    1
    70    34    66    1
    71    35    67    1
