
     RDKit          3D

 67 71  0  0  0  0  0  0  0  0999 V2000
   -8.6246   -3.0823   -1.4026 C   0  0  0  0  0  0  0  0  0  0  0  0
   -7.6498   -2.1172   -1.0587 O   0  0  0  0  0  0  0  0  0  0  0  0
   -8.0601   -0.8428   -0.6966 C   0  0  0  0  0  0  0  0  0  0  0  0
   -9.2956   -0.3445   -0.6134 N   0  0  0  0  0  0  0  0  0  0  0  0
   -9.2639    0.9153   -0.2317 N   0  0  0  0  0  0  0  0  0  0  0  0
  -10.4161    1.7953   -0.0287 C   0  0  0  0  0  0  0  0  0  0  0  0
   -7.9507    1.2465   -0.0606 C   0  0  0  0  0  0  0  0  0  0  0  0
   -7.1675    0.1670   -0.3437 C   0  0  0  0  0  0  0  0  0  0  0  0
   -5.7706    0.0610   -0.2992 N   0  0  0  0  0  0  0  0  0  0  0  0
   -4.9312    1.1311    0.0673 C   0  0  0  0  0  0  0  0  0  0  0  0
   -5.4008    2.3526    0.4035 N   0  0  0  0  0  0  0  0  0  0  0  0
   -4.6082    3.3563    0.7476 C   0  0  0  0  0  0  0  0  0  0  0  0
   -3.2283    3.1434    0.7638 C   0  0  0  0  0  0  0  0  0  0  0  0
   -2.2415    4.4916    1.2219 Cl  0  0  0  0  0  0  0  0  0  0  0  0
   -2.7236    1.9192    0.4287 C   0  0  0  0  0  0  0  0  0  0  0  0
   -1.2910    1.6280    0.4249 C   0  0  0  0  0  0  0  0  0  0  0  0
   -0.2123    2.4102    0.7184 C   0  0  0  0  0  0  0  0  0  0  0  0
    0.9448    1.6907    0.5718 N   0  0  0  0  0  0  0  0  0  0  0  0
    0.6451    0.4373    0.1835 C   0  0  0  0  0  0  0  0  0  0  0  0
    1.4561   -0.6641   -0.0958 C   0  0  0  0  0  0  0  0  0  0  0  0
    2.8565   -0.4732    0.0407 N   0  0  0  0  0  0  0  0  0  0  0  0
    3.5669   -0.6948    1.2272 C   0  0  0  0  0  0  0  0  0  0  0  0
    2.8661   -1.0915    2.2216 O   0  0  0  0  0  0  0  0  0  0  0  0
    5.0026   -0.5238    1.4497 C   0  0  1  0  0  0  0  0  0  0  0  0
    5.5078   -1.7738    2.1514 C   0  0  0  0  0  0  0  0  0  0  0  0
    5.7816   -0.1508    0.3322 N   0  0  0  0  0  0  0  0  0  0  0  0
    5.8428   -1.0191   -0.7682 C   0  0  0  0  0  0  0  0  0  0  0  0
    7.1666   -1.6855   -1.0036 C   0  0  0  0  0  0  0  0  0  0  0  0
    8.2943   -0.8413   -0.6969 N   0  0  0  0  0  0  0  0  0  0  0  0
    8.5490    0.1395   -1.7306 C   0  0  0  0  0  0  0  0  0  0  0  0
    8.1861   -0.2200    0.6013 C   0  0  0  0  0  0  0  0  0  0  0  0
    6.9459    0.6197    0.6125 C   0  0  0  0  0  0  0  0  0  0  0  0
    0.8641   -1.8196   -0.4716 C   0  0  0  0  0  0  0  0  0  0  0  0
   -0.5058   -1.8993   -0.5738 C   0  0  0  0  0  0  0  0  0  0  0  0
   -1.3216   -0.7978   -0.2948 C   0  0  0  0  0  0  0  0  0  0  0  0
   -0.7279    0.3790    0.0875 C   0  0  0  0  0  0  0  0  0  0  0  0
   -3.6045    0.9395    0.0866 N   0  0  0  0  0  0  0  0  0  0  0  0
   -8.1811   -3.8487   -2.0403 H   0  0  0  0  0  0  0  0  0  0  0  0
   -8.9759   -3.5900   -0.4757 H   0  0  0  0  0  0  0  0  0  0  0  0
   -9.5143   -2.6111   -1.8905 H   0  0  0  0  0  0  0  0  0  0  0  0
  -10.4073    2.5222   -0.8495 H   0  0  0  0  0  0  0  0  0  0  0  0
  -11.3318    1.2113    0.0739 H   0  0  0  0  0  0  0  0  0  0  0  0
  -10.1946    2.3345    0.9348 H   0  0  0  0  0  0  0  0  0  0  0  0
   -7.6795    2.2402    0.2538 H   0  0  0  0  0  0  0  0  0  0  0  0
   -5.3111   -0.8576   -0.5495 H   0  0  0  0  0  0  0  0  0  0  0  0
   -5.0160    4.3421    1.0175 H   0  0  0  0  0  0  0  0  0  0  0  0
   -0.2163    3.4333    1.0210 H   0  0  0  0  0  0  0  0  0  0  0  0
    1.9016    2.0659    0.7376 H   0  0  0  0  0  0  0  0  0  0  0  0
    3.3821   -0.1457   -0.7962 H   0  0  0  0  0  0  0  0  0  0  0  0
    5.1168    0.2987    2.2178 H   0  0  0  0  0  0  0  0  0  0  0  0
    6.3261   -1.5251    2.8613 H   0  0  0  0  0  0  0  0  0  0  0  0
    4.6622   -2.1490    2.8001 H   0  0  0  0  0  0  0  0  0  0  0  0
    5.7397   -2.5857    1.4615 H   0  0  0  0  0  0  0  0  0  0  0  0
    5.0812   -1.8190   -0.6632 H   0  0  0  0  0  0  0  0  0  0  0  0
    5.5677   -0.4572   -1.7032 H   0  0  0  0  0  0  0  0  0  0  0  0
    7.2300   -2.6150   -0.4188 H   0  0  0  0  0  0  0  0  0  0  0  0
    7.2353   -1.9661   -2.0746 H   0  0  0  0  0  0  0  0  0  0  0  0
    7.6556    0.3241   -2.3579 H   0  0  0  0  0  0  0  0  0  0  0  0
    9.4488   -0.1073   -2.3314 H   0  0  0  0  0  0  0  0  0  0  0  0
    8.7766    1.1007   -1.2234 H   0  0  0  0  0  0  0  0  0  0  0  0
    9.0975    0.4180    0.7183 H   0  0  0  0  0  0  0  0  0  0  0  0
    8.1839   -0.9888    1.3787 H   0  0  0  0  0  0  0  0  0  0  0  0
    6.7889    1.1420    1.5809 H   0  0  0  0  0  0  0  0  0  0  0  0
    7.0520    1.4076   -0.1651 H   0  0  0  0  0  0  0  0  0  0  0  0
    1.4887   -2.6751   -0.6887 H   0  0  0  0  0  0  0  0  0  0  0  0
   -1.0064   -2.8153   -0.8736 H   0  0  0  0  0  0  0  0  0  0  0  0
   -2.3809   -0.8654   -0.3755 H   0  0  0  0  0  0  0  0  0  0  0  0
  1  2  1  0
  2  3  1  0
  3  4  2  0
  4  5  1  0
  5  6  1  0
  5  7  1  0
  7  8  2  0
  8  9  1  0
  9 10  1  0
 10 11  2  0
 11 12  1  0
 12 13  2  0
 13 14  1  0
 13 15  1  0
 15 16  1  0
 16 17  2  0
 17 18  1  0
 18 19  1  0
 19 20  2  0
 20 21  1  0
 21 22  1  0
 22 23  2  0
 22 24  1  0
 24 25  1  0
 24 26  1  0
 26 27  1  0
 27 28  1  0
 28 29  1  0
 29 30  1  0
 29 31  1  0
 31 32  1  0
 20 33  1  0
 33 34  2  0
 34 35  1  0
 35 36  2  0
 15 37  2  0
  8  3  1  0
 37 10  1  0
 36 16  1  0
 36 19  1  0
 32 26  1  0
  1 38  1  0
  1 39  1  0
  1 40  1  0
  6 41  1  0
  6 42  1  0
  6 43  1  0
  7 44  1  0
  9 45  1  0
 12 46  1  0
 17 47  1  0
 18 48  1  0
 21 49  1  0
 24 50  1  1
 25 51  1  0
 25 52  1  0
 25 53  1  0
 27 54  1  0
 27 55  1  0
 28 56  1  0
 28 57  1  0
 30 58  1  0
 30 59  1  0
 30 60  1  0
 31 61  1  0
 31 62  1  0
 32 63  1  0
 32 64  1  0
 33 65  1  0
 34 66  1  0
 35 67  1  0
M  END
$$$$
