@<TRIPOS>MOLECULE
*****
 37 39 0 0 0
SMALL
GASTEIGER

@<TRIPOS>ATOM
      1 O          -1.3784    0.5418   -1.4272 O.2     1  UNL1       -0.2734
      2 C          -1.2690   -0.3539   -0.5615 C.2     1  UNL1        0.2378
      3 N          -2.4428   -0.8462    0.0736 N.am    1  UNL1       -0.2827
      4 C          -3.7451   -0.3395   -0.2559 C.ar    1  UNL1        0.0517
      5 C          -4.2826    0.7293    0.4135 C.ar    1  UNL1       -0.0376
      6 C          -5.5323    1.1920    0.0754 C.ar    1  UNL1       -0.0418
      7 C          -6.2733    0.6087   -0.9287 C.ar    1  UNL1        0.0277
      8 N          -5.7019   -0.4352   -1.5538 N.ar    1  UNL1       -0.2614
      9 C          -4.4855   -0.9203   -1.2572 C.ar    1  UNL1        0.0487
     10 C           0.0270   -0.9197   -0.1731 C.3     1  UNL1        0.1041
     11 C           0.4410   -0.2947    1.2588 C.3     1  UNL1       -0.0239
     12 C           1.9465   -0.0093    1.2116 C.3     1  UNL1       -0.0282
     13 C           2.4365    0.9747    0.2060 C.3     1  UNL1        0.0727
     14 C           1.2046    1.1173   -0.7731 C.3     1  UNL1        0.0381
     15 N           1.1501   -0.3812   -0.8277 N.am    1  UNL1       -0.2704
     16 C           2.3836   -0.6679   -1.3823 C.2     1  UNL1        0.3305
     17 O           2.6360   -1.5502   -2.2058 O.2     1  UNL1       -0.2502
     18 N           3.3248    0.3017   -0.7749 N.am    1  UNL1       -0.1323
     19 O           4.5799    0.4273   -1.1095 O.3     1  UNL1       -0.0962
     20 S           5.5378   -0.5692   -0.1862 S.O2    1  UNL1        0.2271
     21 O           4.8320   -1.8621    0.0259 O.2     1  UNL1       -0.1164
     22 O           6.8719   -0.7922   -0.8682 O.2     1  UNL1       -0.1164
     23 O           5.8837    0.2109    1.2730 O.3     1  UNL1       -0.2297
     24 H          -2.4332   -1.5943    0.8072 H       1  UNL1        0.1549
     25 H          -3.7082    1.1937    1.2033 H       1  UNL1        0.0637
     26 H          -5.9911    2.0381    0.5848 H       1  UNL1        0.0633
     27 H          -7.2716    0.9735   -1.2033 H       1  UNL1        0.0829
     28 H          -4.0882   -1.7805   -1.8177 H       1  UNL1        0.0848
     29 H          -0.0540   -1.9909   -0.0592 H       1  UNL1        0.0597
     30 H          -0.1773    0.5615    1.4508 H       1  UNL1        0.0288
     31 H           0.2795   -1.0880    1.9787 H       1  UNL1        0.0288
     32 H           2.1935    0.3358    2.2254 H       1  UNL1        0.0285
     33 H           2.4053   -1.0246    1.0178 H       1  UNL1        0.0285
     34 H           2.7903    1.9241    0.5422 H       1  UNL1        0.0542
     35 H           1.5933    1.5550   -1.6659 H       1  UNL1        0.0484
     36 H           0.3672    1.5553   -0.2641 H       1  UNL1        0.0484
     37 H           5.9500    1.1792    1.0450 H       1  UNL1        0.2470
@<TRIPOS>BOND
     1     1     2    2
     2     2     3   am
     3     3     4    1
     4     4     5   ar
     5     5     6   ar
     6     6     7   ar
     7     7     8   ar
     8     8     9   ar
     9     2    10    1
    10    10    11    1
    11    11    12    1
    12    12    13    1
    13    13    14    1
    14    14    15    1
    15    15    16   am
    16    16    17    2
    17    16    18   am
    18    18    19    1
    19    19    20    1
    20    20    21    2
    21    20    22    2
    22    20    23    1
    23     9     4   ar
    24    15    10    1
    25    18    13    1
    26     3    24    1
    27     5    25    1
    28     6    26    1
    29     7    27    1
    30     9    28    1
    31    10    29    1
    32    11    30    1
    33    11    31    1
    34    12    32    1
    35    12    33    1
    36    13    34    1
    37    14    35    1
    38    14    36    1
    39    23    37    1
