@<TRIPOS>MOLECULE
*****
 67 70 0 0 0
SMALL
GASTEIGER

@<TRIPOS>ATOM
      1 C           6.6735   -5.0660   -3.5750 C.3     1  UNL1        0.0817
      2 O           5.9557   -4.4847   -2.5175 O.3     1  UNL1       -0.4677
      3 C           4.5816   -4.3430   -2.4774 C.2     1  UNL1        0.3101
      4 O           3.9290   -4.7694   -3.4683 O.2     1  UNL1       -0.2505
      5 C           3.9503   -3.7075   -1.2920 C.3     1  UNL1        0.0616
      6 C           4.4775   -2.2689   -1.1118 C.3     1  UNL1       -0.0180
      7 C           3.3357   -1.6873   -0.3694 C.3     1  UNL1        0.0612
      8 N           3.3791   -0.2720   -0.1687 N.am    1  UNL1       -0.3049
      9 C           3.2403    0.3828    1.0782 C.2     1  UNL1        0.2444
     10 O           3.0662   -0.3466    2.0686 O.2     1  UNL1       -0.2702
     11 C           3.2882    1.8260    1.2599 C.ar    1  UNL1        0.0369
     12 C           3.0865    2.3373    2.5248 C.ar    1  UNL1       -0.0462
     13 C           3.1169    3.6889    2.7805 C.ar    1  UNL1       -0.0195
     14 C           3.3538    4.5622    1.7574 C.ar    1  UNL1        0.1169
     15 O           3.3856    5.9084    2.0044 O.3     1  UNL1       -0.5068
     16 C           3.5558    4.0580    0.4949 C.ar    1  UNL1       -0.0195
     17 C           3.5280    2.7031    0.2223 C.ar    1  UNL1       -0.0462
     18 C           2.1689   -2.0975   -1.2742 C.3     1  UNL1        0.1224
     19 O           0.9384   -1.8564   -0.6364 O.3     1  UNL1       -0.4560
     20 C           0.0512   -0.9928   -1.2568 C.2     1  UNL1        0.3397
     21 O           0.3222   -0.4382   -2.3536 O.2     1  UNL1       -0.2449
     22 C          -1.2349   -0.7118   -0.6291 C.ar    1  UNL1        0.0659
     23 C          -1.6026   -1.2758    0.5723 C.ar    1  UNL1       -0.0053
     24 C          -2.8040   -1.0214    1.1802 C.ar    1  UNL1        0.1320
     25 O          -3.1462   -1.6173    2.4094 O.3     1  UNL1       -0.5059
     26 C          -3.7125   -0.1471    0.5621 C.ar    1  UNL1        0.1050
     27 C          -5.0122    0.0137    1.1845 C.2     1  UNL1        0.2044
     28 O          -5.4124   -0.9314    1.9706 O.2     1  UNL1       -0.2863
     29 C          -5.8980    1.1263    0.9909 C.ar    1  UNL1        0.0778
     30 C          -7.2681    0.7997    0.8556 C.ar    1  UNL1        0.1285
     31 O          -7.6806   -0.5370    0.8959 O.3     1  UNL1       -0.5060
     32 C          -8.2061    1.7459    0.6865 C.ar    1  UNL1       -0.0194
     33 C          -7.7984    3.0740    0.6462 C.ar    1  UNL1       -0.0575
     34 C          -6.4822    3.4149    0.7783 C.ar    1  UNL1       -0.0468
     35 C          -5.5001    2.4156    0.9604 C.ar    1  UNL1        0.0731
     36 C          -4.1814    2.8930    1.3178 C.2     1  UNL1        0.3376
     37 O          -3.8621    4.1216    1.1381 O.2     1  UNL1       -0.2451
     38 O          -3.2255    2.0932    1.8628 O.3     1  UNL1       -0.4771
     39 C          -3.3662    0.4338   -0.6514 C.ar    1  UNL1        0.1320
     40 O          -4.2054    1.2890   -1.3143 O.3     1  UNL1       -0.5059
     41 C          -2.1478    0.1368   -1.2048 C.ar    1  UNL1       -0.0053
     42 C           2.4613   -3.5354   -1.5063 C.3     1  UNL1       -0.0009
     43 H           6.2631   -6.0390   -3.9110 H       1  UNL1        0.0661
     44 H           6.7899   -4.4107   -4.4531 H       1  UNL1        0.0661
     45 H           7.7161   -5.2437   -3.1874 H       1  UNL1        0.0661
     46 H           4.1739   -4.2551   -0.3519 H       1  UNL1        0.0415
     47 H           5.4382   -2.2611   -0.5953 H       1  UNL1        0.0292
     48 H           4.5539   -1.8863   -2.1637 H       1  UNL1        0.0292
     49 H           3.2297   -2.2182    0.6036 H       1  UNL1        0.0535
     50 H           3.5239    0.3239   -1.0084 H       1  UNL1        0.1494
     51 H           2.8934    1.6622    3.3644 H       1  UNL1        0.0626
     52 H           2.9528    4.0734    3.7930 H       1  UNL1        0.0654
     53 H           3.7895    6.5783    1.3632 H       1  UNL1        0.2921
     54 H           3.7414    4.7716   -0.2961 H       1  UNL1        0.0654
     55 H           3.6883    2.3244   -0.7677 H       1  UNL1        0.0626
     56 H           2.2457   -1.5395   -2.2039 H       1  UNL1        0.0753
     57 H          -0.8810   -1.9468    1.0268 H       1  UNL1        0.0662
     58 H          -2.9955   -2.6182    2.4554 H       1  UNL1        0.2922
     59 H          -8.0830   -0.9973    0.0861 H       1  UNL1        0.2922
     60 H          -9.2593    1.4992    0.5822 H       1  UNL1        0.0654
     61 H          -8.5709    3.8122    0.5055 H       1  UNL1        0.0619
     62 H          -6.1891    4.4424    0.7442 H       1  UNL1        0.0626
     63 H          -2.5422    2.3919    2.5456 H       1  UNL1        0.2954
     64 H          -3.8660    2.1520   -1.6930 H       1  UNL1        0.2922
     65 H          -1.8265    0.5732   -2.1641 H       1  UNL1        0.0662
     66 H           2.1776   -3.8912   -2.5202 H       1  UNL1        0.0309
     67 H           1.9369   -4.2144   -0.7727 H       1  UNL1        0.0309
@<TRIPOS>BOND
     1     1     2    1
     2     2     3    1
     3     3     4    2
     4     3     5    1
     5     5     6    1
     6     6     7    1
     7     7     8    1
     8     8     9   am
     9     9    10    2
    10     9    11    1
    11    11    12   ar
    12    12    13   ar
    13    13    14   ar
    14    14    15    1
    15    14    16   ar
    16    16    17   ar
    17     7    18    1
    18    18    19    1
    19    19    20    1
    20    20    21    2
    21    20    22    1
    22    22    23   ar
    23    23    24   ar
    24    24    25    1
    25    24    26   ar
    26    26    27    1
    27    27    28    2
    28    27    29    1
    29    29    30   ar
    30    30    31    1
    31    30    32   ar
    32    32    33   ar
    33    33    34   ar
    34    34    35   ar
    35    35    36    1
    36    36    37    2
    37    36    38    1
    38    26    39   ar
    39    39    40    1
    40    39    41   ar
    41    18    42    1
    42    42     5    1
    43    17    11   ar
    44    41    22   ar
    45    35    29   ar
    46     1    43    1
    47     1    44    1
    48     1    45    1
    49     5    46    1
    50     6    47    1
    51     6    48    1
    52     7    49    1
    53     8    50    1
    54    12    51    1
    55    13    52    1
    56    15    53    1
    57    16    54    1
    58    17    55    1
    59    18    56    1
    60    23    57    1
    61    25    58    1
    62    31    59    1
    63    32    60    1
    64    33    61    1
    65    34    62    1
    66    38    63    1
    67    40    64    1
    68    41    65    1
    69    42    66    1
    70    42    67    1
