
     RDKit          3D

 67 70  0  0  0  0  0  0  0  0999 V2000
    6.6735   -5.0660   -3.5750 C   0  0  0  0  0  0  0  0  0  0  0  0
    5.9557   -4.4847   -2.5175 O   0  0  0  0  0  0  0  0  0  0  0  0
    4.5816   -4.3430   -2.4774 C   0  0  0  0  0  0  0  0  0  0  0  0
    3.9290   -4.7694   -3.4683 O   0  0  0  0  0  0  0  0  0  0  0  0
    3.9503   -3.7075   -1.2920 C   0  0  0  0  0  0  0  0  0  0  0  0
    4.4775   -2.2689   -1.1118 C   0  0  0  0  0  0  0  0  0  0  0  0
    3.3357   -1.6873   -0.3694 C   0  0  1  0  0  0  0  0  0  0  0  0
    3.3791   -0.2720   -0.1687 N   0  0  0  0  0  0  0  0  0  0  0  0
    3.2403    0.3828    1.0782 C   0  0  0  0  0  0  0  0  0  0  0  0
    3.0662   -0.3466    2.0686 O   0  0  0  0  0  0  0  0  0  0  0  0
    3.2882    1.8260    1.2599 C   0  0  0  0  0  0  0  0  0  0  0  0
    3.0865    2.3373    2.5248 C   0  0  0  0  0  0  0  0  0  0  0  0
    3.1169    3.6889    2.7805 C   0  0  0  0  0  0  0  0  0  0  0  0
    3.3538    4.5622    1.7574 C   0  0  0  0  0  0  0  0  0  0  0  0
    3.3856    5.9084    2.0044 O   0  0  0  0  0  0  0  0  0  0  0  0
    3.5558    4.0580    0.4949 C   0  0  0  0  0  0  0  0  0  0  0  0
    3.5280    2.7031    0.2223 C   0  0  0  0  0  0  0  0  0  0  0  0
    2.1689   -2.0975   -1.2742 C   0  0  2  0  0  0  0  0  0  0  0  0
    0.9384   -1.8564   -0.6364 O   0  0  0  0  0  0  0  0  0  0  0  0
    0.0512   -0.9928   -1.2568 C   0  0  0  0  0  0  0  0  0  0  0  0
    0.3222   -0.4382   -2.3536 O   0  0  0  0  0  0  0  0  0  0  0  0
   -1.2349   -0.7118   -0.6291 C   0  0  0  0  0  0  0  0  0  0  0  0
   -1.6026   -1.2758    0.5723 C   0  0  0  0  0  0  0  0  0  0  0  0
   -2.8040   -1.0214    1.1802 C   0  0  0  0  0  0  0  0  0  0  0  0
   -3.1462   -1.6173    2.4094 O   0  0  0  0  0  0  0  0  0  0  0  0
   -3.7125   -0.1471    0.5621 C   0  0  0  0  0  0  0  0  0  0  0  0
   -5.0122    0.0137    1.1845 C   0  0  0  0  0  0  0  0  0  0  0  0
   -5.4124   -0.9314    1.9706 O   0  0  0  0  0  0  0  0  0  0  0  0
   -5.8980    1.1263    0.9909 C   0  0  0  0  0  0  0  0  0  0  0  0
   -7.2681    0.7997    0.8556 C   0  0  0  0  0  0  0  0  0  0  0  0
   -7.6806   -0.5370    0.8959 O   0  0  0  0  0  0  0  0  0  0  0  0
   -8.2061    1.7459    0.6865 C   0  0  0  0  0  0  0  0  0  0  0  0
   -7.7984    3.0740    0.6462 C   0  0  0  0  0  0  0  0  0  0  0  0
   -6.4822    3.4149    0.7783 C   0  0  0  0  0  0  0  0  0  0  0  0
   -5.5001    2.4156    0.9604 C   0  0  0  0  0  0  0  0  0  0  0  0
   -4.1814    2.8930    1.3178 C   0  0  0  0  0  0  0  0  0  0  0  0
   -3.8621    4.1216    1.1381 O   0  0  0  0  0  0  0  0  0  0  0  0
   -3.2255    2.0932    1.8628 O   0  0  0  0  0  0  0  0  0  0  0  0
   -3.3662    0.4338   -0.6514 C   0  0  0  0  0  0  0  0  0  0  0  0
   -4.2054    1.2890   -1.3143 O   0  0  0  0  0  0  0  0  0  0  0  0
   -2.1478    0.1368   -1.2048 C   0  0  0  0  0  0  0  0  0  0  0  0
    2.4613   -3.5354   -1.5063 C   0  0  0  0  0  0  0  0  0  0  0  0
    6.2631   -6.0390   -3.9110 H   0  0  0  0  0  0  0  0  0  0  0  0
    6.7899   -4.4107   -4.4531 H   0  0  0  0  0  0  0  0  0  0  0  0
    7.7161   -5.2437   -3.1874 H   0  0  0  0  0  0  0  0  0  0  0  0
    4.1739   -4.2551   -0.3519 H   0  0  0  0  0  0  0  0  0  0  0  0
    5.4382   -2.2611   -0.5953 H   0  0  0  0  0  0  0  0  0  0  0  0
    4.5539   -1.8863   -2.1637 H   0  0  0  0  0  0  0  0  0  0  0  0
    3.2297   -2.2182    0.6036 H   0  0  0  0  0  0  0  0  0  0  0  0
    3.5239    0.3239   -1.0084 H   0  0  0  0  0  0  0  0  0  0  0  0
    2.8934    1.6622    3.3644 H   0  0  0  0  0  0  0  0  0  0  0  0
    2.9528    4.0734    3.7930 H   0  0  0  0  0  0  0  0  0  0  0  0
    3.7895    6.5783    1.3632 H   0  0  0  0  0  0  0  0  0  0  0  0
    3.7414    4.7716   -0.2961 H   0  0  0  0  0  0  0  0  0  0  0  0
    3.6883    2.3244   -0.7677 H   0  0  0  0  0  0  0  0  0  0  0  0
    2.2457   -1.5395   -2.2039 H   0  0  0  0  0  0  0  0  0  0  0  0
   -0.8810   -1.9468    1.0268 H   0  0  0  0  0  0  0  0  0  0  0  0
   -2.9955   -2.6182    2.4554 H   0  0  0  0  0  0  0  0  0  0  0  0
   -8.0830   -0.9973    0.0861 H   0  0  0  0  0  0  0  0  0  0  0  0
   -9.2593    1.4992    0.5822 H   0  0  0  0  0  0  0  0  0  0  0  0
   -8.5709    3.8122    0.5055 H   0  0  0  0  0  0  0  0  0  0  0  0
   -6.1891    4.4424    0.7442 H   0  0  0  0  0  0  0  0  0  0  0  0
   -2.5422    2.3919    2.5456 H   0  0  0  0  0  0  0  0  0  0  0  0
   -3.8660    2.1520   -1.6930 H   0  0  0  0  0  0  0  0  0  0  0  0
   -1.8265    0.5732   -2.1641 H   0  0  0  0  0  0  0  0  0  0  0  0
    2.1776   -3.8912   -2.5202 H   0  0  0  0  0  0  0  0  0  0  0  0
    1.9369   -4.2144   -0.7727 H   0  0  0  0  0  0  0  0  0  0  0  0
  1  2  1  0
  2  3  1  0
  3  4  2  0
  3  5  1  0
  5  6  1  0
  6  7  1  0
  7  8  1  0
  8  9  1  0
  9 10  2  0
  9 11  1  0
 11 12  2  0
 12 13  1  0
 13 14  2  0
 14 15  1  0
 14 16  1  0
 16 17  2  0
  7 18  1  0
 18 19  1  0
 19 20  1  0
 20 21  2  0
 20 22  1  0
 22 23  2  0
 23 24  1  0
 24 25  1  0
 24 26  2  0
 26 27  1  0
 27 28  2  0
 27 29  1  0
 29 30  2  0
 30 31  1  0
 30 32  1  0
 32 33  2  0
 33 34  1  0
 34 35  2  0
 35 36  1  0
 36 37  2  0
 36 38  1  0
 26 39  1  0
 39 40  1  0
 39 41  2  0
 18 42  1  0
 42  5  1  0
 17 11  1  0
 41 22  1  0
 35 29  1  0
  1 43  1  0
  1 44  1  0
  1 45  1  0
  5 46  1  0
  6 47  1  0
  6 48  1  0
  7 49  1  1
  8 50  1  0
 12 51  1  0
 13 52  1  0
 15 53  1  0
 16 54  1  0
 17 55  1  0
 18 56  1  6
 23 57  1  0
 25 58  1  0
 31 59  1  0
 32 60  1  0
 33 61  1  0
 34 62  1  0
 38 63  1  0
 40 64  1  0
 41 65  1  0
 42 66  1  0
 42 67  1  0
M  END
$$$$
