@<TRIPOS>MOLECULE
*****
 53 56 0 0 0
SMALL
GASTEIGER

@<TRIPOS>ATOM
      1 C           0.2468    3.8550    0.9628 C.3     1  UNL1        0.0788
      2 O           0.1909    2.4939    0.7278 O.3     1  UNL1       -0.4945
      3 C          -0.9476    1.7494    0.5133 C.ar    1  UNL1        0.1293
      4 C          -2.2047    2.4202    0.5451 C.ar    1  UNL1       -0.0181
      5 C          -3.3348    1.7018    0.3536 C.ar    1  UNL1       -0.0428
      6 C          -3.3637    0.3384    0.1252 C.ar    1  UNL1        0.0258
      7 C          -4.6114   -0.3479   -0.0616 C.1     1  UNL1       -0.0644
      8 C          -5.6867   -0.9369   -0.2155 C.1     1  UNL1       -0.0755
      9 C          -6.9751   -1.6136   -0.3994 C.3     1  UNL1        0.0733
     10 C          -6.7660   -3.1024   -0.4505 C.3     1  UNL1       -0.0359
     11 C          -7.8729   -1.2256    0.7721 C.3     1  UNL1       -0.0359
     12 N          -7.6461   -1.1893   -1.6082 N.3     1  UNL1       -0.3153
     13 C          -2.1436   -0.3021    0.0926 C.ar    1  UNL1       -0.0336
     14 C          -0.9375    0.4085    0.2869 C.ar    1  UNL1        0.0432
     15 C           0.2883   -0.3737    0.1570 C.ar    1  UNL1        0.0785
     16 N           0.3431   -1.7134    0.5015 N.ar    1  UNL1       -0.2742
     17 N           1.5132   -2.2194    0.2605 N.ar    1  UNL1       -0.1531
     18 C           2.3194   -1.2521   -0.2630 C.ar    1  UNL1        0.1834
     19 N           3.5834   -1.2616   -0.6920 N.ar    1  UNL1       -0.2108
     20 C           4.1696   -0.1775   -1.2057 C.ar    1  UNL1        0.1254
     21 N           5.5111   -0.1682   -1.6705 N.pl3   1  UNL1       -0.2971
     22 C           6.5072   -0.1640   -0.6493 C.ar    1  UNL1        0.0682
     23 C           7.3970   -1.1928   -0.6124 C.ar    1  UNL1       -0.0350
     24 C           8.3800   -1.2661    0.3509 C.ar    1  UNL1       -0.0245
     25 C           8.4381   -0.2422    1.3001 C.ar    1  UNL1        0.1262
     26 F           9.4301   -0.3603    2.2305 F       1  UNL1       -0.2054
     27 C           7.5572    0.7801    1.2660 C.ar    1  UNL1        0.0106
     28 C           6.5806    0.8398    0.2976 C.ar    1  UNL1        0.1472
     29 F           5.6827    1.8562    0.2355 F       1  UNL1       -0.2035
     30 C           3.4425    0.9830   -1.2964 C.ar    1  UNL1       -0.0208
     31 C           2.1228    1.0013   -0.8507 C.ar    1  UNL1       -0.0457
     32 C           1.5256   -0.1184   -0.3163 C.ar    1  UNL1        0.0464
     33 H           1.1684    4.0612    1.5578 H       1  UNL1        0.0660
     34 H           0.3079    4.3900   -0.0251 H       1  UNL1        0.0660
     35 H          -0.6066    4.2128    1.5474 H       1  UNL1        0.0660
     36 H          -2.2349    3.4645    0.7117 H       1  UNL1        0.0655
     37 H          -4.3332    2.1770    0.3734 H       1  UNL1        0.0631
     38 H          -7.4284   -3.5618    0.3261 H       1  UNL1        0.0257
     39 H          -5.7031   -3.3826   -0.2708 H       1  UNL1        0.0257
     40 H          -7.1304   -3.4804   -1.4186 H       1  UNL1        0.0257
     41 H          -8.8524   -1.7351    0.7066 H       1  UNL1        0.0257
     42 H          -7.9502   -0.1288    0.8583 H       1  UNL1        0.0257
     43 H          -7.3700   -1.6853    1.6689 H       1  UNL1        0.0257
     44 H          -6.9253   -0.7332   -2.2399 H       1  UNL1        0.1196
     45 H          -8.2935   -0.3693   -1.3735 H       1  UNL1        0.1196
     46 H          -2.0997   -1.3522   -0.0783 H       1  UNL1        0.0637
     47 H          -0.4642   -2.2618    0.9067 H       1  UNL1        0.1890
     48 H           5.7298   -0.1619   -2.6696 H       1  UNL1        0.1536
     49 H           7.3202   -1.9725   -1.3725 H       1  UNL1        0.0638
     50 H           9.0746   -2.0827    0.3717 H       1  UNL1        0.0647
     51 H           7.5930    1.5735    1.9925 H       1  UNL1        0.0675
     52 H           3.8607    1.9028   -1.7135 H       1  UNL1        0.0652
     53 H           1.5975    1.9256   -1.0035 H       1  UNL1        0.0626
@<TRIPOS>BOND
     1     1     2    1
     2     2     3    1
     3     3     4   ar
     4     4     5   ar
     5     5     6   ar
     6     6     7    1
     7     7     8    3
     8     8     9    1
     9     9    10    1
    10     9    11    1
    11     9    12    1
    12     6    13   ar
    13    13    14   ar
    14    14    15    1
    15    15    16   ar
    16    16    17   ar
    17    17    18   ar
    18    18    19   ar
    19    19    20   ar
    20    20    21    1
    21    21    22    1
    22    22    23   ar
    23    23    24   ar
    24    24    25   ar
    25    25    26    1
    26    25    27   ar
    27    27    28   ar
    28    28    29    1
    29    20    30   ar
    30    30    31   ar
    31    31    32   ar
    32    14     3   ar
    33    32    15   ar
    34    32    18   ar
    35    28    22   ar
    36     1    33    1
    37     1    34    1
    38     1    35    1
    39     4    36    1
    40     5    37    1
    41    10    38    1
    42    10    39    1
    43    10    40    1
    44    11    41    1
    45    11    42    1
    46    11    43    1
    47    12    44    1
    48    12    45    1
    49    13    46    1
    50    16    47    1
    51    21    48    1
    52    23    49    1
    53    24    50    1
    54    27    51    1
    55    30    52    1
    56    31    53    1
