
     RDKit          3D

 53 56  0  0  0  0  0  0  0  0999 V2000
    0.2468    3.8550    0.9628 C   0  0  0  0  0  0  0  0  0  0  0  0
    0.1909    2.4939    0.7278 O   0  0  0  0  0  0  0  0  0  0  0  0
   -0.9476    1.7494    0.5133 C   0  0  0  0  0  0  0  0  0  0  0  0
   -2.2047    2.4202    0.5451 C   0  0  0  0  0  0  0  0  0  0  0  0
   -3.3348    1.7018    0.3536 C   0  0  0  0  0  0  0  0  0  0  0  0
   -3.3637    0.3384    0.1252 C   0  0  0  0  0  0  0  0  0  0  0  0
   -4.6114   -0.3479   -0.0616 C   0  0  0  0  0  0  0  0  0  0  0  0
   -5.6867   -0.9369   -0.2155 C   0  0  0  0  0  0  0  0  0  0  0  0
   -6.9751   -1.6136   -0.3994 C   0  0  0  0  0  0  0  0  0  0  0  0
   -6.7660   -3.1024   -0.4505 C   0  0  0  0  0  0  0  0  0  0  0  0
   -7.8729   -1.2256    0.7721 C   0  0  0  0  0  0  0  0  0  0  0  0
   -7.6461   -1.1893   -1.6082 N   0  0  0  0  0  0  0  0  0  0  0  0
   -2.1436   -0.3021    0.0926 C   0  0  0  0  0  0  0  0  0  0  0  0
   -0.9375    0.4085    0.2869 C   0  0  0  0  0  0  0  0  0  0  0  0
    0.2883   -0.3737    0.1570 C   0  0  0  0  0  0  0  0  0  0  0  0
    0.3431   -1.7134    0.5015 N   0  0  0  0  0  0  0  0  0  0  0  0
    1.5132   -2.2194    0.2605 N   0  0  0  0  0  0  0  0  0  0  0  0
    2.3194   -1.2521   -0.2630 C   0  0  0  0  0  0  0  0  0  0  0  0
    3.5834   -1.2616   -0.6920 N   0  0  0  0  0  0  0  0  0  0  0  0
    4.1696   -0.1775   -1.2057 C   0  0  0  0  0  0  0  0  0  0  0  0
    5.5111   -0.1682   -1.6705 N   0  0  0  0  0  0  0  0  0  0  0  0
    6.5072   -0.1640   -0.6493 C   0  0  0  0  0  0  0  0  0  0  0  0
    7.3970   -1.1928   -0.6124 C   0  0  0  0  0  0  0  0  0  0  0  0
    8.3800   -1.2661    0.3509 C   0  0  0  0  0  0  0  0  0  0  0  0
    8.4381   -0.2422    1.3001 C   0  0  0  0  0  0  0  0  0  0  0  0
    9.4301   -0.3603    2.2305 F   0  0  0  0  0  0  0  0  0  0  0  0
    7.5572    0.7801    1.2660 C   0  0  0  0  0  0  0  0  0  0  0  0
    6.5806    0.8398    0.2976 C   0  0  0  0  0  0  0  0  0  0  0  0
    5.6827    1.8562    0.2355 F   0  0  0  0  0  0  0  0  0  0  0  0
    3.4425    0.9830   -1.2964 C   0  0  0  0  0  0  0  0  0  0  0  0
    2.1228    1.0013   -0.8507 C   0  0  0  0  0  0  0  0  0  0  0  0
    1.5256   -0.1184   -0.3163 C   0  0  0  0  0  0  0  0  0  0  0  0
    1.1684    4.0612    1.5578 H   0  0  0  0  0  0  0  0  0  0  0  0
    0.3079    4.3900   -0.0251 H   0  0  0  0  0  0  0  0  0  0  0  0
   -0.6066    4.2128    1.5474 H   0  0  0  0  0  0  0  0  0  0  0  0
   -2.2349    3.4645    0.7117 H   0  0  0  0  0  0  0  0  0  0  0  0
   -4.3332    2.1770    0.3734 H   0  0  0  0  0  0  0  0  0  0  0  0
   -7.4284   -3.5618    0.3261 H   0  0  0  0  0  0  0  0  0  0  0  0
   -5.7031   -3.3826   -0.2708 H   0  0  0  0  0  0  0  0  0  0  0  0
   -7.1304   -3.4804   -1.4186 H   0  0  0  0  0  0  0  0  0  0  0  0
   -8.8524   -1.7351    0.7066 H   0  0  0  0  0  0  0  0  0  0  0  0
   -7.9502   -0.1288    0.8583 H   0  0  0  0  0  0  0  0  0  0  0  0
   -7.3700   -1.6853    1.6689 H   0  0  0  0  0  0  0  0  0  0  0  0
   -6.9253   -0.7332   -2.2399 H   0  0  0  0  0  0  0  0  0  0  0  0
   -8.2935   -0.3693   -1.3735 H   0  0  0  0  0  0  0  0  0  0  0  0
   -2.0997   -1.3522   -0.0783 H   0  0  0  0  0  0  0  0  0  0  0  0
   -0.4642   -2.2618    0.9067 H   0  0  0  0  0  0  0  0  0  0  0  0
    5.7298   -0.1619   -2.6696 H   0  0  0  0  0  0  0  0  0  0  0  0
    7.3202   -1.9725   -1.3725 H   0  0  0  0  0  0  0  0  0  0  0  0
    9.0746   -2.0827    0.3717 H   0  0  0  0  0  0  0  0  0  0  0  0
    7.5930    1.5735    1.9925 H   0  0  0  0  0  0  0  0  0  0  0  0
    3.8607    1.9028   -1.7135 H   0  0  0  0  0  0  0  0  0  0  0  0
    1.5975    1.9256   -1.0035 H   0  0  0  0  0  0  0  0  0  0  0  0
  1  2  1  0
  2  3  1  0
  3  4  2  0
  4  5  1  0
  5  6  2  0
  6  7  1  0
  7  8  3  0
  8  9  1  0
  9 10  1  0
  9 11  1  0
  9 12  1  0
  6 13  1  0
 13 14  2  0
 14 15  1  0
 15 16  1  0
 16 17  1  0
 17 18  2  0
 18 19  1  0
 19 20  2  0
 20 21  1  0
 21 22  1  0
 22 23  2  0
 23 24  1  0
 24 25  2  0
 25 26  1  0
 25 27  1  0
 27 28  2  0
 28 29  1  0
 20 30  1  0
 30 31  2  0
 31 32  1  0
 14  3  1  0
 32 15  2  0
 32 18  1  0
 28 22  1  0
  1 33  1  0
  1 34  1  0
  1 35  1  0
  4 36  1  0
  5 37  1  0
 10 38  1  0
 10 39  1  0
 10 40  1  0
 11 41  1  0
 11 42  1  0
 11 43  1  0
 12 44  1  0
 12 45  1  0
 13 46  1  0
 16 47  1  0
 21 48  1  0
 23 49  1  0
 24 50  1  0
 27 51  1  0
 30 52  1  0
 31 53  1  0
M  END
$$$$
