@<TRIPOS>MOLECULE
*****
 47 50 0 0 0
SMALL
GASTEIGER

@<TRIPOS>ATOM
      1 C           0.9856    1.1133    1.6422 C.3     1  UNL1        0.1180
      2 O           0.9436    0.2744    2.7826 O.3     1  UNL1       -0.3544
      3 C           0.7262   -0.9174    2.0721 C.3     1  UNL1        0.1180
      4 C           1.7933   -0.8373    1.0601 C.2     1  UNL1        0.0822
      5 C           2.4666   -1.8485    0.2610 C.2     1  UNL1        0.3383
      6 O           2.2536   -3.0867    0.2812 O.2     1  UNL1       -0.2452
      7 O           3.4555   -1.6796   -0.6653 O.3     1  UNL1       -0.4646
      8 C           4.0542   -2.7192   -1.3973 C.3     1  UNL1        0.0820
      9 C           2.1199    0.4381    0.9367 C.2     1  UNL1        0.0822
     10 C           3.1999    1.1880    0.3398 C.2     1  UNL1        0.3383
     11 O           3.3203    2.4419    0.3365 O.2     1  UNL1       -0.2452
     12 O           4.3526    0.9706   -0.3519 O.3     1  UNL1       -0.4646
     13 C           5.2136    1.9989   -0.8031 C.3     1  UNL1        0.0820
     14 C          -0.5546   -0.5661    1.4141 C.2     1  UNL1       -0.0006
     15 C          -0.2902    0.6912    1.0076 C.2     1  UNL1       -0.0006
     16 C          -1.0934    1.5270    0.0914 C.ar    1  UNL1       -0.0185
     17 C          -1.2171    2.8962    0.3303 C.ar    1  UNL1       -0.0508
     18 C          -1.9320    3.7447   -0.4659 C.ar    1  UNL1       -0.0196
     19 C          -2.5712    3.2377   -1.5681 C.ar    1  UNL1        0.1169
     20 O          -3.3178    3.9839   -2.4428 O.3     1  UNL1       -0.5068
     21 C          -2.4677    1.8849   -1.8322 C.ar    1  UNL1       -0.0196
     22 C          -1.7464    1.0205   -1.0312 C.ar    1  UNL1       -0.0508
     23 C          -1.7924   -1.2851    1.2135 C.ar    1  UNL1       -0.0185
     24 C          -3.0368   -0.6553    1.2802 C.ar    1  UNL1       -0.0508
     25 C          -4.1242   -1.4484    1.0739 C.ar    1  UNL1       -0.0196
     26 C          -4.0472   -2.8008    0.8107 C.ar    1  UNL1        0.1169
     27 O          -5.2642   -3.4306    0.6303 O.3     1  UNL1       -0.5068
     28 C          -2.8095   -3.4436    0.7412 C.ar    1  UNL1       -0.0196
     29 C          -1.6893   -2.6340    0.9528 C.ar    1  UNL1       -0.0508
     30 H           1.1060    2.1526    1.8487 H       1  UNL1        0.0700
     31 H           0.7077   -1.8179    2.6774 H       1  UNL1        0.0700
     32 H           3.6066   -2.7793   -2.4154 H       1  UNL1        0.0661
     33 H           3.9168   -3.7256   -0.9541 H       1  UNL1        0.0661
     34 H           5.1465   -2.5451   -1.4032 H       1  UNL1        0.0661
     35 H           6.1080    1.4853   -1.2090 H       1  UNL1        0.0661
     36 H           4.7009    2.6453   -1.5227 H       1  UNL1        0.0661
     37 H           5.5564    2.6509    0.0229 H       1  UNL1        0.0661
     38 H          -0.7048    3.2705    1.2042 H       1  UNL1        0.0625
     39 H          -2.0007    4.7993   -0.2425 H       1  UNL1        0.0654
     40 H          -3.5195    4.9811   -2.2755 H       1  UNL1        0.2921
     41 H          -2.9208    1.3397   -2.6690 H       1  UNL1        0.0654
     42 H          -1.6239   -0.0402   -1.1788 H       1  UNL1        0.0625
     43 H          -3.0313    0.3924    1.4882 H       1  UNL1        0.0625
     44 H          -5.0790   -0.9200    1.1338 H       1  UNL1        0.0654
     45 H          -5.3681   -4.3252    0.1816 H       1  UNL1        0.2921
     46 H          -2.7977   -4.4969    0.5354 H       1  UNL1        0.0654
     47 H          -0.7339   -3.1254    0.9006 H       1  UNL1        0.0625
@<TRIPOS>BOND
     1     1     2    1
     2     2     3    1
     3     3     4    1
     4     4     5    1
     5     5     6    2
     6     5     7    1
     7     7     8    1
     8     4     9    2
     9     9    10    1
    10    10    11    2
    11    10    12    1
    12    12    13    1
    13     3    14    1
    14    14    15    2
    15    15    16    1
    16    16    17   ar
    17    17    18   ar
    18    18    19   ar
    19    19    20    1
    20    19    21   ar
    21    21    22   ar
    22    14    23    1
    23    23    24   ar
    24    24    25   ar
    25    25    26   ar
    26    26    27    1
    27    26    28   ar
    28    28    29   ar
    29     9     1    1
    30    22    16   ar
    31    29    23   ar
    32    15     1    1
    33     1    30    1
    34     3    31    1
    35     8    32    1
    36     8    33    1
    37     8    34    1
    38    13    35    1
    39    13    36    1
    40    13    37    1
    41    17    38    1
    42    18    39    1
    43    20    40    1
    44    21    41    1
    45    22    42    1
    46    24    43    1
    47    25    44    1
    48    27    45    1
    49    28    46    1
    50    29    47    1
