
     RDKit          3D

 47 50  0  0  0  0  0  0  0  0999 V2000
    0.9856    1.1133    1.6422 C   0  0  1  0  0  0  0  0  0  0  0  0
    0.9436    0.2744    2.7826 O   0  0  0  0  0  0  0  0  0  0  0  0
    0.7262   -0.9174    2.0721 C   0  0  2  0  0  0  0  0  0  0  0  0
    1.7933   -0.8373    1.0601 C   0  0  0  0  0  0  0  0  0  0  0  0
    2.4666   -1.8485    0.2610 C   0  0  0  0  0  0  0  0  0  0  0  0
    2.2536   -3.0867    0.2812 O   0  0  0  0  0  0  0  0  0  0  0  0
    3.4555   -1.6796   -0.6653 O   0  0  0  0  0  0  0  0  0  0  0  0
    4.0542   -2.7192   -1.3973 C   0  0  0  0  0  0  0  0  0  0  0  0
    2.1199    0.4381    0.9367 C   0  0  0  0  0  0  0  0  0  0  0  0
    3.1999    1.1880    0.3398 C   0  0  0  0  0  0  0  0  0  0  0  0
    3.3203    2.4419    0.3365 O   0  0  0  0  0  0  0  0  0  0  0  0
    4.3526    0.9706   -0.3519 O   0  0  0  0  0  0  0  0  0  0  0  0
    5.2136    1.9989   -0.8031 C   0  0  0  0  0  0  0  0  0  0  0  0
   -0.5546   -0.5661    1.4141 C   0  0  0  0  0  0  0  0  0  0  0  0
   -0.2902    0.6912    1.0076 C   0  0  0  0  0  0  0  0  0  0  0  0
   -1.0934    1.5270    0.0914 C   0  0  0  0  0  0  0  0  0  0  0  0
   -1.2171    2.8962    0.3303 C   0  0  0  0  0  0  0  0  0  0  0  0
   -1.9320    3.7447   -0.4659 C   0  0  0  0  0  0  0  0  0  0  0  0
   -2.5712    3.2377   -1.5681 C   0  0  0  0  0  0  0  0  0  0  0  0
   -3.3178    3.9839   -2.4428 O   0  0  0  0  0  0  0  0  0  0  0  0
   -2.4677    1.8849   -1.8322 C   0  0  0  0  0  0  0  0  0  0  0  0
   -1.7464    1.0205   -1.0312 C   0  0  0  0  0  0  0  0  0  0  0  0
   -1.7924   -1.2851    1.2135 C   0  0  0  0  0  0  0  0  0  0  0  0
   -3.0368   -0.6553    1.2802 C   0  0  0  0  0  0  0  0  0  0  0  0
   -4.1242   -1.4484    1.0739 C   0  0  0  0  0  0  0  0  0  0  0  0
   -4.0472   -2.8008    0.8107 C   0  0  0  0  0  0  0  0  0  0  0  0
   -5.2642   -3.4306    0.6303 O   0  0  0  0  0  0  0  0  0  0  0  0
   -2.8095   -3.4436    0.7412 C   0  0  0  0  0  0  0  0  0  0  0  0
   -1.6893   -2.6340    0.9528 C   0  0  0  0  0  0  0  0  0  0  0  0
    1.1060    2.1526    1.8487 H   0  0  0  0  0  0  0  0  0  0  0  0
    0.7077   -1.8179    2.6774 H   0  0  0  0  0  0  0  0  0  0  0  0
    3.6066   -2.7793   -2.4154 H   0  0  0  0  0  0  0  0  0  0  0  0
    3.9168   -3.7256   -0.9541 H   0  0  0  0  0  0  0  0  0  0  0  0
    5.1465   -2.5451   -1.4032 H   0  0  0  0  0  0  0  0  0  0  0  0
    6.1080    1.4853   -1.2090 H   0  0  0  0  0  0  0  0  0  0  0  0
    4.7009    2.6453   -1.5227 H   0  0  0  0  0  0  0  0  0  0  0  0
    5.5564    2.6509    0.0229 H   0  0  0  0  0  0  0  0  0  0  0  0
   -0.7048    3.2705    1.2042 H   0  0  0  0  0  0  0  0  0  0  0  0
   -2.0007    4.7993   -0.2425 H   0  0  0  0  0  0  0  0  0  0  0  0
   -3.5195    4.9811   -2.2755 H   0  0  0  0  0  0  0  0  0  0  0  0
   -2.9208    1.3397   -2.6690 H   0  0  0  0  0  0  0  0  0  0  0  0
   -1.6239   -0.0402   -1.1788 H   0  0  0  0  0  0  0  0  0  0  0  0
   -3.0313    0.3924    1.4882 H   0  0  0  0  0  0  0  0  0  0  0  0
   -5.0790   -0.9200    1.1338 H   0  0  0  0  0  0  0  0  0  0  0  0
   -5.3681   -4.3252    0.1816 H   0  0  0  0  0  0  0  0  0  0  0  0
   -2.7977   -4.4969    0.5354 H   0  0  0  0  0  0  0  0  0  0  0  0
   -0.7339   -3.1254    0.9006 H   0  0  0  0  0  0  0  0  0  0  0  0
  1  2  1  0
  2  3  1  0
  3  4  1  0
  4  5  1  0
  5  6  2  0
  5  7  1  0
  7  8  1  0
  4  9  2  0
  9 10  1  0
 10 11  2  0
 10 12  1  0
 12 13  1  0
  3 14  1  0
 14 15  2  0
 15 16  1  0
 16 17  2  0
 17 18  1  0
 18 19  2  0
 19 20  1  0
 19 21  1  0
 21 22  2  0
 14 23  1  0
 23 24  2  0
 24 25  1  0
 25 26  2  0
 26 27  1  0
 26 28  1  0
 28 29  2  0
  9  1  1  0
 22 16  1  0
 29 23  1  0
 15  1  1  0
  1 30  1  1
  3 31  1  1
  8 32  1  0
  8 33  1  0
  8 34  1  0
 13 35  1  0
 13 36  1  0
 13 37  1  0
 17 38  1  0
 18 39  1  0
 20 40  1  0
 21 41  1  0
 22 42  1  0
 24 43  1  0
 25 44  1  0
 27 45  1  0
 28 46  1  0
 29 47  1  0
M  END
$$$$
