@<TRIPOS>MOLECULE
*****
 15 14 0 0 0
SMALL
GASTEIGER

@<TRIPOS>ATOM
      1 O          -2.6427    1.4485   -0.1738 O.3     1  UNL1       -0.4750
      2 C          -1.5190    0.9145    0.4421 C.2     1  UNL1        0.3718
      3 O          -0.9506    1.4161    1.4460 O.2     1  UNL1       -0.2417
      4 C          -0.9697   -0.3132   -0.1241 C.2     1  UNL1        0.2084
      5 C          -1.5677   -0.8433   -1.1824 C.2     1  UNL1       -0.0491
      6 O           0.1501   -0.9506    0.3954 O.2     1  UNL1       -0.3973
      7 P           1.7401   -0.3649    0.2797 P.3     1  UNL1        0.5282
      8 O           2.4587   -0.5930    1.8061 O.3     1  UNL1       -0.2930
      9 O           1.8252    1.2588   -0.1370 O.3     1  UNL1       -0.2930
     10 O           2.5522   -1.1789   -0.7150 O.2     1  UNL1       -0.2156
     11 H          -2.9961    2.3498    0.1585 H       1  UNL1        0.2955
     12 H          -2.1088   -1.2145   -2.0428 H       1  UNL1        0.0573
     13 H          -1.2000   -1.7537   -1.6409 H       1  UNL1        0.0573
     14 H           2.4724   -1.5936    1.9386 H       1  UNL1        0.2231
     15 H           2.7560    1.4182   -0.4504 H       1  UNL1        0.2231
@<TRIPOS>BOND
     1     1     2    1
     2     2     3    2
     3     2     4    1
     4     4     5    2
     5     4     6    1
     6     6     7    1
     7     7     8    1
     8     7     9    1
     9     7    10    2
    10     1    11    1
    11     5    12    1
    12     5    13    1
    13     8    14    1
    14     9    15    1
