@<TRIPOS>MOLECULE
*****
 44 46 0 0 0
SMALL
GASTEIGER

@<TRIPOS>ATOM
      1 N          -4.7241   -2.2910   -1.0448 N.pl3   1  UNL1       -0.3134
      2 C          -3.8949   -1.2795   -0.5131 C.2     1  UNL1        0.2766
      3 N          -3.4796   -0.2515   -1.1112 N.2     1  UNL1       -0.2212
      4 C          -2.6575    0.8066   -0.6769 C.3     1  UNL1        0.1426
      5 C          -3.2726    2.1387   -0.9665 C.3     1  UNL1        0.1211
      6 F          -3.5151    2.3650   -2.2843 F       1  UNL1       -0.2461
      7 C          -1.3549    0.6919   -1.4196 C.ar    1  UNL1        0.1086
      8 N          -0.1953    0.6200   -0.7336 N.ar    1  UNL1       -0.2313
      9 C           0.9796    0.5589   -1.3551 C.ar    1  UNL1        0.1257
     10 N           2.2208    0.4819   -0.6071 N.am    1  UNL1       -0.2650
     11 C           2.7722   -0.7761   -0.2443 C.2     1  UNL1        0.2709
     12 O           2.1218   -1.8048   -0.6095 O.2     1  UNL1       -0.2680
     13 C           4.0065   -0.9165    0.5012 C.ar    1  UNL1        0.1658
     14 N           4.7661    0.0914    0.9328 N.ar    1  UNL1       -0.1604
     15 N           5.8266   -0.3536    1.5813 N.ar    1  UNL1       -0.2091
     16 C           6.8172    0.5377    2.1546 C.3     1  UNL1        0.3342
     17 F           6.9848    1.6092    1.2716 F       1  UNL1       -0.1832
     18 F           8.0233   -0.1050    2.3294 F       1  UNL1       -0.1832
     19 C           5.7791   -1.6936    1.5860 C.ar    1  UNL1        0.0503
     20 C           4.6253   -2.0781    0.9020 C.ar    1  UNL1        0.0909
     21 CL          4.1115   -3.7298    0.6341 Cl      1  UNL1       -0.0795
     22 C           1.0465    0.5674   -2.7242 C.ar    1  UNL1       -0.0188
     23 C          -0.0962    0.6381   -3.4655 C.ar    1  UNL1       -0.0213
     24 C          -1.3153    0.7002   -2.7828 C.ar    1  UNL1        0.1472
     25 F          -2.4357    0.7243   -3.5635 F       1  UNL1       -0.2035
     26 C          -2.3390    0.7151    0.8284 C.3     1  UNL1        0.0265
     27 C          -3.1297   -0.2752    1.5758 C.3     1  UNL1        0.1999
     28 C          -4.3693    0.2428    2.2568 C.3     1  UNL1        0.4266
     29 F          -4.0818    1.2270    3.1827 F       1  UNL1       -0.1669
     30 F          -4.8732   -0.8414    2.9933 F       1  UNL1       -0.1669
     31 F          -5.3700    0.6143    1.4100 F       1  UNL1       -0.1669
     32 O          -3.4818   -1.4236    0.8275 O.2     1  UNL1       -0.4534
     33 H          -4.4539   -3.2825   -0.8595 H       1  UNL1        0.1466
     34 H          -5.5829   -2.1142   -1.6067 H       1  UNL1        0.1466
     35 H          -4.2905    2.2164   -0.4613 H       1  UNL1        0.0643
     36 H          -2.6303    2.9854   -0.6106 H       1  UNL1        0.0643
     37 H           2.7385    1.3313   -0.3172 H       1  UNL1        0.1566
     38 H           6.4592    0.9252    3.1226 H       1  UNL1        0.1295
     39 H           6.5166   -2.3292    2.0451 H       1  UNL1        0.0843
     40 H           2.0433    0.5157   -3.1831 H       1  UNL1        0.0653
     41 H          -0.0666    0.6462   -4.5555 H       1  UNL1        0.0648
     42 H          -1.2403    0.5432    0.9437 H       1  UNL1        0.0332
     43 H          -2.5105    1.7222    1.2529 H       1  UNL1        0.0332
     44 H          -2.4779   -0.6704    2.4121 H       1  UNL1        0.0826
@<TRIPOS>BOND
     1     1     2    1
     2     2     3    2
     3     3     4    1
     4     4     5    1
     5     5     6    1
     6     4     7    1
     7     7     8   ar
     8     8     9   ar
     9     9    10    1
    10    10    11   am
    11    11    12    2
    12    11    13    1
    13    13    14   ar
    14    14    15   ar
    15    15    16    1
    16    16    17    1
    17    16    18    1
    18    15    19   ar
    19    19    20   ar
    20    20    21    1
    21     9    22   ar
    22    22    23   ar
    23    23    24   ar
    24    24    25    1
    25     4    26    1
    26    26    27    1
    27    27    28    1
    28    28    29    1
    29    28    30    1
    30    28    31    1
    31    27    32    1
    32    32     2    1
    33    24     7   ar
    34    20    13   ar
    35     1    33    1
    36     1    34    1
    37     5    35    1
    38     5    36    1
    39    10    37    1
    40    16    38    1
    41    19    39    1
    42    22    40    1
    43    23    41    1
    44    26    42    1
    45    26    43    1
    46    27    44    1
