@<TRIPOS>MOLECULE
*****
 51 55 0 0 0
SMALL
GASTEIGER

@<TRIPOS>ATOM
      1 C          -5.5476   -3.0669   -1.3008 C.3     1  UNL1       -0.0216
      2 C          -5.4340   -1.6344   -0.8551 C.ar    1  UNL1        0.0491
      3 N          -4.4856   -1.1029   -0.1341 N.ar    1  UNL1       -0.2408
      4 C          -4.3241   -0.0341    0.2482 C.ar    1  UNL1        0.1458
      5 C          -3.4394    0.8783    1.0330 C.ar    1  UNL1        0.1896
      6 N          -3.7481    1.4356    2.2257 N.ar    1  UNL1       -0.1269
      7 N          -2.7273    2.1892    2.6105 N.ar    1  UNL1       -0.1320
      8 C          -1.7469    2.1336    1.6807 C.ar    1  UNL1        0.1542
      9 N          -2.2194    1.3225    0.7342 N.ar    1  UNL1       -0.3062
     10 C          -1.3702    1.0464   -0.4104 C.3     1  UNL1        0.0423
     11 C           0.0659    0.8423    0.0321 C.3     1  UNL1        0.0338
     12 N           0.5057    1.8514    0.9424 N.am    1  UNL1       -0.2860
     13 C           1.8931    1.9555    1.2271 C.2     1  UNL1        0.2472
     14 O           2.3049    2.8272    2.0335 O.2     1  UNL1       -0.2700
     15 C           2.8882    1.0916    0.6233 C.ar    1  UNL1        0.0370
     16 C           3.6714    1.5149   -0.4597 C.ar    1  UNL1       -0.0490
     17 C           4.6048    0.6467   -0.9845 C.ar    1  UNL1       -0.0528
     18 C           4.8008   -0.6187   -0.4908 C.ar    1  UNL1       -0.0113
     19 C           5.7966   -1.5019   -1.0838 C.ar    1  UNL1        0.0193
     20 C           6.2005   -2.7296   -0.7726 C.ar    1  UNL1       -0.0469
     21 C           7.1647   -3.3292   -1.4932 C.ar    1  UNL1       -0.0541
     22 C           7.7025   -2.6250   -2.5453 C.ar    1  UNL1       -0.0237
     23 S           6.7698   -1.0761   -2.4562 S.2     1  UNL1       -0.0967
     24 C           4.0480   -1.0319    0.5535 C.ar    1  UNL1       -0.0528
     25 C           3.0990   -0.1757    1.1014 C.ar    1  UNL1       -0.0490
     26 C          -0.4152    2.7609    1.5395 C.3     1  UNL1        0.0834
     27 C           0.0543    3.3434    2.8605 C.3     1  UNL1       -0.0393
     28 S          -5.8916    0.8044   -0.4875 S.2     1  UNL1       -0.0691
     29 C          -6.4363   -0.7034   -1.2206 C.ar    1  UNL1        0.0098
     30 C          -7.6651   -0.9570   -2.0343 C.3     1  UNL1       -0.0317
     31 H          -4.5571   -3.5349   -1.4674 H       1  UNL1        0.0293
     32 H          -6.0688   -3.1234   -2.2901 H       1  UNL1        0.0293
     33 H          -6.1851   -3.5974   -0.5804 H       1  UNL1        0.0293
     34 H          -1.4246    1.8519   -1.1361 H       1  UNL1        0.0508
     35 H          -1.6860    0.0821   -0.8576 H       1  UNL1        0.0508
     36 H           0.1741   -0.1815    0.4709 H       1  UNL1        0.0482
     37 H           0.6862    0.8548   -0.8878 H       1  UNL1        0.0482
     38 H           3.5034    2.5179   -0.8384 H       1  UNL1        0.0625
     39 H           5.2015    1.0018   -1.8277 H       1  UNL1        0.0624
     40 H           5.7308   -3.2621    0.0987 H       1  UNL1        0.0629
     41 H           7.5629   -4.3602   -1.2960 H       1  UNL1        0.0623
     42 H           8.4821   -2.8634   -3.2821 H       1  UNL1        0.0693
     43 H           4.1681   -2.0113    0.9710 H       1  UNL1        0.0624
     44 H           2.5227   -0.5583    1.9366 H       1  UNL1        0.0625
     45 H          -0.4855    3.6678    0.8522 H       1  UNL1        0.0579
     46 H           0.6174    4.2508    2.6656 H       1  UNL1        0.0252
     47 H           0.5213    2.5958    3.5149 H       1  UNL1        0.0252
     48 H          -0.8958    3.6422    3.4036 H       1  UNL1        0.0252
     49 H          -8.3014   -0.0277   -2.0574 H       1  UNL1        0.0283
     50 H          -7.3817   -1.2610   -3.0711 H       1  UNL1        0.0283
     51 H          -8.3039   -1.7409   -1.5795 H       1  UNL1        0.0283
@<TRIPOS>BOND
     1     1     2    1
     2     2     3   ar
     3     3     4   ar
     4     4     5    1
     5     5     6   ar
     6     6     7   ar
     7     7     8   ar
     8     8     9   ar
     9     9    10    1
    10    10    11    1
    11    11    12    1
    12    12    13   am
    13    13    14    2
    14    13    15    1
    15    15    16   ar
    16    16    17   ar
    17    17    18   ar
    18    18    19    1
    19    19    20   ar
    20    20    21   ar
    21    21    22   ar
    22    22    23   ar
    23    18    24   ar
    24    24    25   ar
    25    12    26    1
    26    26    27    1
    27     4    28   ar
    28    28    29   ar
    29    29    30    1
    30    29     2   ar
    31     9     5   ar
    32    25    15   ar
    33    26     8    1
    34    23    19   ar
    35     1    31    1
    36     1    32    1
    37     1    33    1
    38    10    34    1
    39    10    35    1
    40    11    36    1
    41    11    37    1
    42    16    38    1
    43    17    39    1
    44    20    40    1
    45    21    41    1
    46    22    42    1
    47    24    43    1
    48    25    44    1
    49    26    45    1
    50    27    46    1
    51    27    47    1
    52    27    48    1
    53    30    49    1
    54    30    50    1
    55    30    51    1
