@<TRIPOS>MOLECULE
*****
 40 42 0 0 0
SMALL
GASTEIGER

@<TRIPOS>ATOM
      1 O          -2.8172   -0.5125   -1.5730 O.2     1  UNL1       -0.2699
      2 C          -3.2729   -0.1708   -0.4447 C.2     1  UNL1        0.2483
      3 N          -2.5645    0.8077    0.2960 N.am    1  UNL1       -0.2814
      4 C          -1.3651    1.4131   -0.1870 C.ar    1  UNL1        0.0354
      5 C          -1.3149    2.5518   -0.9398 C.ar    1  UNL1       -0.0404
      6 C          -0.1147    3.0717   -1.3667 C.ar    1  UNL1       -0.0583
      7 C           1.0724    2.4305   -1.0287 C.ar    1  UNL1       -0.0404
      8 C           1.0728    1.2980   -0.2835 C.ar    1  UNL1        0.0354
      9 N           2.2186    0.5636    0.1188 N.am    1  UNL1       -0.2814
     10 C           3.5654    0.8688   -0.1771 C.2     1  UNL1        0.2483
     11 O           3.8110    1.8867   -0.8642 O.2     1  UNL1       -0.2699
     12 C           4.6907    0.0294    0.2957 C.ar    1  UNL1        0.0370
     13 C           4.5313   -1.0895    1.0432 C.ar    1  UNL1       -0.0496
     14 C           5.6684   -1.8076    1.4354 C.ar    1  UNL1       -0.0610
     15 C           6.9415   -1.4206    1.0908 C.ar    1  UNL1       -0.0617
     16 C           7.0574   -0.2768    0.3301 C.ar    1  UNL1       -0.0610
     17 C           5.9668    0.4502   -0.0713 C.ar    1  UNL1       -0.0496
     18 C          -0.1678    0.8056    0.1281 C.ar    1  UNL1       -0.0192
     19 C          -4.4875   -0.7866    0.0397 C.ar    1  UNL1        0.0370
     20 C          -5.1252   -1.7390   -0.7454 C.ar    1  UNL1       -0.0496
     21 C          -6.2833   -2.3463   -0.3167 C.ar    1  UNL1       -0.0610
     22 C          -6.8650   -2.0468    0.8975 C.ar    1  UNL1       -0.0617
     23 C          -6.2473   -1.1041    1.6914 C.ar    1  UNL1       -0.0610
     24 C          -5.0795   -0.5023    1.2416 C.ar    1  UNL1       -0.0496
     25 H          -2.9602    1.0739    1.2254 H       1  UNL1        0.1551
     26 H          -2.2196    3.0578   -1.2088 H       1  UNL1        0.0636
     27 H          -0.1428    3.9725   -1.9574 H       1  UNL1        0.0619
     28 H           1.9683    2.8787   -1.3868 H       1  UNL1        0.0636
     29 H           2.1044   -0.3211    0.7090 H       1  UNL1        0.1551
     30 H           3.5571   -1.4449    1.3458 H       1  UNL1        0.0625
     31 H           5.5589   -2.6992    2.0297 H       1  UNL1        0.0618
     32 H           7.8311   -1.9494    1.3760 H       1  UNL1        0.0618
     33 H           8.0501    0.0623    0.0369 H       1  UNL1        0.0618
     34 H           6.1208    1.3528   -0.6760 H       1  UNL1        0.0625
     35 H          -0.1624   -0.0964    0.7212 H       1  UNL1        0.0655
     36 H          -4.6857   -1.9910   -1.7053 H       1  UNL1        0.0625
     37 H          -6.7999   -3.1017   -0.9259 H       1  UNL1        0.0618
     38 H          -7.7771   -2.5256    1.2345 H       1  UNL1        0.0618
     39 H          -6.7026   -0.8683    2.6441 H       1  UNL1        0.0618
     40 H          -4.6316    0.2253    1.8900 H       1  UNL1        0.0625
@<TRIPOS>BOND
     1     1     2    2
     2     2     3   am
     3     3     4    1
     4     4     5   ar
     5     5     6   ar
     6     6     7   ar
     7     7     8   ar
     8     8     9    1
     9     9    10   am
    10    10    11    2
    11    10    12    1
    12    12    13   ar
    13    13    14   ar
    14    14    15   ar
    15    15    16   ar
    16    16    17   ar
    17     8    18   ar
    18     2    19    1
    19    19    20   ar
    20    20    21   ar
    21    21    22   ar
    22    22    23   ar
    23    23    24   ar
    24    18     4   ar
    25    24    19   ar
    26    17    12   ar
    27     3    25    1
    28     5    26    1
    29     6    27    1
    30     7    28    1
    31     9    29    1
    32    13    30    1
    33    14    31    1
    34    15    32    1
    35    16    33    1
    36    17    34    1
    37    18    35    1
    38    20    36    1
    39    21    37    1
    40    22    38    1
    41    23    39    1
    42    24    40    1
