
     RDKit          3D

 56 58  0  0  0  0  0  0  0  0999 V2000
   -6.8040    3.4303   -2.5109 C   0  0  0  0  0  0  0  0  0  0  0  0
   -5.3841    3.1493   -2.2219 C   0  0  0  0  0  0  0  0  0  0  0  0
   -4.2401    3.6313   -2.7290 C   0  0  0  0  0  0  0  0  0  0  0  0
   -3.1272    3.1351   -2.2161 N   0  0  0  0  0  0  0  0  0  0  0  0
   -2.9884    2.3526   -1.4009 C   0  0  0  0  0  0  0  0  0  0  0  0
   -1.9402    1.5907   -0.6099 C   0  0  0  0  0  0  0  0  0  0  0  0
   -2.2985    0.6896    0.3418 C   0  0  0  0  0  0  0  0  0  0  0  0
   -1.3289    0.0027    1.0496 C   0  0  0  0  0  0  0  0  0  0  0  0
   -1.5582   -0.9244    2.0268 O   0  0  0  0  0  0  0  0  0  0  0  0
   -2.7976   -1.3558    2.5002 C   0  0  0  0  0  0  0  0  0  0  0  0
   -2.8098   -1.1392    3.9999 C   0  0  0  0  0  0  0  0  0  0  0  0
   -2.9116   -2.8290    2.1572 C   0  0  0  0  0  0  0  0  0  0  0  0
   -4.2465   -3.4045    2.5126 C   0  0  0  0  0  0  0  0  0  0  0  0
   -2.8122   -2.8925    0.7477 O   0  0  0  0  0  0  0  0  0  0  0  0
   -0.0027    0.2672    0.7528 C   0  0  0  0  0  0  0  0  0  0  0  0
    0.3957    1.1697   -0.2012 C   0  0  0  0  0  0  0  0  0  0  0  0
    1.7987    1.4479   -0.5139 C   0  0  0  0  0  0  0  0  0  0  0  0
    2.0574    2.2857   -1.4162 O   0  0  0  0  0  0  0  0  0  0  0  0
    2.8854    0.8401    0.1279 N   0  0  0  0  0  0  0  0  0  0  0  0
    4.2372    1.1556   -0.2266 C   0  0  1  0  0  0  0  0  0  0  0  0
    4.9971    1.8283    0.8894 C   0  0  0  0  0  0  0  0  0  0  0  0
    4.9016   -0.0369   -0.7438 C   0  0  0  0  0  0  0  0  0  0  0  0
    6.1724   -0.4251   -0.3779 C   0  0  0  0  0  0  0  0  0  0  0  0
    6.7218   -1.5415   -0.8994 N   0  0  0  0  0  0  0  0  0  0  0  0
    6.0565   -2.3089   -1.7862 C   0  0  0  0  0  0  0  0  0  0  0  0
    6.6909   -3.5513   -2.3550 C   0  0  0  0  0  0  0  0  0  0  0  0
    8.0521   -3.4913   -2.0399 F   0  0  0  0  0  0  0  0  0  0  0  0
    6.4877   -3.5141   -3.7130 F   0  0  0  0  0  0  0  0  0  0  0  0
    6.0886   -4.6752   -1.8342 F   0  0  0  0  0  0  0  0  0  0  0  0
    4.8221   -1.9560   -2.1588 N   0  0  0  0  0  0  0  0  0  0  0  0
    4.2456   -0.8379   -1.6499 C   0  0  0  0  0  0  0  0  0  0  0  0
   -0.6204    1.8299   -0.8802 C   0  0  0  0  0  0  0  0  0  0  0  0
   -4.7871    1.9577   -0.9817 S   0  0  0  0  0  0  0  0  0  0  0  0
   -7.0875    4.3246   -1.9311 H   0  0  0  0  0  0  0  0  0  0  0  0
   -6.9272    3.6708   -3.5846 H   0  0  0  0  0  0  0  0  0  0  0  0
   -7.4663    2.5744   -2.2584 H   0  0  0  0  0  0  0  0  0  0  0  0
   -4.2265    4.3958   -3.5255 H   0  0  0  0  0  0  0  0  0  0  0  0
   -3.3486    0.4739    0.5833 H   0  0  0  0  0  0  0  0  0  0  0  0
   -3.6522   -0.8571    2.0131 H   0  0  0  0  0  0  0  0  0  0  0  0
   -3.8321   -0.9381    4.3804 H   0  0  0  0  0  0  0  0  0  0  0  0
   -2.1838   -0.2473    4.2039 H   0  0  0  0  0  0  0  0  0  0  0  0
   -2.3172   -1.9998    4.4764 H   0  0  0  0  0  0  0  0  0  0  0  0
   -2.1033   -3.4382    2.5574 H   0  0  0  0  0  0  0  0  0  0  0  0
   -4.0940   -4.4463    2.8596 H   0  0  0  0  0  0  0  0  0  0  0  0
   -4.9424   -3.4524    1.6348 H   0  0  0  0  0  0  0  0  0  0  0  0
   -4.7681   -2.8646    3.3244 H   0  0  0  0  0  0  0  0  0  0  0  0
   -1.9070   -3.1089    0.4570 H   0  0  0  0  0  0  0  0  0  0  0  0
    0.7903   -0.2521    1.2859 H   0  0  0  0  0  0  0  0  0  0  0  0
    2.7306    0.1507    0.8720 H   0  0  0  0  0  0  0  0  0  0  0  0
    4.2045    1.9087   -1.0567 H   0  0  0  0  0  0  0  0  0  0  0  0
    4.4258    2.7077    1.2190 H   0  0  0  0  0  0  0  0  0  0  0  0
    5.2775    1.1488    1.7115 H   0  0  0  0  0  0  0  0  0  0  0  0
    5.9454    2.2183    0.4430 H   0  0  0  0  0  0  0  0  0  0  0  0
    6.6982    0.1893    0.3277 H   0  0  0  0  0  0  0  0  0  0  0  0
    3.2359   -0.5943   -1.9875 H   0  0  0  0  0  0  0  0  0  0  0  0
   -0.4053    2.5560   -1.6447 H   0  0  0  0  0  0  0  0  0  0  0  0
  1  2  1  0
  2  3  2  0
  3  4  1  0
  4  5  2  0
  5  6  1  0
  6  7  2  0
  7  8  1  0
  8  9  1  0
  9 10  1  0
 10 11  1  0
 10 12  1  0
 12 13  1  0
 12 14  1  0
  8 15  2  0
 15 16  1  0
 16 17  1  0
 17 18  2  0
 17 19  1  0
 19 20  1  0
 20 21  1  0
 20 22  1  0
 22 23  2  0
 23 24  1  0
 24 25  2  0
 25 26  1  0
 26 27  1  0
 26 28  1  0
 26 29  1  0
 25 30  1  0
 30 31  2  0
 16 32  2  0
  5 33  1  0
 33  2  1  0
 32  6  1  0
 31 22  1  0
  1 34  1  0
  1 35  1  0
  1 36  1  0
  3 37  1  0
  7 38  1  0
 10 39  1  0
 11 40  1  0
 11 41  1  0
 11 42  1  0
 12 43  1  0
 13 44  1  0
 13 45  1  0
 13 46  1  0
 14 47  1  0
 15 48  1  0
 19 49  1  0
 20 50  1  6
 21 51  1  0
 21 52  1  0
 21 53  1  0
 23 54  1  0
 31 55  1  0
 32 56  1  0
M  END
$$$$
