@<TRIPOS>MOLECULE
*****
 56 58 0 0 0
SMALL
GASTEIGER

@<TRIPOS>ATOM
      1 C          -6.8040    3.4303   -2.5109 C.3     1  UNL1       -0.0319
      2 C          -5.3841    3.1493   -2.2219 C.ar    1  UNL1        0.0068
      3 C          -4.2401    3.6313   -2.7290 C.ar    1  UNL1        0.0383
      4 N          -3.1272    3.1351   -2.2161 N.ar    1  UNL1       -0.2471
      5 C          -2.9884    2.3526   -1.4009 C.ar    1  UNL1        0.1086
      6 C          -1.9402    1.5907   -0.6099 C.ar    1  UNL1        0.0113
      7 C          -2.2985    0.6896    0.3418 C.ar    1  UNL1       -0.0102
      8 C          -1.3289    0.0027    1.0496 C.ar    1  UNL1        0.1224
      9 O          -1.5582   -0.9244    2.0268 O.3     1  UNL1       -0.4865
     10 C          -2.7976   -1.3558    2.5002 C.3     1  UNL1        0.1228
     11 C          -2.8098   -1.1392    3.9999 C.3     1  UNL1       -0.0253
     12 C          -2.9116   -2.8290    2.1572 C.3     1  UNL1        0.0889
     13 C          -4.2465   -3.4045    2.5126 C.3     1  UNL1       -0.0355
     14 O          -2.8122   -2.8925    0.7477 O.3     1  UNL1       -0.3884
     15 C          -0.0027    0.2672    0.7528 C.ar    1  UNL1       -0.0078
     16 C           0.3957    1.1697   -0.2012 C.ar    1  UNL1        0.0408
     17 C           1.7987    1.4479   -0.5139 C.2     1  UNL1        0.2447
     18 O           2.0574    2.2857   -1.4162 O.2     1  UNL1       -0.2702
     19 N           2.8854    0.8401    0.1279 N.am    1  UNL1       -0.3047
     20 C           4.2372    1.1556   -0.2266 C.3     1  UNL1        0.0487
     21 C           4.9971    1.8283    0.8894 C.3     1  UNL1       -0.0423
     22 C           4.9016   -0.0369   -0.7438 C.ar    1  UNL1        0.0087
     23 C           6.1724   -0.4251   -0.3779 C.ar    1  UNL1        0.0363
     24 N           6.7218   -1.5415   -0.8994 N.ar    1  UNL1       -0.2321
     25 C           6.0565   -2.3089   -1.7862 C.ar    1  UNL1        0.2339
     26 C           6.6909   -3.5513   -2.3550 C.3     1  UNL1        0.4522
     27 F           8.0521   -3.4913   -2.0399 F       1  UNL1       -0.1632
     28 F           6.4877   -3.5141   -3.7130 F       1  UNL1       -0.1632
     29 F           6.0886   -4.6752   -1.8342 F       1  UNL1       -0.1632
     30 N           4.8221   -1.9560   -2.1588 N.ar    1  UNL1       -0.2321
     31 C           4.2456   -0.8379   -1.6499 C.ar    1  UNL1        0.0363
     32 C          -0.6204    1.8299   -0.8802 C.ar    1  UNL1       -0.0397
     33 S          -4.7871    1.9577   -0.9817 S.2     1  UNL1       -0.0725
     34 H          -7.0875    4.3246   -1.9311 H       1  UNL1        0.0283
     35 H          -6.9272    3.6708   -3.5846 H       1  UNL1        0.0283
     36 H          -7.4663    2.5744   -2.2584 H       1  UNL1        0.0283
     37 H          -4.2265    4.3958   -3.5255 H       1  UNL1        0.0838
     38 H          -3.3486    0.4739    0.5833 H       1  UNL1        0.0661
     39 H          -3.6522   -0.8571    2.0131 H       1  UNL1        0.0756
     40 H          -3.8321   -0.9381    4.3804 H       1  UNL1        0.0266
     41 H          -2.1838   -0.2473    4.2039 H       1  UNL1        0.0266
     42 H          -2.3172   -1.9998    4.4764 H       1  UNL1        0.0266
     43 H          -2.1033   -3.4382    2.5574 H       1  UNL1        0.0627
     44 H          -4.0940   -4.4463    2.8596 H       1  UNL1        0.0256
     45 H          -4.9424   -3.4524    1.6348 H       1  UNL1        0.0256
     46 H          -4.7681   -2.8646    3.3244 H       1  UNL1        0.0256
     47 H          -1.9070   -3.1089    0.4570 H       1  UNL1        0.2099
     48 H           0.7903   -0.2521    1.2859 H       1  UNL1        0.0662
     49 H           2.7306    0.1507    0.8720 H       1  UNL1        0.1496
     50 H           4.2045    1.9087   -1.0567 H       1  UNL1        0.0546
     51 H           4.4258    2.7077    1.2190 H       1  UNL1        0.0251
     52 H           5.2775    1.1488    1.7115 H       1  UNL1        0.0251
     53 H           5.9454    2.2183    0.4430 H       1  UNL1        0.0251
     54 H           6.6982    0.1893    0.3277 H       1  UNL1        0.0834
     55 H           3.2359   -0.5943   -1.9875 H       1  UNL1        0.0834
     56 H          -0.4053    2.5560   -1.6447 H       1  UNL1        0.0632
@<TRIPOS>BOND
     1     1     2    1
     2     2     3   ar
     3     3     4   ar
     4     4     5   ar
     5     5     6    1
     6     6     7   ar
     7     7     8   ar
     8     8     9    1
     9     9    10    1
    10    10    11    1
    11    10    12    1
    12    12    13    1
    13    12    14    1
    14     8    15   ar
    15    15    16   ar
    16    16    17    1
    17    17    18    2
    18    17    19   am
    19    19    20    1
    20    20    21    1
    21    20    22    1
    22    22    23   ar
    23    23    24   ar
    24    24    25   ar
    25    25    26    1
    26    26    27    1
    27    26    28    1
    28    26    29    1
    29    25    30   ar
    30    30    31   ar
    31    16    32   ar
    32     5    33   ar
    33    33     2   ar
    34    32     6   ar
    35    31    22   ar
    36     1    34    1
    37     1    35    1
    38     1    36    1
    39     3    37    1
    40     7    38    1
    41    10    39    1
    42    11    40    1
    43    11    41    1
    44    11    42    1
    45    12    43    1
    46    13    44    1
    47    13    45    1
    48    13    46    1
    49    14    47    1
    50    15    48    1
    51    19    49    1
    52    20    50    1
    53    21    51    1
    54    21    52    1
    55    21    53    1
    56    23    54    1
    57    31    55    1
    58    32    56    1
