
     RDKit          3D

 33 34  0  0  0  0  0  0  0  0999 V2000
    5.2854    0.8308   -0.1825 C   0  0  0  0  0  0  0  0  0  0  0  0
    3.9458    0.2482    0.0073 C   0  0  0  0  0  0  0  0  0  0  0  0
    3.5308   -0.9132   -0.6139 C   0  0  0  0  0  0  0  0  0  0  0  0
    2.2651   -1.4390   -0.4174 C   0  0  0  0  0  0  0  0  0  0  0  0
    1.3853   -0.8101    0.4084 C   0  0  0  0  0  0  0  0  0  0  0  0
   -0.2427   -1.3976    0.7225 S   0  0  0  0  0  6  0  0  0  0  0  0
   -0.1803   -2.9075    0.5153 O   0  0  0  0  0  0  0  0  0  0  0  0
   -0.5199   -1.1774    2.1589 O   0  0  0  0  0  0  0  0  0  0  0  0
   -1.3818   -0.7856   -0.3601 N   0  0  0  0  0  0  0  0  0  0  0  0
   -1.1931   -1.1149   -1.7661 C   0  0  0  0  0  0  0  0  0  0  0  0
   -2.5031    0.0155   -0.0445 C   0  0  0  0  0  0  0  0  0  0  0  0
   -2.3936    1.3815   -0.0305 C   0  0  0  0  0  0  0  0  0  0  0  0
   -3.5094    2.1290    0.2821 C   0  0  0  0  0  0  0  0  0  0  0  0
   -4.7208    1.5599    0.5785 C   0  0  0  0  0  0  0  0  0  0  0  0
   -4.8431    0.1776    0.5674 C   0  0  0  0  0  0  0  0  0  0  0  0
   -3.7283   -0.5630    0.2553 C   0  0  0  0  0  0  0  0  0  0  0  0
    1.7944    0.3560    1.0353 C   0  0  0  0  0  0  0  0  0  0  0  0
    3.0553    0.8841    0.8426 C   0  0  0  0  0  0  0  0  0  0  0  0
    6.0202   -0.0168   -0.0618 H   0  0  0  0  0  0  0  0  0  0  0  0
    5.5187    1.5313    0.6422 H   0  0  0  0  0  0  0  0  0  0  0  0
    5.4290    1.2826   -1.1859 H   0  0  0  0  0  0  0  0  0  0  0  0
    4.2067   -1.4385   -1.2774 H   0  0  0  0  0  0  0  0  0  0  0  0
    1.9495   -2.3481   -0.9077 H   0  0  0  0  0  0  0  0  0  0  0  0
   -0.4451   -1.8748   -1.9475 H   0  0  0  0  0  0  0  0  0  0  0  0
   -0.9592   -0.1594   -2.2762 H   0  0  0  0  0  0  0  0  0  0  0  0
   -2.2182   -1.4136   -2.1353 H   0  0  0  0  0  0  0  0  0  0  0  0
   -1.4556    1.8283   -0.2599 H   0  0  0  0  0  0  0  0  0  0  0  0
   -3.3928    3.2010    0.2851 H   0  0  0  0  0  0  0  0  0  0  0  0
   -5.5498    2.1937    0.8132 H   0  0  0  0  0  0  0  0  0  0  0  0
   -5.7988   -0.3007    0.8004 H   0  0  0  0  0  0  0  0  0  0  0  0
   -3.8635   -1.6492    0.2566 H   0  0  0  0  0  0  0  0  0  0  0  0
    1.1305    0.8971    1.7046 H   0  0  0  0  0  0  0  0  0  0  0  0
    3.3824    1.7928    1.3275 H   0  0  0  0  0  0  0  0  0  0  0  0
  1  2  1  0
  2  3  2  0
  3  4  1  0
  4  5  2  0
  5  6  1  0
  6  7  2  0
  6  8  2  0
  6  9  1  0
  9 10  1  0
  9 11  1  0
 11 12  2  0
 12 13  1  0
 13 14  2  0
 14 15  1  0
 15 16  2  0
  5 17  1  0
 17 18  2  0
 18  2  1  0
 16 11  1  0
  1 19  1  0
  1 20  1  0
  1 21  1  0
  3 22  1  0
  4 23  1  0
 10 24  1  0
 10 25  1  0
 10 26  1  0
 12 27  1  0
 13 28  1  0
 14 29  1  0
 15 30  1  0
 16 31  1  0
 17 32  1  0
 18 33  1  0
M  END
$$$$
