@<TRIPOS>MOLECULE
*****
 33 34 0 0 0
SMALL
GASTEIGER

@<TRIPOS>ATOM
      1 C           5.2854    0.8308   -0.1825 C.3     1  UNL1       -0.0397
      2 C           3.9458    0.2482    0.0073 C.ar    1  UNL1       -0.0503
      3 C           3.5308   -0.9132   -0.6139 C.ar    1  UNL1       -0.0570
      4 C           2.2651   -1.4390   -0.4174 C.ar    1  UNL1       -0.0348
      5 C           1.3853   -0.8101    0.4084 C.ar    1  UNL1        0.1087
      6 S          -0.2427   -1.3976    0.7225 S.O2    1  UNL1        0.0745
      7 O          -0.1803   -2.9075    0.5153 O.2     1  UNL1       -0.1498
      8 O          -0.5199   -1.1774    2.1589 O.2     1  UNL1       -0.1498
      9 N          -1.3818   -0.7856   -0.3601 N.pl3   1  UNL1       -0.2061
     10 C          -1.1931   -1.1149   -1.7661 C.3     1  UNL1        0.0235
     11 C          -2.5031    0.0155   -0.0445 C.ar    1  UNL1        0.0509
     12 C          -2.3936    1.3815   -0.0305 C.ar    1  UNL1       -0.0391
     13 C          -3.5094    2.1290    0.2821 C.ar    1  UNL1       -0.0600
     14 C          -4.7208    1.5599    0.5785 C.ar    1  UNL1       -0.0616
     15 C          -4.8431    0.1776    0.5674 C.ar    1  UNL1       -0.0600
     16 C          -3.7283   -0.5630    0.2553 C.ar    1  UNL1       -0.0391
     17 C           1.7944    0.3560    1.0353 C.ar    1  UNL1       -0.0348
     18 C           3.0553    0.8841    0.8426 C.ar    1  UNL1       -0.0570
     19 H           6.0202   -0.0168   -0.0618 H       1  UNL1        0.0278
     20 H           5.5187    1.5313    0.6422 H       1  UNL1        0.0278
     21 H           5.4290    1.2826   -1.1859 H       1  UNL1        0.0278
     22 H           4.2067   -1.4385   -1.2774 H       1  UNL1        0.0621
     23 H           1.9495   -2.3481   -0.9077 H       1  UNL1        0.0637
     24 H          -0.4451   -1.8748   -1.9475 H       1  UNL1        0.0446
     25 H          -0.9592   -0.1594   -2.2762 H       1  UNL1        0.0446
     26 H          -2.2182   -1.4136   -2.1353 H       1  UNL1        0.0446
     27 H          -1.4556    1.8283   -0.2599 H       1  UNL1        0.0636
     28 H          -3.3928    3.2010    0.2851 H       1  UNL1        0.0618
     29 H          -5.5498    2.1937    0.8132 H       1  UNL1        0.0618
     30 H          -5.7988   -0.3007    0.8004 H       1  UNL1        0.0618
     31 H          -3.8635   -1.6492    0.2566 H       1  UNL1        0.0636
     32 H           1.1305    0.8971    1.7046 H       1  UNL1        0.0637
     33 H           3.3824    1.7928    1.3275 H       1  UNL1        0.0621
@<TRIPOS>BOND
     1     1     2    1
     2     2     3   ar
     3     3     4   ar
     4     4     5   ar
     5     5     6    1
     6     6     7    2
     7     6     8    2
     8     6     9    1
     9     9    10    1
    10     9    11    1
    11    11    12   ar
    12    12    13   ar
    13    13    14   ar
    14    14    15   ar
    15    15    16   ar
    16     5    17   ar
    17    17    18   ar
    18    18     2   ar
    19    16    11   ar
    20     1    19    1
    21     1    20    1
    22     1    21    1
    23     3    22    1
    24     4    23    1
    25    10    24    1
    26    10    25    1
    27    10    26    1
    28    12    27    1
    29    13    28    1
    30    14    29    1
    31    15    30    1
    32    16    31    1
    33    17    32    1
    34    18    33    1
