
     RDKit          3D

 78 80  0  0  0  0  0  0  0  0999 V2000
    6.9639   -0.6964    1.7250 C   0  0  0  0  0  0  0  0  0  0  0  0
    5.5550   -0.1468    1.8625 C   0  0  0  0  0  0  0  0  0  0  0  0
    4.8040   -0.1439    0.6718 N   0  0  0  0  0  0  0  0  0  0  0  0
    4.5213   -1.4670    0.2190 C   0  0  0  0  0  0  0  0  0  0  0  0
    3.6175   -2.1510    1.1648 C   0  0  0  0  0  0  0  0  0  0  0  0
    2.4099   -2.2224    1.2341 N   0  0  0  0  0  0  0  0  0  0  0  0
    1.3125   -1.7421    0.5189 C   0  0  0  0  0  0  0  0  0  0  0  0
    1.3170   -0.6357   -0.3087 C   0  0  0  0  0  0  0  0  0  0  0  0
    0.1751   -0.2503   -0.9943 C   0  0  0  0  0  0  0  0  0  0  0  0
    0.2257    0.8856   -1.8275 O   0  0  0  0  0  0  0  0  0  0  0  0
   -1.0227   -0.9288   -0.9017 C   0  0  0  0  0  0  0  0  0  0  0  0
   -2.1064   -0.4766   -1.6835 N   0  0  0  0  0  0  0  0  0  0  0  0
   -3.3935   -1.1524   -1.5815 C   0  0  0  0  0  0  0  0  0  0  0  0
   -4.0355   -0.6970   -0.3032 C   0  0  0  0  0  0  0  0  0  0  0  0
   -5.3389   -1.3416   -0.0868 N   0  0  0  0  0  0  0  0  0  0  0  0
   -5.7611   -1.0981    1.2788 C   0  0  0  0  0  0  0  0  0  0  0  0
   -6.8931   -1.9740    1.6511 C   0  0  0  0  0  0  0  0  0  0  0  0
   -6.2749   -0.9616   -1.0949 C   0  0  0  0  0  0  0  0  0  0  0  0
   -6.6196    0.4414   -1.2617 C   0  0  0  0  0  0  0  0  0  0  0  0
   -5.9676    1.1898   -2.2260 C   0  0  0  0  0  0  0  0  0  0  0  0
   -6.2503    2.5314   -2.4079 C   0  0  0  0  0  0  0  0  0  0  0  0
   -7.1824    3.1967   -1.6548 C   0  0  0  0  0  0  0  0  0  0  0  0
   -7.8304    2.4522   -0.6982 C   0  0  0  0  0  0  0  0  0  0  0  0
   -7.5603    1.0883   -0.4956 C   0  0  0  0  0  0  0  0  0  0  0  0
   -8.2902    0.4916    0.4862 O   0  0  0  0  0  0  0  0  0  0  0  0
   -9.2582    1.0276    1.3149 C   0  0  0  0  0  0  0  0  0  0  0  0
   -1.0255   -2.0319   -0.0752 C   0  0  0  0  0  0  0  0  0  0  0  0
    0.0920   -2.4316    0.6131 C   0  0  0  0  0  0  0  0  0  0  0  0
    0.0211   -3.5587    1.4345 O   0  0  0  0  0  0  0  0  0  0  0  0
    5.0337    0.8134   -0.3261 C   0  0  0  0  0  0  0  0  0  0  0  0
    6.4239    0.9244   -0.8448 C   0  0  0  0  0  0  0  0  0  0  0  0
    6.7538    0.2020   -1.9827 C   0  0  0  0  0  0  0  0  0  0  0  0
    8.0296    0.2426   -2.4677 C   0  0  0  0  0  0  0  0  0  0  0  0
    9.0409    0.9903   -1.8641 C   0  0  0  0  0  0  0  0  0  0  0  0
    8.6646    1.6904   -0.7399 C   0  0  0  0  0  0  0  0  0  0  0  0
    7.3929    1.6675   -0.2331 C   0  0  0  0  0  0  0  0  0  0  0  0
    7.0928    2.4194    0.9227 O   0  0  0  0  0  0  0  0  0  0  0  0
    8.1018    3.1772    1.5358 C   0  0  0  0  0  0  0  0  0  0  0  0
    7.1138   -1.6233    2.3605 H   0  0  0  0  0  0  0  0  0  0  0  0
    7.1725   -1.0392    0.7024 H   0  0  0  0  0  0  0  0  0  0  0  0
    7.6728    0.0418    2.1360 H   0  0  0  0  0  0  0  0  0  0  0  0
    5.5372    0.8200    2.4388 H   0  0  0  0  0  0  0  0  0  0  0  0
    5.0289   -0.8632    2.5770 H   0  0  0  0  0  0  0  0  0  0  0  0
    4.1066   -1.4776   -0.8235 H   0  0  0  0  0  0  0  0  0  0  0  0
    5.4606   -2.0819    0.1247 H   0  0  0  0  0  0  0  0  0  0  0  0
    4.1823   -2.7065    1.9741 H   0  0  0  0  0  0  0  0  0  0  0  0
    2.2159   -0.0795   -0.4090 H   0  0  0  0  0  0  0  0  0  0  0  0
    0.3634    0.7222   -2.8000 H   0  0  0  0  0  0  0  0  0  0  0  0
   -2.0391    0.3270   -2.3489 H   0  0  0  0  0  0  0  0  0  0  0  0
   -3.1959   -2.2747   -1.4979 H   0  0  0  0  0  0  0  0  0  0  0  0
   -3.9832   -1.0581   -2.4863 H   0  0  0  0  0  0  0  0  0  0  0  0
   -4.2076    0.4096   -0.3080 H   0  0  0  0  0  0  0  0  0  0  0  0
   -3.4139   -0.8982    0.5703 H   0  0  0  0  0  0  0  0  0  0  0  0
   -4.8578   -1.4114    1.8965 H   0  0  0  0  0  0  0  0  0  0  0  0
   -5.8656   -0.0219    1.5292 H   0  0  0  0  0  0  0  0  0  0  0  0
   -7.4937   -2.4072    0.8561 H   0  0  0  0  0  0  0  0  0  0  0  0
   -6.4787   -2.8666    2.2177 H   0  0  0  0  0  0  0  0  0  0  0  0
   -7.5814   -1.5003    2.4134 H   0  0  0  0  0  0  0  0  0  0  0  0
   -5.8877   -1.4206   -2.0587 H   0  0  0  0  0  0  0  0  0  0  0  0
   -7.2020   -1.5970   -0.9131 H   0  0  0  0  0  0  0  0  0  0  0  0
   -5.2080    0.7751   -2.9019 H   0  0  0  0  0  0  0  0  0  0  0  0
   -5.7286    3.0992   -3.1708 H   0  0  0  0  0  0  0  0  0  0  0  0
   -7.4189    4.2408   -1.7799 H   0  0  0  0  0  0  0  0  0  0  0  0
   -8.5690    2.9525   -0.0927 H   0  0  0  0  0  0  0  0  0  0  0  0
   -8.9566    2.0344    1.6544 H   0  0  0  0  0  0  0  0  0  0  0  0
  -10.2606    1.1116    0.8400 H   0  0  0  0  0  0  0  0  0  0  0  0
   -9.2909    0.4078    2.2361 H   0  0  0  0  0  0  0  0  0  0  0  0
   -1.9635   -2.5948    0.0038 H   0  0  0  0  0  0  0  0  0  0  0  0
    0.0793   -3.4676    2.4530 H   0  0  0  0  0  0  0  0  0  0  0  0
    4.3540    0.5999   -1.2044 H   0  0  0  0  0  0  0  0  0  0  0  0
    4.7174    1.8129    0.0559 H   0  0  0  0  0  0  0  0  0  0  0  0
    5.9678   -0.3990   -2.4785 H   0  0  0  0  0  0  0  0  0  0  0  0
    8.2894   -0.3271   -3.3627 H   0  0  0  0  0  0  0  0  0  0  0  0
   10.0379    0.9922   -2.2832 H   0  0  0  0  0  0  0  0  0  0  0  0
    9.4305    2.2815   -0.2467 H   0  0  0  0  0  0  0  0  0  0  0  0
    8.5528    3.8195    0.7449 H   0  0  0  0  0  0  0  0  0  0  0  0
    8.8994    2.5100    1.9086 H   0  0  0  0  0  0  0  0  0  0  0  0
    7.6815    3.8340    2.2999 H   0  0  0  0  0  0  0  0  0  0  0  0
  1  2  1  0
  2  3  1  0
  3  4  1  0
  4  5  1  0
  5  6  2  3
  6  7  1  0
  7  8  2  0
  8  9  1  0
  9 10  1  0
  9 11  2  0
 11 12  1  0
 12 13  1  0
 13 14  1  0
 14 15  1  0
 15 16  1  0
 16 17  1  0
 15 18  1  0
 18 19  1  0
 19 20  2  0
 20 21  1  0
 21 22  2  0
 22 23  1  0
 23 24  2  0
 24 25  1  0
 25 26  1  0
 11 27  1  0
 27 28  2  0
 28 29  1  0
  3 30  1  0
 30 31  1  0
 31 32  2  0
 32 33  1  0
 33 34  2  0
 34 35  1  0
 35 36  2  0
 36 37  1  0
 37 38  1  0
 28  7  1  0
 36 31  1  0
 24 19  1  0
  1 39  1  0
  1 40  1  0
  1 41  1  0
  2 42  1  0
  2 43  1  0
  4 44  1  0
  4 45  1  0
  5 46  1  0
  8 47  1  0
 10 48  1  0
 12 49  1  0
 13 50  1  0
 13 51  1  0
 14 52  1  0
 14 53  1  0
 16 54  1  0
 16 55  1  0
 17 56  1  0
 17 57  1  0
 17 58  1  0
 18 59  1  0
 18 60  1  0
 20 61  1  0
 21 62  1  0
 22 63  1  0
 23 64  1  0
 26 65  1  0
 26 66  1  0
 26 67  1  0
 27 68  1  0
 29 69  1  0
 30 70  1  0
 30 71  1  0
 32 72  1  0
 33 73  1  0
 34 74  1  0
 35 75  1  0
 38 76  1  0
 38 77  1  0
 38 78  1  0
M  END
$$$$
