@<TRIPOS>MOLECULE
*****
 78 80 0 0 0
SMALL
GASTEIGER

@<TRIPOS>ATOM
      1 C           6.9639   -0.6964    1.7250 C.3     1  UNL1       -0.0523
      2 C           5.5550   -0.1468    1.8625 C.3     1  UNL1       -0.0033
      3 N           4.8040   -0.1439    0.6718 N.3     1  UNL1       -0.2932
      4 C           4.5213   -1.4670    0.2190 C.3     1  UNL1        0.0347
      5 C           3.6175   -2.1510    1.1648 C.2     1  UNL1        0.0199
      6 N           2.4099   -2.2224    1.2341 N.2     1  UNL1       -0.2548
      7 C           1.3125   -1.7421    0.5189 C.ar    1  UNL1        0.1084
      8 C           1.3170   -0.6357   -0.3087 C.ar    1  UNL1        0.0106
      9 C           0.1751   -0.2503   -0.9943 C.ar    1  UNL1        0.1398
     10 O           0.2257    0.8856   -1.8275 O.3     1  UNL1       -0.5048
     11 C          -1.0227   -0.9288   -0.9017 C.ar    1  UNL1        0.0728
     12 N          -2.1064   -0.4766   -1.6835 N.pl3   1  UNL1       -0.3397
     13 C          -3.3935   -1.1524   -1.5815 C.3     1  UNL1        0.0220
     14 C          -4.0355   -0.6970   -0.3032 C.3     1  UNL1        0.0147
     15 N          -5.3389   -1.3416   -0.0868 N.3     1  UNL1       -0.2968
     16 C          -5.7611   -1.0981    1.2788 C.3     1  UNL1       -0.0036
     17 C          -6.8931   -1.9740    1.6511 C.3     1  UNL1       -0.0523
     18 C          -6.2749   -0.9616   -1.0949 C.3     1  UNL1        0.0275
     19 C          -6.6196    0.4414   -1.2617 C.ar    1  UNL1        0.0082
     20 C          -5.9676    1.1898   -2.2260 C.ar    1  UNL1       -0.0539
     21 C          -6.2503    2.5314   -2.4079 C.ar    1  UNL1       -0.0612
     22 C          -7.1824    3.1967   -1.6548 C.ar    1  UNL1       -0.0583
     23 C          -7.8304    2.4522   -0.6982 C.ar    1  UNL1       -0.0196
     24 C          -7.5603    1.0883   -0.4956 C.ar    1  UNL1        0.1245
     25 O          -8.2902    0.4916    0.4862 O.3     1  UNL1       -0.4948
     26 C          -9.2582    1.0276    1.3149 C.3     1  UNL1        0.0788
     27 C          -1.0255   -2.0319   -0.0752 C.ar    1  UNL1        0.0064
     28 C           0.0920   -2.4316    0.6131 C.ar    1  UNL1        0.1440
     29 O           0.0211   -3.5587    1.4345 O.3     1  UNL1       -0.5046
     30 C           5.0337    0.8134   -0.3261 C.3     1  UNL1        0.0278
     31 C           6.4239    0.9244   -0.8448 C.ar    1  UNL1        0.0082
     32 C           6.7538    0.2020   -1.9827 C.ar    1  UNL1       -0.0539
     33 C           8.0296    0.2426   -2.4677 C.ar    1  UNL1       -0.0612
     34 C           9.0409    0.9903   -1.8641 C.ar    1  UNL1       -0.0583
     35 C           8.6646    1.6904   -0.7399 C.ar    1  UNL1       -0.0196
     36 C           7.3929    1.6675   -0.2331 C.ar    1  UNL1        0.1245
     37 O           7.0928    2.4194    0.9227 O.3     1  UNL1       -0.4948
     38 C           8.1018    3.1772    1.5358 C.3     1  UNL1        0.0788
     39 H           7.1138   -1.6233    2.3605 H       1  UNL1        0.0242
     40 H           7.1725   -1.0392    0.7024 H       1  UNL1        0.0242
     41 H           7.6728    0.0418    2.1360 H       1  UNL1        0.0242
     42 H           5.5372    0.8200    2.4388 H       1  UNL1        0.0424
     43 H           5.0289   -0.8632    2.5770 H       1  UNL1        0.0424
     44 H           4.1066   -1.4776   -0.8235 H       1  UNL1        0.0485
     45 H           5.4606   -2.0819    0.1247 H       1  UNL1        0.0485
     46 H           4.1823   -2.7065    1.9741 H       1  UNL1        0.0796
     47 H           2.2159   -0.0795   -0.4090 H       1  UNL1        0.0677
     48 H           0.3634    0.7222   -2.8000 H       1  UNL1        0.2922
     49 H          -2.0391    0.3270   -2.3489 H       1  UNL1        0.1462
     50 H          -3.1959   -2.2747   -1.4979 H       1  UNL1        0.0474
     51 H          -3.9832   -1.0581   -2.4863 H       1  UNL1        0.0474
     52 H          -4.2076    0.4096   -0.3080 H       1  UNL1        0.0442
     53 H          -3.4139   -0.8982    0.5703 H       1  UNL1        0.0442
     54 H          -4.8578   -1.4114    1.8965 H       1  UNL1        0.0424
     55 H          -5.8656   -0.0219    1.5292 H       1  UNL1        0.0424
     56 H          -7.4937   -2.4072    0.8561 H       1  UNL1        0.0242
     57 H          -6.4787   -2.8666    2.2177 H       1  UNL1        0.0242
     58 H          -7.5814   -1.5003    2.4134 H       1  UNL1        0.0242
     59 H          -5.8877   -1.4206   -2.0587 H       1  UNL1        0.0477
     60 H          -7.2020   -1.5970   -0.9131 H       1  UNL1        0.0477
     61 H          -5.2080    0.7751   -2.9019 H       1  UNL1        0.0622
     62 H          -5.7286    3.0992   -3.1708 H       1  UNL1        0.0618
     63 H          -7.4189    4.2408   -1.7799 H       1  UNL1        0.0619
     64 H          -8.5690    2.9525   -0.0927 H       1  UNL1        0.0654
     65 H          -8.9566    2.0344    1.6544 H       1  UNL1        0.0660
     66 H         -10.2606    1.1116    0.8400 H       1  UNL1        0.0660
     67 H          -9.2909    0.4078    2.2361 H       1  UNL1        0.0660
     68 H          -1.9635   -2.5948    0.0038 H       1  UNL1        0.0674
     69 H           0.0793   -3.4676    2.4530 H       1  UNL1        0.2922
     70 H           4.3540    0.5999   -1.2044 H       1  UNL1        0.0477
     71 H           4.7174    1.8129    0.0559 H       1  UNL1        0.0477
     72 H           5.9678   -0.3990   -2.4785 H       1  UNL1        0.0622
     73 H           8.2894   -0.3271   -3.3627 H       1  UNL1        0.0618
     74 H          10.0379    0.9922   -2.2832 H       1  UNL1        0.0619
     75 H           9.4305    2.2815   -0.2467 H       1  UNL1        0.0654
     76 H           8.5528    3.8195    0.7449 H       1  UNL1        0.0660
     77 H           8.8994    2.5100    1.9086 H       1  UNL1        0.0660
     78 H           7.6815    3.8340    2.2999 H       1  UNL1        0.0660
@<TRIPOS>BOND
     1     1     2    1
     2     2     3    1
     3     3     4    1
     4     4     5    1
     5     5     6    2
     6     6     7    1
     7     7     8   ar
     8     8     9   ar
     9     9    10    1
    10     9    11   ar
    11    11    12    1
    12    12    13    1
    13    13    14    1
    14    14    15    1
    15    15    16    1
    16    16    17    1
    17    15    18    1
    18    18    19    1
    19    19    20   ar
    20    20    21   ar
    21    21    22   ar
    22    22    23   ar
    23    23    24   ar
    24    24    25    1
    25    25    26    1
    26    11    27   ar
    27    27    28   ar
    28    28    29    1
    29     3    30    1
    30    30    31    1
    31    31    32   ar
    32    32    33   ar
    33    33    34   ar
    34    34    35   ar
    35    35    36   ar
    36    36    37    1
    37    37    38    1
    38    28     7   ar
    39    36    31   ar
    40    24    19   ar
    41     1    39    1
    42     1    40    1
    43     1    41    1
    44     2    42    1
    45     2    43    1
    46     4    44    1
    47     4    45    1
    48     5    46    1
    49     8    47    1
    50    10    48    1
    51    12    49    1
    52    13    50    1
    53    13    51    1
    54    14    52    1
    55    14    53    1
    56    16    54    1
    57    16    55    1
    58    17    56    1
    59    17    57    1
    60    17    58    1
    61    18    59    1
    62    18    60    1
    63    20    61    1
    64    21    62    1
    65    22    63    1
    66    23    64    1
    67    26    65    1
    68    26    66    1
    69    26    67    1
    70    27    68    1
    71    29    69    1
    72    30    70    1
    73    30    71    1
    74    32    72    1
    75    33    73    1
    76    34    74    1
    77    35    75    1
    78    38    76    1
    79    38    77    1
    80    38    78    1
