@<TRIPOS>MOLECULE
*****
 52 56 0 0 0
SMALL
GASTEIGER

@<TRIPOS>ATOM
      1 C          -7.7205    3.0774   -0.2403 C.3     1  UNL1       -0.0048
      2 C          -6.3550    2.4610   -0.1692 C.ar    1  UNL1        0.1222
      3 C          -5.2316    3.1146    0.2726 C.ar    1  UNL1        0.0689
      4 N          -4.2299    2.2233    0.1790 N.ar    1  UNL1       -0.2203
      5 C          -4.7076    1.0591   -0.3020 C.ar    1  UNL1        0.2125
      6 C          -3.8855   -0.1408   -0.5335 C.3     1  UNL1        0.1051
      7 C          -3.7158   -1.0906    0.6207 C.3     1  UNL1       -0.0219
      8 C          -2.5793   -0.2673    0.0932 C.3     1  UNL1        0.0136
      9 C          -1.4811   -0.8413   -0.7272 C.3     1  UNL1        0.0935
     10 C          -1.0226    0.2239   -1.7216 C.3     1  UNL1       -0.0351
     11 C          -0.3218   -1.1361    0.1410 C.ar    1  UNL1        0.0158
     12 C           0.8833   -0.4301    0.0401 C.ar    1  UNL1       -0.0463
     13 C           1.9578   -0.7153    0.8546 C.ar    1  UNL1       -0.0217
     14 C           3.2275    0.0298    0.7583 C.2     1  UNL1       -0.0172
     15 C           4.3946   -0.5571    0.7848 C.2     1  UNL1        0.1492
     16 F           4.3713   -1.9173    0.9056 F       1  UNL1       -0.2032
     17 C           5.6905    0.1003    0.7106 C.ar    1  UNL1        0.0990
     18 C           6.8347   -0.6799    0.7231 C.ar    1  UNL1       -0.0322
     19 C           8.0954   -0.1507    0.6657 C.ar    1  UNL1       -0.0408
     20 C           8.2159    1.2291    0.5920 C.ar    1  UNL1        0.0699
     21 C           9.5519    1.7420    0.5327 C.1     1  UNL1        0.1007
     22 N          10.6482    2.1815    0.4947 N.1     1  UNL1       -0.1908
     23 C           7.0993    2.0133    0.5784 C.ar    1  UNL1        0.0457
     24 N           5.8612    1.4296    0.6379 N.ar    1  UNL1       -0.2514
     25 C           1.8707   -1.7153    1.8018 C.ar    1  UNL1       -0.0518
     26 C           0.6849   -2.4232    1.9141 C.ar    1  UNL1       -0.0255
     27 C          -0.3836   -2.1303    1.0940 C.ar    1  UNL1        0.1289
     28 F          -1.5082   -2.8962    1.2891 F       1  UNL1       -0.2051
     29 N          -1.8087   -2.0106   -1.4712 N.2     1  UNL1       -0.2521
     30 C          -2.8497   -2.2307   -2.1819 C.2     1  UNL1        0.1485
     31 N          -3.1223   -3.4110   -2.8992 N.pl3   1  UNL1       -0.3380
     32 S          -4.0104   -0.8368   -2.1960 S.3     1  UNL1       -0.0744
     33 O          -5.9914    1.2572   -0.4942 O.2     1  UNL1       -0.4435
     34 H          -8.4355    2.3406    0.1357 H       1  UNL1        0.0308
     35 H          -7.7616    4.0171    0.3404 H       1  UNL1        0.0308
     36 H          -7.9964    3.3306   -1.2822 H       1  UNL1        0.0308
     37 H          -5.1888    4.1326    0.6183 H       1  UNL1        0.0865
     38 H          -4.1658   -0.8655    1.5942 H       1  UNL1        0.0288
     39 H          -3.8732   -2.1451    0.3206 H       1  UNL1        0.0288
     40 H          -2.2622    0.5311    0.7862 H       1  UNL1        0.0346
     41 H          -0.1459   -0.1756   -2.3081 H       1  UNL1        0.0256
     42 H          -1.8236    0.3898   -2.4501 H       1  UNL1        0.0256
     43 H          -0.8165    1.1820   -1.2305 H       1  UNL1        0.0256
     44 H           0.9762    0.3710   -0.7057 H       1  UNL1        0.0628
     45 H           3.1916    1.1020    0.6614 H       1  UNL1        0.0653
     46 H           6.7394   -1.7559    0.7796 H       1  UNL1        0.0640
     47 H           8.9793   -0.7987    0.6778 H       1  UNL1        0.0631
     48 H           7.2071    3.1037    0.5190 H       1  UNL1        0.0843
     49 H           2.7227   -1.9058    2.4244 H       1  UNL1        0.0624
     50 H           0.6634   -3.2051    2.6778 H       1  UNL1        0.0646
     51 H          -3.4433   -4.2592   -2.3753 H       1  UNL1        0.1442
     52 H          -3.0294   -3.5105   -3.9314 H       1  UNL1        0.1442
@<TRIPOS>BOND
     1     1     2    1
     2     2     3   ar
     3     3     4   ar
     4     4     5   ar
     5     6     5    1
     6     6     7    1
     7     7     8    1
     8     8     9    1
     9     9    10    1
    10     9    11    1
    11    11    12   ar
    12    12    13   ar
    13    13    14    1
    14    14    15    2
    15    15    16    1
    16    15    17    1
    17    17    18   ar
    18    18    19   ar
    19    19    20   ar
    20    20    21    1
    21    21    22    3
    22    20    23   ar
    23    23    24   ar
    24    13    25   ar
    25    25    26   ar
    26    26    27   ar
    27    27    28    1
    28     9    29    1
    29    29    30    2
    30    30    31    1
    31    30    32    1
    32     5    33   ar
    33    33     2   ar
    34     8     6    1
    35    27    11   ar
    36    32     6    1
    37    24    17   ar
    38     1    34    1
    39     1    35    1
    40     1    36    1
    41     3    37    1
    42     7    38    1
    43     7    39    1
    44     8    40    1
    45    10    41    1
    46    10    42    1
    47    10    43    1
    48    12    44    1
    49    14    45    1
    50    18    46    1
    51    19    47    1
    52    23    48    1
    53    25    49    1
    54    26    50    1
    55    31    51    1
    56    31    52    1
