
     RDKit          3D

 55 56  0  0  0  0  0  0  0  0999 V2000
   -3.8990   -4.6819   -0.6952 C   0  0  0  0  0  0  0  0  0  0  0  0
   -2.5060   -4.3234   -1.1708 C   0  0  0  0  0  0  0  0  0  0  0  0
   -2.1093   -3.1553   -0.4843 O   0  0  0  0  0  0  0  0  0  0  0  0
   -0.9011   -2.5291   -0.6538 C   0  0  0  0  0  0  0  0  0  0  0  0
   -0.2934   -3.2124   -1.5086 O   0  0  0  0  0  0  0  0  0  0  0  0
   -0.5824   -1.2849    0.1336 C   0  0  2  0  0  0  0  0  0  0  0  0
   -1.7165   -0.3309    0.1829 C   0  0  0  0  0  0  0  0  0  0  0  0
   -1.4062    0.8968    0.9775 C   0  0  0  0  0  0  0  0  0  0  0  0
   -2.5934    1.8251    0.9835 C   0  0  0  0  0  0  0  0  0  0  0  0
   -3.5260    1.6779    1.9952 C   0  0  0  0  0  0  0  0  0  0  0  0
   -4.6565    2.4664    2.1105 C   0  0  0  0  0  0  0  0  0  0  0  0
   -4.8678    3.4551    1.1652 C   0  0  0  0  0  0  0  0  0  0  0  0
   -3.9442    3.6111    0.1516 C   0  0  0  0  0  0  0  0  0  0  0  0
   -2.8068    2.8112    0.0431 C   0  0  0  0  0  0  0  0  0  0  0  0
    0.7070   -0.7769   -0.1711 N   0  0  0  0  0  0  0  0  0  0  0  0
    1.0428   -0.5170   -1.5188 C   0  0  1  0  0  0  0  0  0  0  0  0
    0.1667    0.4620   -2.2559 C   0  0  0  0  0  0  0  0  0  0  0  0
    2.4002    0.1481   -1.5115 C   0  0  0  0  0  0  0  0  0  0  0  0
    2.7508    0.3798   -2.7105 O   0  0  0  0  0  0  0  0  0  0  0  0
    3.1631    0.4629   -0.3272 N   0  0  0  0  0  0  0  0  0  0  0  0
    2.9912    0.3110    1.1206 C   0  0  0  0  0  0  0  0  0  0  0  0
    3.7484    1.4743    1.7226 C   0  0  0  0  0  0  0  0  0  0  0  0
    4.5775    2.0833    0.6410 C   0  0  0  0  0  0  0  0  0  0  0  0
    4.4551    1.0956   -0.4929 C   0  0  1  0  0  0  0  0  0  0  0  0
    5.5708    0.1286   -0.3392 C   0  0  0  0  0  0  0  0  0  0  0  0
    6.4380   -0.9300   -0.1596 O   0  0  0  0  0  0  0  0  0  0  0  0
    6.7676    0.5177   -0.4539 O   0  0  0  0  0  0  0  0  0  0  0  0
   -4.4146   -3.7625   -0.3453 H   0  0  0  0  0  0  0  0  0  0  0  0
   -4.4832   -5.2091   -1.4762 H   0  0  0  0  0  0  0  0  0  0  0  0
   -3.7890   -5.3138    0.2242 H   0  0  0  0  0  0  0  0  0  0  0  0
   -1.7690   -5.1133   -0.9142 H   0  0  0  0  0  0  0  0  0  0  0  0
   -2.5074   -4.0775   -2.2498 H   0  0  0  0  0  0  0  0  0  0  0  0
   -0.4901   -1.6823    1.1953 H   0  0  0  0  0  0  0  0  0  0  0  0
   -2.2109   -0.1135   -0.7860 H   0  0  0  0  0  0  0  0  0  0  0  0
   -2.5316   -0.8522    0.7739 H   0  0  0  0  0  0  0  0  0  0  0  0
   -1.2180    0.5780    2.0268 H   0  0  0  0  0  0  0  0  0  0  0  0
   -0.5485    1.4826    0.6713 H   0  0  0  0  0  0  0  0  0  0  0  0
   -3.3983    0.9121    2.7597 H   0  0  0  0  0  0  0  0  0  0  0  0
   -5.3491    2.3083    2.9180 H   0  0  0  0  0  0  0  0  0  0  0  0
   -5.7458    4.0751    1.2460 H   0  0  0  0  0  0  0  0  0  0  0  0
   -4.1085    4.3838   -0.5879 H   0  0  0  0  0  0  0  0  0  0  0  0
   -2.0741    2.9219   -0.7461 H   0  0  0  0  0  0  0  0  0  0  0  0
    1.3977   -1.5099    0.1805 H   0  0  0  0  0  0  0  0  0  0  0  0
    1.1374   -1.4237   -2.1540 H   0  0  0  0  0  0  0  0  0  0  0  0
   -0.7488   -0.0081   -2.6668 H   0  0  0  0  0  0  0  0  0  0  0  0
    0.7428    0.7718   -3.1750 H   0  0  0  0  0  0  0  0  0  0  0  0
   -0.1318    1.3113   -1.6484 H   0  0  0  0  0  0  0  0  0  0  0  0
    3.3261   -0.6666    1.4914 H   0  0  0  0  0  0  0  0  0  0  0  0
    1.9408    0.4476    1.4455 H   0  0  0  0  0  0  0  0  0  0  0  0
    3.0799    2.2491    2.1636 H   0  0  0  0  0  0  0  0  0  0  0  0
    4.3475    1.0838    2.5701 H   0  0  0  0  0  0  0  0  0  0  0  0
    5.6063    2.1925    1.0045 H   0  0  0  0  0  0  0  0  0  0  0  0
    4.1457    3.0483    0.3104 H   0  0  0  0  0  0  0  0  0  0  0  0
    4.5967    1.6306   -1.4285 H   0  0  0  0  0  0  0  0  0  0  0  0
    6.2271   -1.7294    0.4229 H   0  0  0  0  0  0  0  0  0  0  0  0
  1  2  1  0
  2  3  1  0
  3  4  1  0
  4  5  2  0
  4  6  1  0
  6  7  1  0
  7  8  1  0
  8  9  1  0
  9 10  2  0
 10 11  1  0
 11 12  2  0
 12 13  1  0
 13 14  2  0
  6 15  1  0
 15 16  1  0
 16 17  1  0
 16 18  1  0
 18 19  2  0
 18 20  1  0
 20 21  1  0
 21 22  1  0
 22 23  1  0
 23 24  1  0
 24 25  1  0
 25 26  1  0
 25 27  2  0
 14  9  1  0
 24 20  1  0
  1 28  1  0
  1 29  1  0
  1 30  1  0
  2 31  1  0
  2 32  1  0
  6 33  1  1
  7 34  1  0
  7 35  1  0
  8 36  1  0
  8 37  1  0
 10 38  1  0
 11 39  1  0
 12 40  1  0
 13 41  1  0
 14 42  1  0
 15 43  1  0
 16 44  1  6
 17 45  1  0
 17 46  1  0
 17 47  1  0
 21 48  1  0
 21 49  1  0
 22 50  1  0
 22 51  1  0
 23 52  1  0
 23 53  1  0
 24 54  1  6
 26 55  1  0
M  END
$$$$
