@<TRIPOS>MOLECULE
*****
 54 58 0 0 0
SMALL
GASTEIGER

@<TRIPOS>ATOM
      1 C           6.6776   -3.5533   -0.2653 C.3     1  UNL1        0.0015
      2 N           6.0681   -2.3944   -0.8944 N.am    1  UNL1       -0.3022
      3 C           5.0759   -1.6760   -0.1675 C.2     1  UNL1        0.3037
      4 O           4.7146   -2.0138    0.9956 O.2     1  UNL1       -0.2525
      5 N           4.4255   -0.5209   -0.7166 N.am    1  UNL1       -0.2675
      6 C           3.4351    0.1978    0.0067 C.ar    1  UNL1        0.0648
      7 C           3.6255    1.2638    0.8620 C.ar    1  UNL1        0.0266
      8 N           2.4155    1.6609    1.3485 N.ar    1  UNL1       -0.3492
      9 C           2.1953    2.7509    2.2775 C.3     1  UNL1        0.0117
     10 C           1.4379    0.8765    0.8288 C.ar    1  UNL1        0.0581
     11 C           2.0729   -0.0214    0.0041 C.ar    1  UNL1        0.0813
     12 C           0.9816   -0.8456   -0.5334 C.2     1  UNL1        0.2564
     13 O           1.2321   -1.7823   -1.3396 O.2     1  UNL1       -0.2694
     14 N          -0.2697   -0.4247   -0.0218 N.am    1  UNL1       -0.2374
     15 C          -1.5580   -1.0014   -0.3289 C.ar    1  UNL1        0.1499
     16 C          -1.7547   -2.0556   -1.1728 C.ar    1  UNL1       -0.0131
     17 C          -3.0223   -2.5553   -1.4192 C.ar    1  UNL1       -0.0012
     18 C          -3.2350   -3.6934   -2.3301 C.3     1  UNL1       -0.0360
     19 C          -4.0862   -1.9533   -0.7836 C.ar    1  UNL1        0.1811
     20 N          -5.4053   -2.2083   -0.8214 N.ar    1  UNL1       -0.1275
     21 N          -6.0418   -1.3549   -0.0343 N.ar    1  UNL1       -0.1263
     22 C          -5.1020   -0.5559    0.5019 C.ar    1  UNL1        0.2205
     23 C          -5.3159    0.5690    1.4577 C.3     1  UNL1        0.2993
     24 F          -4.6540    0.3834    2.6353 F       1  UNL1       -0.2005
     25 F          -4.9753    1.7765    0.8650 F       1  UNL1       -0.2005
     26 N          -3.8761   -0.9210    0.0405 N.ar    1  UNL1       -0.1896
     27 N          -2.6462   -0.4621    0.2582 N.ar    1  UNL1       -0.1476
     28 C          -0.0189    0.6835    0.8603 C.3     1  UNL1        0.0986
     29 C          -0.7626    1.9129    0.4180 C.ar    1  UNL1       -0.0207
     30 C          -1.4568    2.7079    1.3070 C.ar    1  UNL1       -0.0550
     31 C          -2.1405    3.8412    0.8891 C.ar    1  UNL1       -0.0431
     32 C          -2.1432    4.2040   -0.4359 C.ar    1  UNL1        0.0410
     33 CL         -3.0033    5.6357   -0.9836 Cl      1  UNL1       -0.0835
     34 C          -1.4577    3.4258   -1.3383 C.ar    1  UNL1       -0.0431
     35 C          -0.7727    2.2877   -0.9101 C.ar    1  UNL1       -0.0550
     36 H           7.5513   -3.8369   -0.8785 H       1  UNL1        0.0426
     37 H           5.9504   -4.3918   -0.1532 H       1  UNL1        0.0426
     38 H           7.0873   -3.2908    0.7438 H       1  UNL1        0.0426
     39 H           6.3375   -2.0815   -1.8533 H       1  UNL1        0.1499
     40 H           4.7269   -0.2396   -1.6861 H       1  UNL1        0.1564
     41 H           4.5879    1.6922    1.0897 H       1  UNL1        0.0828
     42 H           2.0275    2.2840    3.2791 H       1  UNL1        0.0456
     43 H           1.3092    3.3487    1.9725 H       1  UNL1        0.0456
     44 H           3.1169    3.3515    2.3536 H       1  UNL1        0.0456
     45 H          -0.9060   -2.5069   -1.6559 H       1  UNL1        0.0656
     46 H          -4.2654   -4.0753   -2.2141 H       1  UNL1        0.0279
     47 H          -2.4750   -4.4711   -2.1144 H       1  UNL1        0.0279
     48 H          -3.1174   -3.4105   -3.4061 H       1  UNL1        0.0279
     49 H          -6.4171    0.6427    1.6629 H       1  UNL1        0.1105
     50 H          -0.3024    0.4596    1.9089 H       1  UNL1        0.0620
     51 H          -1.4700    2.4420    2.3614 H       1  UNL1        0.0621
     52 H          -2.6884    4.4733    1.5738 H       1  UNL1        0.0632
     53 H          -1.4659    3.7198   -2.3789 H       1  UNL1        0.0632
     54 H          -0.2464    1.7066   -1.6641 H       1  UNL1        0.0621
@<TRIPOS>BOND
     1     1     2    1
     2     2     3   am
     3     3     4    2
     4     3     5   am
     5     5     6    1
     6     6     7   ar
     7     7     8   ar
     8     8     9    1
     9     8    10   ar
    10    10    11   ar
    11    11    12    1
    12    12    13    2
    13    12    14   am
    14    14    15    1
    15    15    16   ar
    16    16    17   ar
    17    17    18    1
    18    17    19   ar
    19    19    20   ar
    20    20    21   ar
    21    21    22   ar
    22    22    23    1
    23    23    24    1
    24    23    25    1
    25    22    26   ar
    26    26    27   ar
    27    14    28    1
    28    28    29    1
    29    29    30   ar
    30    30    31   ar
    31    31    32   ar
    32    32    33    1
    33    32    34   ar
    34    34    35   ar
    35    11     6   ar
    36    27    15   ar
    37    35    29   ar
    38    28    10    1
    39    26    19   ar
    40     1    36    1
    41     1    37    1
    42     1    38    1
    43     2    39    1
    44     5    40    1
    45     7    41    1
    46     9    42    1
    47     9    43    1
    48     9    44    1
    49    16    45    1
    50    18    46    1
    51    18    47    1
    52    18    48    1
    53    23    49    1
    54    28    50    1
    55    30    51    1
    56    31    52    1
    57    34    53    1
    58    35    54    1
