@<TRIPOS>MOLECULE
*****
 40 43 0 0 0
SMALL
GASTEIGER

@<TRIPOS>ATOM
      1 C           6.9800    1.5941   -0.6521 C.3     1  UNL1       -0.0039
      2 C           6.0482    0.5233   -0.0951 C.ar    1  UNL1        0.1359
      3 N           6.5052   -0.2109    1.0664 N.ar    1  UNL1       -0.1939
      4 S           5.1186   -1.3397    1.3677 S.2     1  UNL1        0.0369
      5 C           4.1430   -0.7402   -0.0088 C.ar    1  UNL1        0.1652
      6 C           2.8248   -1.2308   -0.3874 C.ar    1  UNL1        0.1910
      7 N           2.5402   -2.2628   -1.2004 N.ar    1  UNL1       -0.1269
      8 N           1.2333   -2.3843   -1.2860 N.ar    1  UNL1       -0.1320
      9 C           0.6714   -1.4086   -0.5104 C.ar    1  UNL1        0.1542
     10 N           1.6585   -0.7135    0.0300 N.ar    1  UNL1       -0.3062
     11 C           1.2637    0.4006    0.8906 C.3     1  UNL1        0.0423
     12 C           0.1997    1.1740    0.1314 C.3     1  UNL1        0.0338
     13 N          -1.0139    0.3270   -0.0312 N.am    1  UNL1       -0.2860
     14 C          -2.2121    1.0107    0.0027 C.2     1  UNL1        0.2472
     15 O          -2.0518    2.3153    0.1752 O.2     1  UNL1       -0.2700
     16 C          -3.5891    0.6254   -0.1068 C.ar    1  UNL1        0.0369
     17 C          -4.0552   -0.6482   -0.2772 C.ar    1  UNL1       -0.0496
     18 C          -5.4268   -0.9718   -0.3790 C.ar    1  UNL1       -0.0610
     19 C          -6.3636    0.0243   -0.3061 C.ar    1  UNL1       -0.0617
     20 C          -5.9280    1.3148   -0.1350 C.ar    1  UNL1       -0.0610
     21 C          -4.5891    1.6141   -0.0377 C.ar    1  UNL1       -0.0496
     22 C          -0.7609   -1.0581   -0.1923 C.3     1  UNL1        0.0834
     23 C          -1.0370   -1.8143    1.1162 C.3     1  UNL1       -0.0393
     24 N           4.9143    0.1836   -0.5137 N.ar    1  UNL1       -0.2199
     25 H           7.4727    2.1221    0.1634 H       1  UNL1        0.0308
     26 H           7.6654    1.1074   -1.3597 H       1  UNL1        0.0308
     27 H           6.3295    2.3058   -1.2043 H       1  UNL1        0.0308
     28 H           0.9121    0.0901    1.8763 H       1  UNL1        0.0508
     29 H           2.1306    1.0542    0.9999 H       1  UNL1        0.0508
     30 H          -0.0204    2.1034    0.6540 H       1  UNL1        0.0482
     31 H           0.5672    1.3570   -0.8904 H       1  UNL1        0.0482
     32 H          -3.3510   -1.4614   -0.3360 H       1  UNL1        0.0625
     33 H          -5.6994   -2.0176   -0.5148 H       1  UNL1        0.0618
     34 H          -7.4028   -0.2549   -0.3874 H       1  UNL1        0.0618
     35 H          -6.6654    2.0847   -0.0794 H       1  UNL1        0.0618
     36 H          -4.2807    2.6588    0.0988 H       1  UNL1        0.0625
     37 H          -1.3117   -1.5255   -1.0609 H       1  UNL1        0.0579
     38 H          -0.1036   -2.0643    1.6565 H       1  UNL1        0.0252
     39 H          -1.6960   -1.1755    1.7435 H       1  UNL1        0.0252
     40 H          -1.6197   -2.7084    0.8382 H       1  UNL1        0.0252
@<TRIPOS>BOND
     1     1     2    1
     2     2     3   ar
     3     3     4   ar
     4     4     5   ar
     5     5     6    1
     6     6     7   ar
     7     7     8   ar
     8     8     9   ar
     9     9    10   ar
    10    10    11    1
    11    11    12    1
    12    12    13    1
    13    13    14   am
    14    14    15    2
    15    14    16    1
    16    16    17   ar
    17    17    18   ar
    18    18    19   ar
    19    19    20   ar
    20    20    21   ar
    21    13    22    1
    22    22    23    1
    23     5    24   ar
    24    24     2   ar
    25    10     6   ar
    26    21    16   ar
    27    22     9    1
    28     1    25    1
    29     1    26    1
    30     1    27    1
    31    11    28    1
    32    11    29    1
    33    12    30    1
    34    12    31    1
    35    17    32    1
    36    18    33    1
    37    19    34    1
    38    20    35    1
    39    21    36    1
    40    22    37    1
    41    23    38    1
    42    23    39    1
    43    23    40    1
