@<TRIPOS>MOLECULE
*****
 46 50 0 0 0
SMALL
GASTEIGER

@<TRIPOS>ATOM
      1 N           8.5829    1.8210    0.3482 N.1     1  UNL1       -0.1908
      2 C           7.5436    1.3109    0.1511 C.1     1  UNL1        0.1007
      3 C           6.2641    0.7085   -0.0901 C.ar    1  UNL1        0.0705
      4 C           5.1353    1.0774    0.6142 C.ar    1  UNL1        0.0458
      5 N           3.9282    0.5232    0.3993 N.ar    1  UNL1       -0.2502
      6 C           3.7632   -0.4375   -0.5332 C.ar    1  UNL1        0.1137
      7 C           2.4837   -0.9821   -0.7179 C.ar    1  UNL1        0.1492
      8 N           1.4261   -0.4915    0.0650 N.pl3   1  UNL1       -0.2977
      9 C           0.1128   -1.0161    0.0056 C.ar    1  UNL1        0.0328
     10 C          -0.1729   -2.2763   -0.4413 C.ar    1  UNL1       -0.0391
     11 C          -1.4808   -2.7200   -0.4918 C.ar    1  UNL1       -0.0413
     12 C          -2.5149   -1.8725   -0.0821 C.ar    1  UNL1        0.0467
     13 CL         -4.1218   -2.5268   -0.2353 Cl      1  UNL1       -0.0832
     14 C          -2.2131   -0.6093    0.3664 C.ar    1  UNL1        0.0059
     15 C          -3.3252    0.2817    0.8378 C.3     1  UNL1        0.1590
     16 C          -4.0157   -0.3762    1.9932 C.3     1  UNL1        0.2685
     17 F          -5.0677    0.4351    2.4686 F       1  UNL1       -0.2062
     18 F          -3.1759   -0.5038    3.0925 F       1  UNL1       -0.2062
     19 N          -4.2271    0.4060   -0.2722 N.2     1  UNL1       -0.2194
     20 C          -4.2527    1.3478   -1.1213 C.2     1  UNL1        0.2764
     21 N          -5.2232    1.3223   -2.1783 N.pl3   1  UNL1       -0.3134
     22 O          -3.3409    2.3672   -0.9953 O.2     1  UNL1       -0.4622
     23 C          -2.8199    2.6930    0.2654 C.3     1  UNL1        0.1091
     24 C          -3.8287    2.7003    1.4072 C.3     1  UNL1       -0.0064
     25 C          -2.7612    1.6339    1.2492 C.3     1  UNL1        0.0344
     26 C          -0.9225   -0.1882    0.4090 C.ar    1  UNL1       -0.0334
     27 N           2.3898   -1.9317   -1.6602 N.ar    1  UNL1       -0.2351
     28 C           3.3983   -2.3855   -2.4162 C.ar    1  UNL1        0.0656
     29 C           4.6429   -1.8385   -2.2189 C.ar    1  UNL1        0.1507
     30 F           5.7303   -2.2379   -2.9426 F       1  UNL1       -0.2032
     31 C           4.8387   -0.8526   -1.2691 C.ar    1  UNL1        0.0417
     32 C           6.0806   -0.2814   -1.0469 C.ar    1  UNL1       -0.0308
     33 H           5.2763    1.8606    1.3724 H       1  UNL1        0.0843
     34 H           1.6294    0.3050    0.7254 H       1  UNL1        0.1536
     35 H           0.6042   -2.9821   -0.7620 H       1  UNL1        0.0636
     36 H          -1.6761   -3.7136   -0.8468 H       1  UNL1        0.0633
     37 H          -4.4681   -1.3413    1.8247 H       1  UNL1        0.1047
     38 H          -5.1640    0.5689   -2.8825 H       1  UNL1        0.1466
     39 H          -5.9656    2.0347   -2.2419 H       1  UNL1        0.1466
     40 H          -2.0308    3.4695    0.2438 H       1  UNL1        0.0737
     41 H          -3.6776    3.5257    2.1217 H       1  UNL1        0.0306
     42 H          -4.8738    2.4685    1.1615 H       1  UNL1        0.0306
     43 H          -1.9989    1.6855    2.0328 H       1  UNL1        0.0366
     44 H          -0.7022    0.7897    0.7554 H       1  UNL1        0.0640
     45 H           3.2700   -3.1581   -3.1672 H       1  UNL1        0.0860
     46 H           6.9208   -0.6131   -1.6288 H       1  UNL1        0.0638
@<TRIPOS>BOND
     1     1     2    3
     2     2     3    1
     3     3     4   ar
     4     4     5   ar
     5     5     6   ar
     6     6     7   ar
     7     7     8    1
     8     8     9    1
     9     9    10   ar
    10    10    11   ar
    11    11    12   ar
    12    12    13    1
    13    12    14   ar
    14    14    15    1
    15    15    16    1
    16    16    17    1
    17    16    18    1
    18    15    19    1
    19    19    20    2
    20    20    21    1
    21    20    22    1
    22    22    23    1
    23    23    24    1
    24    24    25    1
    25    14    26   ar
    26     7    27   ar
    27    27    28   ar
    28    28    29   ar
    29    29    30    1
    30    29    31   ar
    31    31    32   ar
    32    32     3   ar
    33    31     6   ar
    34    26     9   ar
    35    25    15    1
    36    25    23    1
    37     4    33    1
    38     8    34    1
    39    10    35    1
    40    11    36    1
    41    16    37    1
    42    21    38    1
    43    21    39    1
    44    23    40    1
    45    24    41    1
    46    24    42    1
    47    25    43    1
    48    26    44    1
    49    28    45    1
    50    32    46    1
