
     RDKit          3D

 68 71  0  0  0  0  0  0  0  0999 V2000
   -4.8184    4.4623    0.2243 C   0  0  0  0  0  0  0  0  0  0  0  0
   -5.2066    3.4494    0.4269 C   0  0  0  0  0  0  0  0  0  0  0  0
   -5.7608    2.0713    0.6941 C   0  0  0  0  0  0  0  0  0  0  0  0
   -5.7812    1.1918   -0.3714 N   0  0  0  0  0  0  0  0  0  0  0  0
   -4.5086    0.8164   -0.9170 C   0  0  0  0  0  0  0  0  0  0  0  0
   -3.5547    0.1754    0.0577 C   0  0  1  0  0  0  0  0  0  0  0  0
   -4.0496   -0.8290    0.8489 O   0  0  0  0  0  0  0  0  0  0  0  0
   -2.3924   -0.2748   -0.7537 C   0  0  2  0  0  0  0  0  0  0  0  0
   -2.8824   -1.3075   -1.7888 C   0  0  0  0  0  0  0  0  0  0  0  0
   -3.6596   -2.3456   -1.0806 C   0  0  0  0  0  0  0  0  0  0  0  0
   -5.0312   -2.2981   -1.3435 C   0  0  0  0  0  0  0  0  0  0  0  0
   -5.8965   -3.1244   -0.7070 C   0  0  0  0  0  0  0  0  0  0  0  0
   -5.4360   -4.0253    0.2142 C   0  0  0  0  0  0  0  0  0  0  0  0
   -4.0758   -4.0738    0.4798 C   0  0  0  0  0  0  0  0  0  0  0  0
   -3.1825   -3.2245   -0.1794 C   0  0  0  0  0  0  0  0  0  0  0  0
   -1.1265   -0.6451   -0.2778 N   0  0  0  0  0  0  0  0  0  0  0  0
   -0.1592    0.4072   -0.0147 C   0  0  0  0  0  0  0  0  0  0  0  0
   -0.7057    1.5751   -0.1876 O   0  0  0  0  0  0  0  0  0  0  0  0
    1.1910    0.3737    0.3609 C   0  0  0  0  0  0  0  0  0  0  0  0
    1.9584   -0.5721    0.9575 C   0  0  0  0  0  0  0  0  0  0  0  0
    3.3463   -0.4225    1.1043 C   0  0  0  0  0  0  0  0  0  0  0  0
    3.9771    0.7057    0.6424 C   0  0  0  0  0  0  0  0  0  0  0  0
    3.2469    1.6943    0.0304 C   0  0  0  0  0  0  0  0  0  0  0  0
    1.9129    1.5302   -0.0989 C   0  0  0  0  0  0  0  0  0  0  0  0
    4.1338    2.6921   -0.3575 C   0  0  0  0  0  0  0  0  0  0  0  0
    3.7246    3.8393   -1.2277 C   0  0  0  0  0  0  0  0  0  0  0  0
    3.9609    3.3322   -2.6620 C   0  0  0  0  0  0  0  0  0  0  0  0
    5.3711    2.2943    0.0460 C   0  0  0  0  0  0  0  0  0  0  0  0
    5.2801    1.1211    0.6414 N   0  0  0  0  0  0  0  0  0  0  0  0
    6.3690    0.4156    1.2839 C   0  0  0  0  0  0  0  0  0  0  0  0
    6.5690   -0.9114    0.6081 C   0  0  0  0  0  0  0  0  0  0  0  0
    5.6024   -2.1834    1.3256 S   0  0  0  0  0  6  0  0  0  0  0  0
    5.5143   -3.2986    0.2855 O   0  0  0  0  0  0  0  0  0  0  0  0
    6.1885   -2.7282    2.5813 O   0  0  0  0  0  0  0  0  0  0  0  0
    3.9656   -1.6352    1.5780 N   0  0  0  0  0  0  0  0  0  0  0  0
    3.0802   -2.5374    2.2899 C   0  0  0  0  0  0  0  0  0  0  0  0
   -4.4392    5.4708    0.0047 H   0  0  0  0  0  0  0  0  0  0  0  0
   -6.8739    2.2702    0.9523 H   0  0  0  0  0  0  0  0  0  0  0  0
   -5.3282    1.7321    1.6494 H   0  0  0  0  0  0  0  0  0  0  0  0
   -6.3723    0.3449   -0.0997 H   0  0  0  0  0  0  0  0  0  0  0  0
   -4.5763    0.4170   -1.9079 H   0  0  0  0  0  0  0  0  0  0  0  0
   -4.0482    1.8955   -1.1520 H   0  0  0  0  0  0  0  0  0  0  0  0
   -3.2314    1.0327    0.7168 H   0  0  0  0  0  0  0  0  0  0  0  0
   -3.8421   -0.5791    1.8360 H   0  0  0  0  0  0  0  0  0  0  0  0
   -2.2581    0.6985   -1.4451 H   0  0  0  0  0  0  0  0  0  0  0  0
   -1.9172   -1.8090   -2.1234 H   0  0  0  0  0  0  0  0  0  0  0  0
   -3.2923   -0.8875   -2.6696 H   0  0  0  0  0  0  0  0  0  0  0  0
   -5.4381   -1.6193   -2.1047 H   0  0  0  0  0  0  0  0  0  0  0  0
   -6.9686   -3.0581   -0.9269 H   0  0  0  0  0  0  0  0  0  0  0  0
   -6.1205   -4.6636    0.7283 H   0  0  0  0  0  0  0  0  0  0  0  0
   -3.6615   -4.7470    1.2054 H   0  0  0  0  0  0  0  0  0  0  0  0
   -2.1260   -3.3106    0.0748 H   0  0  0  0  0  0  0  0  0  0  0  0
   -0.7387   -1.5882   -0.1289 H   0  0  0  0  0  0  0  0  0  0  0  0
    1.4758   -1.4612    1.3102 H   0  0  0  0  0  0  0  0  0  0  0  0
    1.3593    2.3621   -0.5668 H   0  0  0  0  0  0  0  0  0  0  0  0
    4.1476    4.7898   -0.9942 H   0  0  0  0  0  0  0  0  0  0  0  0
    2.5845    3.9424   -1.1581 H   0  0  0  0  0  0  0  0  0  0  0  0
    3.1746    2.6462   -2.9868 H   0  0  0  0  0  0  0  0  0  0  0  0
    4.1982    4.1764   -3.3176 H   0  0  0  0  0  0  0  0  0  0  0  0
    4.8980    2.6986   -2.6071 H   0  0  0  0  0  0  0  0  0  0  0  0
    6.2661    2.8650   -0.1483 H   0  0  0  0  0  0  0  0  0  0  0  0
    6.0678    0.1850    2.3607 H   0  0  0  0  0  0  0  0  0  0  0  0
    7.2817    1.0056    1.2747 H   0  0  0  0  0  0  0  0  0  0  0  0
    6.2105   -0.7621   -0.4573 H   0  0  0  0  0  0  0  0  0  0  0  0
    7.6127   -1.1917    0.5162 H   0  0  0  0  0  0  0  0  0  0  0  0
    2.4834   -3.1547    1.5803 H   0  0  0  0  0  0  0  0  0  0  0  0
    2.5400   -2.1110    3.1261 H   0  0  0  0  0  0  0  0  0  0  0  0
    3.7678   -3.3004    2.7448 H   0  0  0  0  0  0  0  0  0  0  0  0
  1  2  3  0
  2  3  1  0
  3  4  1  0
  4  5  1  0
  5  6  1  0
  6  7  1  0
  6  8  1  0
  8  9  1  0
  9 10  1  0
 10 11  2  0
 11 12  1  0
 12 13  2  0
 13 14  1  0
 14 15  2  0
  8 16  1  0
 16 17  1  0
 17 18  2  0
 17 19  1  0
 19 20  2  0
 20 21  1  0
 21 22  2  0
 22 23  1  0
 23 24  2  0
 23 25  1  0
 25 26  1  0
 26 27  1  0
 25 28  2  0
 28 29  1  0
 29 30  1  0
 30 31  1  0
 31 32  1  0
 32 33  2  0
 32 34  2  0
 32 35  1  0
 35 36  1  0
 15 10  1  0
 24 19  1  0
 35 21  1  0
 29 22  1  0
  1 37  1  0
  3 38  1  0
  3 39  1  0
  4 40  1  0
  5 41  1  0
  5 42  1  0
  6 43  1  1
  7 44  1  0
  8 45  1  6
  9 46  1  0
  9 47  1  0
 11 48  1  0
 12 49  1  0
 13 50  1  0
 14 51  1  0
 15 52  1  0
 16 53  1  0
 20 54  1  0
 24 55  1  0
 26 56  1  0
 26 57  1  0
 27 58  1  0
 27 59  1  0
 27 60  1  0
 28 61  1  0
 30 62  1  0
 30 63  1  0
 31 64  1  0
 31 65  1  0
 36 66  1  0
 36 67  1  0
 36 68  1  0
M  END
$$$$
