@<TRIPOS>MOLECULE
*****
 68 71 0 0 0
SMALL
GASTEIGER

@<TRIPOS>ATOM
      1 C          -4.8184    4.4623    0.2243 C.1     1  UNL1       -0.1179
      2 C          -5.2066    3.4494    0.4269 C.1     1  UNL1       -0.0902
      3 C          -5.7608    2.0713    0.6941 C.3     1  UNL1        0.0582
      4 N          -5.7812    1.1918   -0.3714 N.3     1  UNL1       -0.3032
      5 C          -4.5086    0.8164   -0.9170 C.3     1  UNL1        0.0245
      6 C          -3.5547    0.1754    0.0577 C.3     1  UNL1        0.0862
      7 O          -4.0496   -0.8290    0.8489 O.3     1  UNL1       -0.3887
      8 C          -2.3924   -0.2748   -0.7537 C.3     1  UNL1        0.0545
      9 C          -2.8824   -1.3075   -1.7888 C.3     1  UNL1       -0.0067
     10 C          -3.6596   -2.3456   -1.0806 C.ar    1  UNL1       -0.0455
     11 C          -5.0312   -2.2981   -1.3435 C.ar    1  UNL1       -0.0585
     12 C          -5.8965   -3.1244   -0.7070 C.ar    1  UNL1       -0.0615
     13 C          -5.4360   -4.0253    0.2142 C.ar    1  UNL1       -0.0617
     14 C          -4.0758   -4.0738    0.4798 C.ar    1  UNL1       -0.0615
     15 C          -3.1825   -3.2245   -0.1794 C.ar    1  UNL1       -0.0585
     16 N          -1.1265   -0.6451   -0.2778 N.am    1  UNL1       -0.3057
     17 C          -0.1592    0.4072   -0.0147 C.2     1  UNL1        0.2445
     18 O          -0.7057    1.5751   -0.1876 O.2     1  UNL1       -0.2702
     19 C           1.1910    0.3737    0.3609 C.ar    1  UNL1        0.0392
     20 C           1.9584   -0.5721    0.9575 C.ar    1  UNL1       -0.0249
     21 C           3.3463   -0.4225    1.1043 C.ar    1  UNL1        0.0753
     22 C           3.9771    0.7057    0.6424 C.ar    1  UNL1        0.0723
     23 C           3.2469    1.6943    0.0304 C.ar    1  UNL1        0.0056
     24 C           1.9129    1.5302   -0.0989 C.ar    1  UNL1       -0.0401
     25 C           4.1338    2.6921   -0.3575 C.ar    1  UNL1       -0.0223
     26 C           3.7246    3.8393   -1.2277 C.3     1  UNL1       -0.0285
     27 C           3.9609    3.3322   -2.6620 C.3     1  UNL1       -0.0612
     28 C           5.3711    2.2943    0.0460 C.ar    1  UNL1        0.0090
     29 N           5.2801    1.1211    0.6414 N.ar    1  UNL1       -0.3433
     30 C           6.3690    0.4156    1.2839 C.3     1  UNL1        0.0445
     31 C           6.5690   -0.9114    0.6081 C.3     1  UNL1        0.1028
     32 S           5.6024   -2.1834    1.3256 S.O2    1  UNL1        0.0470
     33 O           5.5143   -3.2986    0.2855 O.2     1  UNL1       -0.1549
     34 O           6.1885   -2.7282    2.5813 O.2     1  UNL1       -0.1549
     35 N           3.9656   -1.6352    1.5780 N.pl3   1  UNL1       -0.2083
     36 C           3.0802   -2.5374    2.2899 C.3     1  UNL1        0.0232
     37 H          -4.4392    5.4708    0.0047 H       1  UNL1        0.1228
     38 H          -6.8739    2.2702    0.9523 H       1  UNL1        0.0560
     39 H          -5.3282    1.7321    1.6494 H       1  UNL1        0.0560
     40 H          -6.3723    0.3449   -0.0997 H       1  UNL1        0.1229
     41 H          -4.5763    0.4170   -1.9079 H       1  UNL1        0.0450
     42 H          -4.0482    1.8955   -1.1520 H       1  UNL1        0.0450
     43 H          -3.2314    1.0327    0.7168 H       1  UNL1        0.0624
     44 H          -3.8421   -0.5791    1.8360 H       1  UNL1        0.2099
     45 H          -2.2581    0.6985   -1.4451 H       1  UNL1        0.0527
     46 H          -1.9172   -1.8090   -2.1234 H       1  UNL1        0.0332
     47 H          -3.2923   -0.8875   -2.6696 H       1  UNL1        0.0332
     48 H          -5.4381   -1.6193   -2.1047 H       1  UNL1        0.0620
     49 H          -6.9686   -3.0581   -0.9269 H       1  UNL1        0.0618
     50 H          -6.1205   -4.6636    0.7283 H       1  UNL1        0.0618
     51 H          -3.6615   -4.7470    1.2054 H       1  UNL1        0.0618
     52 H          -2.1260   -3.3106    0.0748 H       1  UNL1        0.0620
     53 H          -0.7387   -1.5882   -0.1289 H       1  UNL1        0.1494
     54 H           1.4758   -1.4612    1.3102 H       1  UNL1        0.0645
     55 H           1.3593    2.3621   -0.5668 H       1  UNL1        0.0632
     56 H           4.1476    4.7898   -0.9942 H       1  UNL1        0.0311
     57 H           2.5845    3.9424   -1.1581 H       1  UNL1        0.0311
     58 H           3.1746    2.6462   -2.9868 H       1  UNL1        0.0233
     59 H           4.1982    4.1764   -3.3176 H       1  UNL1        0.0233
     60 H           4.8980    2.6986   -2.6071 H       1  UNL1        0.0233
     61 H           6.2661    2.8650   -0.1483 H       1  UNL1        0.0812
     62 H           6.0678    0.1850    2.3607 H       1  UNL1        0.0508
     63 H           7.2817    1.0056    1.2747 H       1  UNL1        0.0508
     64 H           6.2105   -0.7621   -0.4573 H       1  UNL1        0.0536
     65 H           7.6127   -1.1917    0.5162 H       1  UNL1        0.0536
     66 H           2.4834   -3.1547    1.5803 H       1  UNL1        0.0446
     67 H           2.5400   -2.1110    3.1261 H       1  UNL1        0.0446
     68 H           3.7678   -3.3004    2.7448 H       1  UNL1        0.0446
@<TRIPOS>BOND
     1     1     2    3
     2     2     3    1
     3     3     4    1
     4     4     5    1
     5     5     6    1
     6     6     7    1
     7     6     8    1
     8     8     9    1
     9     9    10    1
    10    10    11   ar
    11    11    12   ar
    12    12    13   ar
    13    13    14   ar
    14    14    15   ar
    15     8    16    1
    16    16    17   am
    17    17    18    2
    18    17    19    1
    19    19    20   ar
    20    20    21   ar
    21    21    22   ar
    22    22    23   ar
    23    23    24   ar
    24    23    25   ar
    25    25    26    1
    26    26    27    1
    27    25    28   ar
    28    28    29   ar
    29    29    30    1
    30    30    31    1
    31    31    32    1
    32    32    33    2
    33    32    34    2
    34    32    35    1
    35    35    36    1
    36    15    10   ar
    37    24    19   ar
    38    35    21    1
    39    29    22   ar
    40     1    37    1
    41     3    38    1
    42     3    39    1
    43     4    40    1
    44     5    41    1
    45     5    42    1
    46     6    43    1
    47     7    44    1
    48     8    45    1
    49     9    46    1
    50     9    47    1
    51    11    48    1
    52    12    49    1
    53    13    50    1
    54    14    51    1
    55    15    52    1
    56    16    53    1
    57    20    54    1
    58    24    55    1
    59    26    56    1
    60    26    57    1
    61    27    58    1
    62    27    59    1
    63    27    60    1
    64    28    61    1
    65    30    62    1
    66    30    63    1
    67    31    64    1
    68    31    65    1
    69    36    66    1
    70    36    67    1
    71    36    68    1
