@<TRIPOS>MOLECULE
*****
 54 56 0 0 0
SMALL
GASTEIGER

@<TRIPOS>ATOM
      1 O           1.6763   -1.8916    0.5443 O.2     1  UNL1       -0.2495
      2 C           1.5308   -1.8454    1.7990 C.2     1  UNL1        0.3207
      3 O           1.8789   -3.0051    2.4785 O.3     1  UNL1       -0.4797
      4 C           1.0240   -0.6379    2.4985 C.3     1  UNL1        0.1178
      5 N           0.7661    0.4544    1.5582 N.3     1  UNL1       -0.1616
      6 C          -0.4266    1.1744    1.9421 C.3     1  UNL1        0.0461
      7 C          -1.2667    1.5999    0.7914 C.ar    1  UNL1       -0.0311
      8 C          -1.1887    2.8809    0.3003 C.ar    1  UNL1       -0.0573
      9 C          -1.9815    3.2108   -0.7876 C.ar    1  UNL1       -0.0609
     10 C          -2.8289    2.3039   -1.3759 C.ar    1  UNL1       -0.0539
     11 C          -2.8898    1.0256   -0.8647 C.ar    1  UNL1       -0.0141
     12 C          -3.7812    0.0497   -1.4729 C.ar    1  UNL1        0.0241
     13 C          -3.8550   -0.0920   -2.8400 C.ar    1  UNL1       -0.0505
     14 C          -4.7075   -1.0260   -3.4333 C.ar    1  UNL1       -0.0610
     15 C          -5.5046   -1.8375   -2.6561 C.ar    1  UNL1       -0.0583
     16 C          -5.4346   -1.6992   -1.2746 C.ar    1  UNL1       -0.0190
     17 C          -4.5800   -0.7639   -0.7006 C.ar    1  UNL1        0.1377
     18 O          -4.5833   -0.7030    0.6921 O.3     1  UNL1       -0.4051
     19 C          -5.4737    0.1625    1.3612 C.3     1  UNL1        0.5753
     20 F          -5.2022    1.4448    0.9520 F       1  UNL1       -0.1328
     21 F          -6.7877   -0.1878    1.1032 F       1  UNL1       -0.1328
     22 F          -5.1876    0.0740    2.7169 F       1  UNL1       -0.1328
     23 C          -2.1225    0.6552    0.2110 C.ar    1  UNL1       -0.0494
     24 S           2.1268    1.4533    1.4028 S.O2    1  UNL1        0.0616
     25 O           1.8545    2.5612    0.4306 O.2     1  UNL1       -0.1528
     26 O           2.5396    2.0367    2.7362 O.2     1  UNL1       -0.1528
     27 C           3.4590    0.4693    0.7697 C.ar    1  UNL1        0.1057
     28 C           4.3140   -0.2266    1.5948 C.ar    1  UNL1       -0.0319
     29 C           5.3485   -0.9850    1.1175 C.ar    1  UNL1       -0.0179
     30 C           5.5933   -1.0923   -0.2662 C.ar    1  UNL1        0.1270
     31 O           6.6324   -1.8559   -0.7137 O.3     1  UNL1       -0.4342
     32 C           6.9686   -2.0342   -2.0409 C.3     1  UNL1        0.3893
     33 F           8.2796   -1.5594   -2.2515 F       1  UNL1       -0.1663
     34 F           6.9617   -3.4070   -2.3513 F       1  UNL1       -0.1663
     35 C           4.7445   -0.4011   -1.0933 C.ar    1  UNL1       -0.0179
     36 C           3.7034    0.3603   -0.5799 C.ar    1  UNL1       -0.0319
     37 H           1.6805   -3.8915    1.9961 H       1  UNL1        0.2951
     38 H           0.1084   -0.9032    3.0694 H       1  UNL1        0.0559
     39 H           1.7964   -0.2792    3.2053 H       1  UNL1        0.0559
     40 H          -1.0568    0.5562    2.6192 H       1  UNL1        0.0493
     41 H          -0.1021    2.1005    2.4675 H       1  UNL1        0.0493
     42 H          -0.5488    3.6419    0.7355 H       1  UNL1        0.0621
     43 H          -1.9331    4.2338   -1.1968 H       1  UNL1        0.0618
     44 H          -3.4574    2.5667   -2.2389 H       1  UNL1        0.0624
     45 H          -3.2690    0.4991   -3.5297 H       1  UNL1        0.0625
     46 H          -4.7551   -1.1271   -4.5268 H       1  UNL1        0.0618
     47 H          -6.1673   -2.5636   -3.1188 H       1  UNL1        0.0619
     48 H          -6.0468   -2.3216   -0.6580 H       1  UNL1        0.0654
     49 H          -2.1861   -0.3536    0.5961 H       1  UNL1        0.0627
     50 H           4.1234   -0.1415    2.6625 H       1  UNL1        0.0638
     51 H           6.0208   -1.5331    1.7802 H       1  UNL1        0.0655
     52 H           6.3247   -1.5014   -2.7598 H       1  UNL1        0.1520
     53 H           4.8455   -0.4171   -2.1600 H       1  UNL1        0.0655
     54 H           3.0231    0.9144   -1.2404 H       1  UNL1        0.0638
@<TRIPOS>BOND
     1     1     2    2
     2     2     3    1
     3     2     4    1
     4     4     5    1
     5     5     6    1
     6     6     7    1
     7     7     8   ar
     8     8     9   ar
     9     9    10   ar
    10    10    11   ar
    11    11    12    1
    12    12    13   ar
    13    13    14   ar
    14    14    15   ar
    15    15    16   ar
    16    16    17   ar
    17    17    18    1
    18    18    19    1
    19    19    20    1
    20    19    21    1
    21    19    22    1
    22    11    23   ar
    23     5    24    1
    24    24    25    2
    25    24    26    2
    26    24    27    1
    27    27    28   ar
    28    28    29   ar
    29    29    30   ar
    30    30    31    1
    31    31    32    1
    32    32    33    1
    33    32    34    1
    34    30    35   ar
    35    35    36   ar
    36    23     7   ar
    37    36    27   ar
    38    17    12   ar
    39     3    37    1
    40     4    38    1
    41     4    39    1
    42     6    40    1
    43     6    41    1
    44     8    42    1
    45     9    43    1
    46    10    44    1
    47    13    45    1
    48    14    46    1
    49    15    47    1
    50    16    48    1
    51    23    49    1
    52    28    50    1
    53    29    51    1
    54    32    52    1
    55    35    53    1
    56    36    54    1
