
     RDKit          3D

 54 56  0  0  0  0  0  0  0  0999 V2000
    1.6763   -1.8916    0.5443 O   0  0  0  0  0  0  0  0  0  0  0  0
    1.5308   -1.8454    1.7990 C   0  0  0  0  0  0  0  0  0  0  0  0
    1.8789   -3.0051    2.4785 O   0  0  0  0  0  0  0  0  0  0  0  0
    1.0240   -0.6379    2.4985 C   0  0  0  0  0  0  0  0  0  0  0  0
    0.7661    0.4544    1.5582 N   0  0  0  0  0  0  0  0  0  0  0  0
   -0.4266    1.1744    1.9421 C   0  0  0  0  0  0  0  0  0  0  0  0
   -1.2667    1.5999    0.7914 C   0  0  0  0  0  0  0  0  0  0  0  0
   -1.1887    2.8809    0.3003 C   0  0  0  0  0  0  0  0  0  0  0  0
   -1.9815    3.2108   -0.7876 C   0  0  0  0  0  0  0  0  0  0  0  0
   -2.8289    2.3039   -1.3759 C   0  0  0  0  0  0  0  0  0  0  0  0
   -2.8898    1.0256   -0.8647 C   0  0  0  0  0  0  0  0  0  0  0  0
   -3.7812    0.0497   -1.4729 C   0  0  0  0  0  0  0  0  0  0  0  0
   -3.8550   -0.0920   -2.8400 C   0  0  0  0  0  0  0  0  0  0  0  0
   -4.7075   -1.0260   -3.4333 C   0  0  0  0  0  0  0  0  0  0  0  0
   -5.5046   -1.8375   -2.6561 C   0  0  0  0  0  0  0  0  0  0  0  0
   -5.4346   -1.6992   -1.2746 C   0  0  0  0  0  0  0  0  0  0  0  0
   -4.5800   -0.7639   -0.7006 C   0  0  0  0  0  0  0  0  0  0  0  0
   -4.5833   -0.7030    0.6921 O   0  0  0  0  0  0  0  0  0  0  0  0
   -5.4737    0.1625    1.3612 C   0  0  0  0  0  0  0  0  0  0  0  0
   -5.2022    1.4448    0.9520 F   0  0  0  0  0  0  0  0  0  0  0  0
   -6.7877   -0.1878    1.1032 F   0  0  0  0  0  0  0  0  0  0  0  0
   -5.1876    0.0740    2.7169 F   0  0  0  0  0  0  0  0  0  0  0  0
   -2.1225    0.6552    0.2110 C   0  0  0  0  0  0  0  0  0  0  0  0
    2.1268    1.4533    1.4028 S   0  0  0  0  0  6  0  0  0  0  0  0
    1.8545    2.5612    0.4306 O   0  0  0  0  0  0  0  0  0  0  0  0
    2.5396    2.0367    2.7362 O   0  0  0  0  0  0  0  0  0  0  0  0
    3.4590    0.4693    0.7697 C   0  0  0  0  0  0  0  0  0  0  0  0
    4.3140   -0.2266    1.5948 C   0  0  0  0  0  0  0  0  0  0  0  0
    5.3485   -0.9850    1.1175 C   0  0  0  0  0  0  0  0  0  0  0  0
    5.5933   -1.0923   -0.2662 C   0  0  0  0  0  0  0  0  0  0  0  0
    6.6324   -1.8559   -0.7137 O   0  0  0  0  0  0  0  0  0  0  0  0
    6.9686   -2.0342   -2.0409 C   0  0  0  0  0  0  0  0  0  0  0  0
    8.2796   -1.5594   -2.2515 F   0  0  0  0  0  0  0  0  0  0  0  0
    6.9617   -3.4070   -2.3513 F   0  0  0  0  0  0  0  0  0  0  0  0
    4.7445   -0.4011   -1.0933 C   0  0  0  0  0  0  0  0  0  0  0  0
    3.7034    0.3603   -0.5799 C   0  0  0  0  0  0  0  0  0  0  0  0
    1.6805   -3.8915    1.9961 H   0  0  0  0  0  0  0  0  0  0  0  0
    0.1084   -0.9032    3.0694 H   0  0  0  0  0  0  0  0  0  0  0  0
    1.7964   -0.2792    3.2053 H   0  0  0  0  0  0  0  0  0  0  0  0
   -1.0568    0.5562    2.6192 H   0  0  0  0  0  0  0  0  0  0  0  0
   -0.1021    2.1005    2.4675 H   0  0  0  0  0  0  0  0  0  0  0  0
   -0.5488    3.6419    0.7355 H   0  0  0  0  0  0  0  0  0  0  0  0
   -1.9331    4.2338   -1.1968 H   0  0  0  0  0  0  0  0  0  0  0  0
   -3.4574    2.5667   -2.2389 H   0  0  0  0  0  0  0  0  0  0  0  0
   -3.2690    0.4991   -3.5297 H   0  0  0  0  0  0  0  0  0  0  0  0
   -4.7551   -1.1271   -4.5268 H   0  0  0  0  0  0  0  0  0  0  0  0
   -6.1673   -2.5636   -3.1188 H   0  0  0  0  0  0  0  0  0  0  0  0
   -6.0468   -2.3216   -0.6580 H   0  0  0  0  0  0  0  0  0  0  0  0
   -2.1861   -0.3536    0.5961 H   0  0  0  0  0  0  0  0  0  0  0  0
    4.1234   -0.1415    2.6625 H   0  0  0  0  0  0  0  0  0  0  0  0
    6.0208   -1.5331    1.7802 H   0  0  0  0  0  0  0  0  0  0  0  0
    6.3247   -1.5014   -2.7598 H   0  0  0  0  0  0  0  0  0  0  0  0
    4.8455   -0.4171   -2.1600 H   0  0  0  0  0  0  0  0  0  0  0  0
    3.0231    0.9144   -1.2404 H   0  0  0  0  0  0  0  0  0  0  0  0
  1  2  2  0
  2  3  1  0
  2  4  1  0
  4  5  1  0
  5  6  1  0
  6  7  1  0
  7  8  2  0
  8  9  1  0
  9 10  2  0
 10 11  1  0
 11 12  1  0
 12 13  2  0
 13 14  1  0
 14 15  2  0
 15 16  1  0
 16 17  2  0
 17 18  1  0
 18 19  1  0
 19 20  1  0
 19 21  1  0
 19 22  1  0
 11 23  2  0
  5 24  1  0
 24 25  2  0
 24 26  2  0
 24 27  1  0
 27 28  2  0
 28 29  1  0
 29 30  2  0
 30 31  1  0
 31 32  1  0
 32 33  1  0
 32 34  1  0
 30 35  1  0
 35 36  2  0
 23  7  1  0
 36 27  1  0
 17 12  1  0
  3 37  1  0
  4 38  1  0
  4 39  1  0
  6 40  1  0
  6 41  1  0
  8 42  1  0
  9 43  1  0
 10 44  1  0
 13 45  1  0
 14 46  1  0
 15 47  1  0
 16 48  1  0
 23 49  1  0
 28 50  1  0
 29 51  1  0
 32 52  1  0
 35 53  1  0
 36 54  1  0
M  END
$$$$
