@<TRIPOS>MOLECULE
*****
 28 30 0 0 0
SMALL
GASTEIGER

@<TRIPOS>ATOM
      1 F           4.6465    1.9008    1.0615 F       1  UNL1       -0.2055
      2 C           3.6198    1.1025    0.6706 C.ar    1  UNL1        0.1234
      3 C           2.6853    0.7495    1.6459 C.ar    1  UNL1       -0.0258
      4 C           1.6182   -0.0576    1.3176 C.ar    1  UNL1       -0.0498
      5 C           1.4337   -0.5391    0.0418 C.ar    1  UNL1        0.0029
      6 C           2.3694   -0.1868   -0.9387 C.ar    1  UNL1       -0.0498
      7 C           3.4450    0.6294   -0.5994 C.ar    1  UNL1       -0.0258
      8 C           0.3933   -1.3978   -0.5045 C.ar    1  UNL1        0.1002
      9 N           0.5998   -2.6026   -1.0736 N.ar    1  UNL1       -0.1733
     10 N          -0.5867   -3.0979   -1.4670 N.ar    1  UNL1       -0.2835
     11 C          -1.5470   -2.1978   -1.1435 C.ar    1  UNL1        0.0306
     12 C          -0.9494   -1.1007   -0.5265 C.ar    1  UNL1        0.0273
     13 C          -1.7088    0.0454   -0.0436 C.ar    1  UNL1       -0.0115
     14 C          -2.2384    0.9237   -0.9648 C.ar    1  UNL1       -0.0358
     15 C          -2.9806    2.0352   -0.5978 C.ar    1  UNL1        0.0281
     16 N          -3.2197    2.3079    0.7079 N.ar    1  UNL1       -0.2632
     17 C          -2.7123    1.4630    1.6320 C.ar    1  UNL1        0.0281
     18 C          -1.9738    0.3554    1.2951 C.ar    1  UNL1       -0.0358
     19 H           2.7179    1.0667    2.6992 H       1  UNL1        0.0646
     20 H           0.8313   -0.3938    2.0055 H       1  UNL1        0.0625
     21 H           2.4369   -0.4396   -1.9957 H       1  UNL1        0.0625
     22 H           4.2352    0.9688   -1.2717 H       1  UNL1        0.0646
     23 H          -0.5247   -4.0325   -1.9211 H       1  UNL1        0.1882
     24 H          -2.5781   -2.4399   -1.3935 H       1  UNL1        0.0830
     25 H          -2.1308    0.8385   -2.0367 H       1  UNL1        0.0639
     26 H          -3.4187    2.7562   -1.2964 H       1  UNL1        0.0830
     27 H          -2.9072    1.6842    2.6723 H       1  UNL1        0.0830
     28 H          -1.5561   -0.3411    2.0250 H       1  UNL1        0.0639
@<TRIPOS>BOND
     1     1     2    1
     2     2     3   ar
     3     3     4   ar
     4     4     5   ar
     5     5     6   ar
     6     6     7   ar
     7     5     8    1
     8     8     9   ar
     9     9    10   ar
    10    10    11   ar
    11    11    12   ar
    12    12    13    1
    13    13    14   ar
    14    14    15   ar
    15    15    16   ar
    16    16    17   ar
    17    17    18   ar
    18     7     2   ar
    19    12     8   ar
    20    18    13   ar
    21     3    19    1
    22     4    20    1
    23     6    21    1
    24     7    22    1
    25    10    23    1
    26    11    24    1
    27    14    25    1
    28    15    26    1
    29    17    27    1
    30    18    28    1
