@<TRIPOS>MOLECULE
*****
 49 53 0 0 0
SMALL
GASTEIGER

@<TRIPOS>ATOM
      1 N           3.9456    1.7642    0.1307 N.3     1  UNL1       -0.3248
      2 C           3.0021    0.8405    0.7268 C.3     1  UNL1        0.0371
      3 C           1.6150    1.4199    0.7297 C.3     1  UNL1       -0.0172
      4 C           0.5294    0.4165    0.8696 C.3     1  UNL1        0.0360
      5 N          -0.7024    0.8059    0.2061 N.3     1  UNL1       -0.2871
      6 C          -1.2579    2.0240    0.6942 C.3     1  UNL1        0.0440
      7 C          -2.7284    1.8491    0.4355 C.ar    1  UNL1        0.0839
      8 N          -3.9149    2.4658    0.2885 N.ar    1  UNL1       -0.1683
      9 N          -4.8684    1.5734    0.0573 N.ar    1  UNL1       -0.2211
     10 C          -6.1933    1.7011   -0.1525 C.ar    1  UNL1        0.0334
     11 C          -7.0186    0.6171   -0.3780 C.ar    1  UNL1       -0.0134
     12 C          -6.4298   -0.6304   -0.3818 C.ar    1  UNL1        0.1473
     13 C          -7.3059   -1.8067   -0.6233 C.3     1  UNL1        0.4343
     14 F          -6.7555   -2.8908    0.0428 F       1  UNL1       -0.1644
     15 F          -8.5977   -1.5864   -0.2422 F       1  UNL1       -0.1644
     16 F          -7.2840   -2.0375   -2.0022 F       1  UNL1       -0.1644
     17 N          -5.1082   -0.7203   -0.1694 N.ar    1  UNL1       -0.2235
     18 C          -4.3195    0.3439    0.0484 C.ar    1  UNL1        0.1607
     19 C          -2.9628    0.5108    0.2875 C.ar    1  UNL1        0.0349
     20 C          -1.6748   -0.2425    0.4402 C.3     1  UNL1        0.0301
     21 C           0.8721   -0.9579    0.4002 C.3     1  UNL1        0.0641
     22 O           2.1698   -1.3383    0.6254 O.3     1  UNL1       -0.3688
     23 C           2.9916   -0.4300   -0.0798 C.3     1  UNL1        0.1015
     24 C           4.3426   -0.9854   -0.3074 C.ar    1  UNL1        0.0207
     25 C           5.0618   -0.6032   -1.4217 C.ar    1  UNL1       -0.0152
     26 C           6.3344   -1.1001   -1.6745 C.ar    1  UNL1        0.1589
     27 F           7.0129   -0.7070   -2.7734 F       1  UNL1       -0.2025
     28 C           6.9234   -1.9996   -0.8105 C.ar    1  UNL1        0.1611
     29 F           8.1732   -2.4818   -1.0674 F       1  UNL1       -0.2024
     30 C           6.2012   -2.3792    0.3022 C.ar    1  UNL1        0.0120
     31 C           4.9257   -1.8834    0.5589 C.ar    1  UNL1        0.1320
     32 F           4.2389   -2.2769    1.6648 F       1  UNL1       -0.2050
     33 H           4.1543    2.5328    0.8066 H       1  UNL1        0.1186
     34 H           3.5609    2.1772   -0.7305 H       1  UNL1        0.1186
     35 H           3.2822    0.5880    1.7663 H       1  UNL1        0.0488
     36 H           1.4255    2.0236   -0.1775 H       1  UNL1        0.0297
     37 H           1.5643    2.1403    1.5902 H       1  UNL1        0.0297
     38 H           0.2677    0.3333    1.9652 H       1  UNL1        0.0486
     39 H          -0.9489    2.9173    0.0919 H       1  UNL1        0.0492
     40 H          -1.0890    2.2284    1.7574 H       1  UNL1        0.0492
     41 H          -6.6468    2.6792   -0.1482 H       1  UNL1        0.0831
     42 H          -8.0935    0.7234   -0.5481 H       1  UNL1        0.0653
     43 H          -1.5878   -1.0676   -0.2829 H       1  UNL1        0.0478
     44 H          -1.6536   -0.6481    1.4546 H       1  UNL1        0.0478
     45 H           0.6447   -0.9915   -0.7053 H       1  UNL1        0.0576
     46 H           0.1459   -1.6678    0.8670 H       1  UNL1        0.0576
     47 H           2.4879   -0.2565   -1.0533 H       1  UNL1        0.0663
     48 H           4.5977    0.0980   -2.0914 H       1  UNL1        0.0651
     49 H           6.6710   -3.0850    0.9743 H       1  UNL1        0.0676
@<TRIPOS>BOND
     1     1     2    1
     2     2     3    1
     3     3     4    1
     4     4     5    1
     5     5     6    1
     6     6     7    1
     7     7     8   ar
     8     8     9   ar
     9     9    10   ar
    10    10    11   ar
    11    11    12   ar
    12    12    13    1
    13    13    14    1
    14    13    15    1
    15    13    16    1
    16    12    17   ar
    17    17    18   ar
    18    18    19   ar
    19    19    20    1
    20     4    21    1
    21    21    22    1
    22    22    23    1
    23    23    24    1
    24    24    25   ar
    25    25    26   ar
    26    26    27    1
    27    26    28   ar
    28    28    29    1
    29    28    30   ar
    30    30    31   ar
    31    31    32    1
    32    23     2    1
    33    31    24   ar
    34    20     5    1
    35    19     7   ar
    36    18     9   ar
    37     1    33    1
    38     1    34    1
    39     2    35    1
    40     3    36    1
    41     3    37    1
    42     4    38    1
    43     6    39    1
    44     6    40    1
    45    10    41    1
    46    11    42    1
    47    20    43    1
    48    20    44    1
    49    21    45    1
    50    21    46    1
    51    23    47    1
    52    25    48    1
    53    30    49    1
