
     RDKit          3D

 49 53  0  0  0  0  0  0  0  0999 V2000
    3.9456    1.7642    0.1307 N   0  0  0  0  0  0  0  0  0  0  0  0
    3.0021    0.8405    0.7268 C   0  0  1  0  0  0  0  0  0  0  0  0
    1.6150    1.4199    0.7297 C   0  0  0  0  0  0  0  0  0  0  0  0
    0.5294    0.4165    0.8696 C   0  0  1  0  0  0  0  0  0  0  0  0
   -0.7024    0.8059    0.2061 N   0  0  0  0  0  0  0  0  0  0  0  0
   -1.2579    2.0240    0.6942 C   0  0  0  0  0  0  0  0  0  0  0  0
   -2.7284    1.8491    0.4355 C   0  0  0  0  0  0  0  0  0  0  0  0
   -3.9149    2.4658    0.2885 N   0  0  0  0  0  0  0  0  0  0  0  0
   -4.8684    1.5734    0.0573 N   0  0  0  0  0  0  0  0  0  0  0  0
   -6.1933    1.7011   -0.1525 C   0  0  0  0  0  0  0  0  0  0  0  0
   -7.0186    0.6171   -0.3780 C   0  0  0  0  0  0  0  0  0  0  0  0
   -6.4298   -0.6304   -0.3818 C   0  0  0  0  0  0  0  0  0  0  0  0
   -7.3059   -1.8067   -0.6233 C   0  0  0  0  0  0  0  0  0  0  0  0
   -6.7555   -2.8908    0.0428 F   0  0  0  0  0  0  0  0  0  0  0  0
   -8.5977   -1.5864   -0.2422 F   0  0  0  0  0  0  0  0  0  0  0  0
   -7.2840   -2.0375   -2.0022 F   0  0  0  0  0  0  0  0  0  0  0  0
   -5.1082   -0.7203   -0.1694 N   0  0  0  0  0  0  0  0  0  0  0  0
   -4.3195    0.3439    0.0484 C   0  0  0  0  0  0  0  0  0  0  0  0
   -2.9628    0.5108    0.2875 C   0  0  0  0  0  0  0  0  0  0  0  0
   -1.6748   -0.2425    0.4402 C   0  0  0  0  0  0  0  0  0  0  0  0
    0.8721   -0.9579    0.4002 C   0  0  0  0  0  0  0  0  0  0  0  0
    2.1698   -1.3383    0.6254 O   0  0  0  0  0  0  0  0  0  0  0  0
    2.9916   -0.4300   -0.0798 C   0  0  2  0  0  0  0  0  0  0  0  0
    4.3426   -0.9854   -0.3074 C   0  0  0  0  0  0  0  0  0  0  0  0
    5.0618   -0.6032   -1.4217 C   0  0  0  0  0  0  0  0  0  0  0  0
    6.3344   -1.1001   -1.6745 C   0  0  0  0  0  0  0  0  0  0  0  0
    7.0129   -0.7070   -2.7734 F   0  0  0  0  0  0  0  0  0  0  0  0
    6.9234   -1.9996   -0.8105 C   0  0  0  0  0  0  0  0  0  0  0  0
    8.1732   -2.4818   -1.0674 F   0  0  0  0  0  0  0  0  0  0  0  0
    6.2012   -2.3792    0.3022 C   0  0  0  0  0  0  0  0  0  0  0  0
    4.9257   -1.8834    0.5589 C   0  0  0  0  0  0  0  0  0  0  0  0
    4.2389   -2.2769    1.6648 F   0  0  0  0  0  0  0  0  0  0  0  0
    4.1543    2.5328    0.8066 H   0  0  0  0  0  0  0  0  0  0  0  0
    3.5609    2.1772   -0.7305 H   0  0  0  0  0  0  0  0  0  0  0  0
    3.2822    0.5880    1.7663 H   0  0  0  0  0  0  0  0  0  0  0  0
    1.4255    2.0236   -0.1775 H   0  0  0  0  0  0  0  0  0  0  0  0
    1.5643    2.1403    1.5902 H   0  0  0  0  0  0  0  0  0  0  0  0
    0.2677    0.3333    1.9652 H   0  0  0  0  0  0  0  0  0  0  0  0
   -0.9489    2.9173    0.0919 H   0  0  0  0  0  0  0  0  0  0  0  0
   -1.0890    2.2284    1.7574 H   0  0  0  0  0  0  0  0  0  0  0  0
   -6.6468    2.6792   -0.1482 H   0  0  0  0  0  0  0  0  0  0  0  0
   -8.0935    0.7234   -0.5481 H   0  0  0  0  0  0  0  0  0  0  0  0
   -1.5878   -1.0676   -0.2829 H   0  0  0  0  0  0  0  0  0  0  0  0
   -1.6536   -0.6481    1.4546 H   0  0  0  0  0  0  0  0  0  0  0  0
    0.6447   -0.9915   -0.7053 H   0  0  0  0  0  0  0  0  0  0  0  0
    0.1459   -1.6678    0.8670 H   0  0  0  0  0  0  0  0  0  0  0  0
    2.4879   -0.2565   -1.0533 H   0  0  0  0  0  0  0  0  0  0  0  0
    4.5977    0.0980   -2.0914 H   0  0  0  0  0  0  0  0  0  0  0  0
    6.6710   -3.0850    0.9743 H   0  0  0  0  0  0  0  0  0  0  0  0
  1  2  1  0
  2  3  1  0
  3  4  1  0
  4  5  1  0
  5  6  1  0
  6  7  1  0
  7  8  2  0
  8  9  1  0
  9 10  1  0
 10 11  2  0
 11 12  1  0
 12 13  1  0
 13 14  1  0
 13 15  1  0
 13 16  1  0
 12 17  2  0
 17 18  1  0
 18 19  2  0
 19 20  1  0
  4 21  1  0
 21 22  1  0
 22 23  1  0
 23 24  1  0
 24 25  2  0
 25 26  1  0
 26 27  1  0
 26 28  2  0
 28 29  1  0
 28 30  1  0
 30 31  2  0
 31 32  1  0
 23  2  1  0
 31 24  1  0
 20  5  1  0
 19  7  1  0
 18  9  1  0
  1 33  1  0
  1 34  1  0
  2 35  1  1
  3 36  1  0
  3 37  1  0
  4 38  1  1
  6 39  1  0
  6 40  1  0
 10 41  1  0
 11 42  1  0
 20 43  1  0
 20 44  1  0
 21 45  1  0
 21 46  1  0
 23 47  1  6
 25 48  1  0
 30 49  1  0
M  END
$$$$
