
     RDKit          3D

 69 74  0  0  0  0  0  0  0  0999 V2000
   -7.0572    2.2047    0.0407 C   0  0  0  0  0  0  0  0  0  0  0  0
   -7.1512    1.3883    1.2421 N   0  0  0  0  0  0  0  0  0  0  0  0
   -8.4188    1.3143    1.9287 C   0  0  0  0  0  0  0  0  0  0  0  0
   -6.0402    0.6736    1.7562 C   0  0  0  0  0  0  0  0  0  0  0  0
   -6.1807   -0.0033    2.7876 O   0  0  0  0  0  0  0  0  0  0  0  0
   -4.7719    0.7436    1.0838 C   0  0  0  0  0  0  0  0  0  0  0  0
   -3.9936    1.9076    1.1702 C   0  0  0  0  0  0  0  0  0  0  0  0
   -2.8923    1.6759    0.4259 C   0  0  0  0  0  0  0  0  0  0  0  0
   -1.7731    2.4632    0.1278 C   0  0  0  0  0  0  0  0  0  0  0  0
   -0.7945    1.9937   -0.6674 N   0  0  0  0  0  0  0  0  0  0  0  0
   -0.8983    0.7550   -1.1762 C   0  0  0  0  0  0  0  0  0  0  0  0
    0.1271    0.2819   -2.0192 N   0  0  0  0  0  0  0  0  0  0  0  0
    1.4575    0.1779   -1.5238 C   0  0  0  0  0  0  0  0  0  0  0  0
    2.4333   -0.2999   -2.3422 C   0  0  0  0  0  0  0  0  0  0  0  0
    3.7181   -0.3915   -1.8653 C   0  0  0  0  0  0  0  0  0  0  0  0
    4.0392   -0.0068   -0.5697 C   0  0  0  0  0  0  0  0  0  0  0  0
    5.4003   -0.1629   -0.1905 N   0  0  0  0  0  0  0  0  0  0  0  0
    6.3268    0.9046   -0.5107 C   0  0  0  0  0  0  0  0  0  0  0  0
    7.4150    1.1773    0.4819 C   0  0  0  0  0  0  0  0  0  0  0  0
    8.8178    1.0619   -0.1367 C   0  0  0  0  0  0  0  0  0  0  0  0
    9.7111    0.3284    0.6361 O   0  0  0  0  0  0  0  0  0  0  0  0
    9.3431   -1.0458    0.7519 C   0  0  0  0  0  0  0  0  0  0  0  0
    7.9304   -1.0397    0.5508 C   0  0  0  0  0  0  0  0  0  0  0  0
    6.9746   -2.1330    0.7344 C   0  0  0  0  0  0  0  0  0  0  0  0
    5.6496   -1.4245    0.4605 C   0  0  0  0  0  0  0  0  0  0  0  0
    4.6310   -2.0019    0.8483 O   0  0  0  0  0  0  0  0  0  0  0  0
    7.3987    0.0528    1.3955 N   0  0  0  0  0  0  0  0  0  0  0  0
    3.0359    0.4678    0.2225 C   0  0  0  0  0  0  0  0  0  0  0  0
    1.7658    0.5554   -0.2550 N   0  0  0  0  0  0  0  0  0  0  0  0
   -1.9734    0.0048   -0.8862 N   0  0  0  0  0  0  0  0  0  0  0  0
   -2.9916    0.4348   -0.0876 C   0  0  0  0  0  0  0  0  0  0  0  0
   -4.1688   -0.1541    0.3225 N   0  0  0  0  0  0  0  0  0  0  0  0
   -4.4596   -1.4732   -0.1285 C   0  0  0  0  0  0  0  0  0  0  0  0
   -4.8647   -1.4972   -1.6003 C   0  0  0  0  0  0  0  0  0  0  0  0
   -6.3539   -1.5739   -1.5414 C   0  0  0  0  0  0  0  0  0  0  0  0
   -6.7454   -2.1865   -0.2162 C   0  0  0  0  0  0  0  0  0  0  0  0
   -5.4527   -2.2928    0.5663 C   0  0  0  0  0  0  0  0  0  0  0  0
   -6.4342    3.1250    0.2413 H   0  0  0  0  0  0  0  0  0  0  0  0
   -6.5746    1.6723   -0.7738 H   0  0  0  0  0  0  0  0  0  0  0  0
   -8.0536    2.5527   -0.2909 H   0  0  0  0  0  0  0  0  0  0  0  0
   -9.0413    2.2229    1.7752 H   0  0  0  0  0  0  0  0  0  0  0  0
   -9.0297    0.4585    1.5752 H   0  0  0  0  0  0  0  0  0  0  0  0
   -8.2513    1.2640    3.0316 H   0  0  0  0  0  0  0  0  0  0  0  0
   -4.2362    2.8083    1.7244 H   0  0  0  0  0  0  0  0  0  0  0  0
   -1.7611    3.4479    0.5763 H   0  0  0  0  0  0  0  0  0  0  0  0
   -0.0901    0.0039   -3.0156 H   0  0  0  0  0  0  0  0  0  0  0  0
    2.2504   -0.6237   -3.3782 H   0  0  0  0  0  0  0  0  0  0  0  0
    4.4917   -0.7752   -2.5335 H   0  0  0  0  0  0  0  0  0  0  0  0
    6.7003    0.8251   -1.5556 H   0  0  0  0  0  0  0  0  0  0  0  0
    5.6853    1.8381   -0.5381 H   0  0  0  0  0  0  0  0  0  0  0  0
    7.2864    2.1429    1.0092 H   0  0  0  0  0  0  0  0  0  0  0  0
    9.2285    2.1137   -0.0892 H   0  0  0  0  0  0  0  0  0  0  0  0
    8.8098    0.8152   -1.1943 H   0  0  0  0  0  0  0  0  0  0  0  0
    9.8704   -1.5373   -0.1203 H   0  0  0  0  0  0  0  0  0  0  0  0
    9.7260   -1.4823    1.6820 H   0  0  0  0  0  0  0  0  0  0  0  0
    7.7754   -0.8032   -0.5565 H   0  0  0  0  0  0  0  0  0  0  0  0
    7.0108   -2.9030   -0.0874 H   0  0  0  0  0  0  0  0  0  0  0  0
    6.8963   -2.5784    1.7343 H   0  0  0  0  0  0  0  0  0  0  0  0
    6.4491   -0.0858    1.7210 H   0  0  0  0  0  0  0  0  0  0  0  0
    3.2940    0.7668    1.2319 H   0  0  0  0  0  0  0  0  0  0  0  0
   -3.4617   -2.0424   -0.1369 H   0  0  0  0  0  0  0  0  0  0  0  0
   -4.4893   -0.5569   -2.0525 H   0  0  0  0  0  0  0  0  0  0  0  0
   -4.3942   -2.3148   -2.1516 H   0  0  0  0  0  0  0  0  0  0  0  0
   -6.7473   -0.5426   -1.6307 H   0  0  0  0  0  0  0  0  0  0  0  0
   -6.6915   -2.1965   -2.4137 H   0  0  0  0  0  0  0  0  0  0  0  0
   -7.1794   -3.2005   -0.4689 H   0  0  0  0  0  0  0  0  0  0  0  0
   -7.5466   -1.6575    0.3037 H   0  0  0  0  0  0  0  0  0  0  0  0
   -5.5432   -2.2459    1.6407 H   0  0  0  0  0  0  0  0  0  0  0  0
   -5.1425   -3.3917    0.3879 H   0  0  0  0  0  0  0  0  0  0  0  0
  1  2  1  0
  2  3  1  0
  2  4  1  0
  4  5  2  0
  4  6  1  0
  6  7  2  0
  7  8  1  0
  8  9  2  0
  9 10  1  0
 10 11  2  0
 11 12  1  0
 12 13  1  0
 13 14  2  0
 14 15  1  0
 15 16  2  0
 16 17  1  0
 17 18  1  0
 18 19  1  0
 19 20  1  0
 20 21  1  0
 21 22  1  0
 22 23  1  0
 23 24  1  0
 24 25  1  0
 25 26  2  0
 23 27  1  0
 16 28  1  0
 28 29  2  0
 11 30  1  0
 30 31  2  0
 31 32  1  0
 32 33  1  0
 33 34  1  0
 34 35  1  0
 35 36  1  0
 36 37  1  0
 32  6  1  0
 37 33  1  0
 31  8  1  0
 29 13  1  0
 25 17  1  0
 27 19  1  0
  1 38  1  0
  1 39  1  0
  1 40  1  0
  3 41  1  0
  3 42  1  0
  3 43  1  0
  7 44  1  0
  9 45  1  0
 12 46  1  0
 14 47  1  0
 15 48  1  0
 18 49  1  0
 18 50  1  0
 19 51  1  0
 20 52  1  0
 20 53  1  0
 22 54  1  0
 22 55  1  0
 23 56  1  0
 24 57  1  0
 24 58  1  0
 27 59  1  0
 28 60  1  0
 33 61  1  0
 34 62  1  0
 34 63  1  0
 35 64  1  0
 35 65  1  0
 36 66  1  0
 36 67  1  0
 37 68  1  0
 37 69  1  0
M  END
$$$$
