@<TRIPOS>MOLECULE
*****
 69 74 0 0 0
SMALL
GASTEIGER

@<TRIPOS>ATOM
      1 C          -7.0572    2.2047    0.0407 C.3     1  UNL1        0.0032
      2 N          -7.1512    1.3883    1.2421 N.am    1  UNL1       -0.3024
      3 C          -8.4188    1.3143    1.9287 C.3     1  UNL1        0.0032
      4 C          -6.0402    0.6736    1.7562 C.2     1  UNL1        0.2627
      5 O          -6.1807   -0.0033    2.7876 O.2     1  UNL1       -0.2684
      6 C          -4.7719    0.7436    1.0838 C.ar    1  UNL1        0.1070
      7 C          -3.9936    1.9076    1.1702 C.ar    1  UNL1       -0.0209
      8 C          -2.8923    1.6759    0.4259 C.ar    1  UNL1        0.0378
      9 C          -1.7731    2.4632    0.1278 C.ar    1  UNL1        0.0419
     10 N          -0.7945    1.9937   -0.6674 N.ar    1  UNL1       -0.2219
     11 C          -0.8983    0.7550   -1.1762 C.ar    1  UNL1        0.2224
     12 N           0.1271    0.2819   -2.0192 N.pl3   1  UNL1       -0.2684
     13 C           1.4575    0.1779   -1.5238 C.ar    1  UNL1        0.1251
     14 C           2.4333   -0.2999   -2.3422 C.ar    1  UNL1       -0.0197
     15 C           3.7181   -0.3915   -1.8653 C.ar    1  UNL1       -0.0355
     16 C           4.0392   -0.0068   -0.5697 C.ar    1  UNL1        0.0545
     17 N           5.4003   -0.1629   -0.1905 N.am    1  UNL1       -0.2684
     18 C           6.3268    0.9046   -0.5107 C.3     1  UNL1        0.0374
     19 C           7.4150    1.1773    0.4819 C.3     1  UNL1        0.0476
     20 C           8.8178    1.0619   -0.1367 C.3     1  UNL1        0.0645
     21 O           9.7111    0.3284    0.6361 O.3     1  UNL1       -0.3766
     22 C           9.3431   -1.0458    0.7519 C.3     1  UNL1        0.0635
     23 C           7.9304   -1.0397    0.5508 C.3     1  UNL1        0.0396
     24 C           6.9746   -2.1330    0.7344 C.3     1  UNL1        0.0420
     25 C           5.6496   -1.4245    0.4605 C.2     1  UNL1        0.2214
     26 O           4.6310   -2.0019    0.8483 O.2     1  UNL1       -0.2752
     27 N           7.3987    0.0528    1.3955 N.3     1  UNL1       -0.3044
     28 C           3.0359    0.4678    0.2225 C.ar    1  UNL1        0.0511
     29 N           1.7658    0.5554   -0.2550 N.ar    1  UNL1       -0.2383
     30 N          -1.9734    0.0048   -0.8862 N.ar    1  UNL1       -0.1962
     31 C          -2.9916    0.4348   -0.0876 C.ar    1  UNL1        0.1466
     32 N          -4.1688   -0.1541    0.3225 N.ar    1  UNL1       -0.3180
     33 C          -4.4596   -1.4732   -0.1285 C.3     1  UNL1        0.0366
     34 C          -4.8647   -1.4972   -1.6003 C.3     1  UNL1       -0.0320
     35 C          -6.3539   -1.5739   -1.5414 C.3     1  UNL1       -0.0511
     36 C          -6.7454   -2.1865   -0.2162 C.3     1  UNL1       -0.0511
     37 C          -5.4527   -2.2928    0.5663 C.3     1  UNL1       -0.0320
     38 H          -6.4342    3.1250    0.2413 H       1  UNL1        0.0428
     39 H          -6.5746    1.6723   -0.7738 H       1  UNL1        0.0428
     40 H          -8.0536    2.5527   -0.2909 H       1  UNL1        0.0428
     41 H          -9.0413    2.2229    1.7752 H       1  UNL1        0.0428
     42 H          -9.0297    0.4585    1.5752 H       1  UNL1        0.0428
     43 H          -8.2513    1.2640    3.0316 H       1  UNL1        0.0428
     44 H          -4.2362    2.8083    1.7244 H       1  UNL1        0.0647
     45 H          -1.7611    3.4479    0.5763 H       1  UNL1        0.0838
     46 H          -0.0901    0.0039   -3.0156 H       1  UNL1        0.1564
     47 H           2.2504   -0.6237   -3.3782 H       1  UNL1        0.0652
     48 H           4.4917   -0.7752   -2.5335 H       1  UNL1        0.0638
     49 H           6.7003    0.8251   -1.5556 H       1  UNL1        0.0485
     50 H           5.6853    1.8381   -0.5381 H       1  UNL1        0.0485
     51 H           7.2864    2.1429    1.0092 H       1  UNL1        0.0499
     52 H           9.2285    2.1137   -0.0892 H       1  UNL1        0.0576
     53 H           8.8098    0.8152   -1.1943 H       1  UNL1        0.0576
     54 H           9.8704   -1.5373   -0.1203 H       1  UNL1        0.0575
     55 H           9.7260   -1.4823    1.6820 H       1  UNL1        0.0575
     56 H           7.7754   -0.8032   -0.5565 H       1  UNL1        0.0488
     57 H           7.0108   -2.9030   -0.0874 H       1  UNL1        0.0375
     58 H           6.8963   -2.5784    1.7343 H       1  UNL1        0.0375
     59 H           6.4491   -0.0858    1.7210 H       1  UNL1        0.1227
     60 H           3.2940    0.7668    1.2319 H       1  UNL1        0.0849
     61 H          -3.4617   -2.0424   -0.1369 H       1  UNL1        0.0528
     62 H          -4.4893   -0.5569   -2.0525 H       1  UNL1        0.0285
     63 H          -4.3942   -2.3148   -2.1516 H       1  UNL1        0.0285
     64 H          -6.7473   -0.5426   -1.6307 H       1  UNL1        0.0266
     65 H          -6.6915   -2.1965   -2.4137 H       1  UNL1        0.0266
     66 H          -7.1794   -3.2005   -0.4689 H       1  UNL1        0.0266
     67 H          -7.5466   -1.6575    0.3037 H       1  UNL1        0.0266
     68 H          -5.5432   -2.2459    1.6407 H       1  UNL1        0.0285
     69 H          -5.1425   -3.3917    0.3879 H       1  UNL1        0.0285
@<TRIPOS>BOND
     1     1     2    1
     2     2     3    1
     3     2     4   am
     4     4     5    2
     5     4     6    1
     6     6     7   ar
     7     7     8   ar
     8     8     9   ar
     9     9    10   ar
    10    10    11   ar
    11    11    12    1
    12    12    13    1
    13    13    14   ar
    14    14    15   ar
    15    15    16   ar
    16    16    17    1
    17    17    18    1
    18    18    19    1
    19    19    20    1
    20    20    21    1
    21    21    22    1
    22    22    23    1
    23    23    24    1
    24    24    25    1
    25    25    26    2
    26    23    27    1
    27    16    28   ar
    28    28    29   ar
    29    11    30   ar
    30    30    31   ar
    31    31    32   ar
    32    32    33    1
    33    33    34    1
    34    34    35    1
    35    35    36    1
    36    36    37    1
    37    32     6   ar
    38    37    33    1
    39    31     8   ar
    40    29    13   ar
    41    25    17   am
    42    27    19    1
    43     1    38    1
    44     1    39    1
    45     1    40    1
    46     3    41    1
    47     3    42    1
    48     3    43    1
    49     7    44    1
    50     9    45    1
    51    12    46    1
    52    14    47    1
    53    15    48    1
    54    18    49    1
    55    18    50    1
    56    19    51    1
    57    20    52    1
    58    20    53    1
    59    22    54    1
    60    22    55    1
    61    23    56    1
    62    24    57    1
    63    24    58    1
    64    27    59    1
    65    28    60    1
    66    33    61    1
    67    34    62    1
    68    34    63    1
    69    35    64    1
    70    35    65    1
    71    36    66    1
    72    36    67    1
    73    37    68    1
    74    37    69    1
