@<TRIPOS>MOLECULE
*****
 54 57 0 0 0
SMALL
GASTEIGER

@<TRIPOS>ATOM
      1 O           6.7621    2.7627    0.3469 O.3     1  UNL1       -0.3920
      2 C           7.6637    1.7086    0.2577 C.3     1  UNL1        0.0787
      3 C           7.1043    0.4213    0.8283 C.3     1  UNL1        0.1539
      4 O           8.0460   -0.6187    0.7199 O.3     1  UNL1       -0.3803
      5 C           5.9532    0.0116    0.0103 C.2     1  UNL1        0.2467
      6 O           6.2218   -1.0981   -0.4879 O.2     1  UNL1       -0.2727
      7 N           4.6625    0.3930   -0.4263 N.am    1  UNL1       -0.2952
      8 C           4.0165   -0.5556   -1.2994 C.3     1  UNL1        0.0191
      9 C           2.9091   -1.2329   -0.4703 C.3     1  UNL1       -0.0113
     10 C           1.8954   -0.2033   -0.1725 C.2     1  UNL1       -0.0357
     11 C           2.3841    1.0186   -0.0818 C.2     1  UNL1       -0.0629
     12 C           3.7639    1.5408   -0.2243 C.3     1  UNL1        0.0334
     13 C           0.4804   -0.4617   -0.0043 C.ar    1  UNL1        0.0484
     14 C           0.0288   -1.7602    0.0192 C.ar    1  UNL1        0.1353
     15 F           0.7846   -2.8766   -0.0599 F       1  UNL1       -0.2047
     16 C          -1.2977   -2.1166    0.1501 C.ar    1  UNL1       -0.0041
     17 C          -2.2865   -1.1354    0.2704 C.ar    1  UNL1        0.0450
     18 C          -1.8647    0.1831    0.2507 C.ar    1  UNL1       -0.0041
     19 C          -0.5272    0.4564    0.1168 C.ar    1  UNL1        0.1353
     20 F          -0.2646    1.7746    0.1047 F       1  UNL1       -0.2047
     21 N          -3.6642   -1.4485    0.4076 N.am    1  UNL1       -0.2335
     22 C          -4.4363   -1.5712   -0.8342 C.3     1  UNL1        0.0633
     23 C          -5.8373   -1.8719   -0.3409 C.3     1  UNL1        0.1545
     24 C          -6.7873   -1.0664   -1.1769 C.3     1  UNL1        0.1297
     25 O          -6.4510    0.2869   -1.1237 O.3     1  UNL1       -0.4706
     26 C          -6.4585    0.9732    0.0773 C.ar    1  UNL1        0.2546
     27 N          -6.6550    0.9885    1.3904 N.ar    1  UNL1       -0.0402
     28 O          -6.4405    2.1388    1.9114 O.2     1  UNL1       -0.3595
     29 C          -6.0755    3.0178    0.9922 C.ar    1  UNL1        0.1279
     30 C          -6.0787    2.2920   -0.2018 C.ar    1  UNL1        0.0404
     31 O          -5.8567   -1.4939    1.0147 O.3     1  UNL1       -0.4417
     32 C          -4.5509   -1.6907    1.5014 C.2     1  UNL1        0.4077
     33 O          -4.0501   -2.0097    2.6113 O.2     1  UNL1       -0.2259
     34 H           6.9870    3.3738    1.0933 H       1  UNL1        0.2095
     35 H           8.6056    1.9932    0.7957 H       1  UNL1        0.0588
     36 H           7.8914    1.5297   -0.8230 H       1  UNL1        0.0588
     37 H           6.8780    0.5656    1.8962 H       1  UNL1        0.0714
     38 H           7.5748   -1.4519    0.9838 H       1  UNL1        0.2105
     39 H           4.6826   -1.3674   -1.6633 H       1  UNL1        0.0468
     40 H           3.4818   -0.0636   -2.1499 H       1  UNL1        0.0468
     41 H           3.3955   -1.5111    0.4932 H       1  UNL1        0.0328
     42 H           2.5279   -2.1089   -1.0411 H       1  UNL1        0.0328
     43 H           1.8383    1.9087    0.1277 H       1  UNL1        0.0590
     44 H           4.1135    2.1086    0.6687 H       1  UNL1        0.0508
     45 H           3.8305    2.1117   -1.1719 H       1  UNL1        0.0508
     46 H          -1.6938   -3.1091    0.1732 H       1  UNL1        0.0665
     47 H          -2.6263    0.9412    0.3435 H       1  UNL1        0.0665
     48 H          -4.3605   -0.6088   -1.3590 H       1  UNL1        0.0507
     49 H          -4.0094   -2.3891   -1.4356 H       1  UNL1        0.0507
     50 H          -6.0186   -2.9734   -0.4588 H       1  UNL1        0.0785
     51 H          -6.6619   -1.4421   -2.2284 H       1  UNL1        0.0735
     52 H          -7.8559   -1.2159   -0.8517 H       1  UNL1        0.0735
     53 H          -5.8926    3.9894    1.4215 H       1  UNL1        0.1058
     54 H          -5.7819    2.9632   -1.0215 H       1  UNL1        0.0703
@<TRIPOS>BOND
     1     1     2    1
     2     2     3    1
     3     3     4    1
     4     3     5    1
     5     5     6    2
     6     5     7   am
     7     7     8    1
     8     8     9    1
     9     9    10    1
    10    10    11    2
    11    11    12    1
    12    10    13    1
    13    13    14   ar
    14    14    15    1
    15    14    16   ar
    16    16    17   ar
    17    17    18   ar
    18    18    19   ar
    19    19    20    1
    20    17    21    1
    21    21    22    1
    22    22    23    1
    23    23    24    1
    24    24    25    1
    25    25    26    1
    26    26    27   ar
    27    27    28   ar
    28    28    29   ar
    29    29    30   ar
    30    23    31    1
    31    31    32    1
    32    32    33    2
    33    12     7    1
    34    19    13   ar
    35    32    21   am
    36    30    26   ar
    37     1    34    1
    38     2    35    1
    39     2    36    1
    40     3    37    1
    41     4    38    1
    42     8    39    1
    43     8    40    1
    44     9    41    1
    45     9    42    1
    46    11    43    1
    47    12    44    1
    48    12    45    1
    49    16    46    1
    50    18    47    1
    51    22    48    1
    52    22    49    1
    53    23    50    1
    54    24    51    1
    55    24    52    1
    56    29    53    1
    57    30    54    1
