
     RDKit          3D

 44 45  0  0  0  0  0  0  0  0999 V2000
    6.4004    1.2614    0.0613 C   0  0  0  0  0  0  0  0  0  0  0  0
    4.9047    1.1381   -0.0098 C   0  0  0  0  0  0  0  0  0  0  0  0
    4.3900   -0.5446   -0.2428 S   0  0  0  0  0  6  0  0  0  0  0  0
    4.9818   -1.0702   -1.5379 O   0  0  0  0  0  0  0  0  0  0  0  0
    4.8272   -1.3573    0.9340 O   0  0  0  0  0  0  0  0  0  0  0  0
    2.6434   -0.5991   -0.3144 C   0  0  0  0  0  0  0  0  0  0  0  0
    2.0100   -0.4694   -1.5304 C   0  0  0  0  0  0  0  0  0  0  0  0
    0.6238   -0.5220   -1.5138 C   0  0  0  0  0  0  0  0  0  0  0  0
   -0.0900   -0.6941   -0.3507 C   0  0  0  0  0  0  0  0  0  0  0  0
   -1.5392   -0.7378   -0.4224 C   0  0  0  0  0  0  0  0  0  0  0  0
   -2.1631   -1.9594   -0.6063 C   0  0  0  0  0  0  0  0  0  0  0  0
   -3.5352   -2.0148   -0.6759 C   0  0  0  0  0  0  0  0  0  0  0  0
   -4.1899   -3.3111   -0.8706 C   0  0  0  0  0  0  0  0  0  0  0  0
   -5.2248   -3.4013    0.0520 F   0  0  0  0  0  0  0  0  0  0  0  0
   -4.6386   -3.5256   -2.1514 F   0  0  0  0  0  0  0  0  0  0  0  0
   -3.3222   -4.3597   -0.5736 F   0  0  0  0  0  0  0  0  0  0  0  0
   -4.2767   -0.8614   -0.5631 C   0  0  0  0  0  0  0  0  0  0  0  0
   -3.6225    0.3643   -0.3775 C   0  0  0  0  0  0  0  0  0  0  0  0
   -2.2491    0.4472   -0.3039 C   0  0  0  0  0  0  0  0  0  0  0  0
   -1.5368    1.5903   -0.1270 O   0  0  0  0  0  0  0  0  0  0  0  0
   -1.9477    2.8978    0.0288 C   0  0  0  0  0  0  0  0  0  0  0  0
   -2.7741    3.0449    1.2393 C   0  0  0  0  0  0  0  0  0  0  0  0
   -2.9839    2.0623    1.9929 O   0  0  0  0  0  0  0  0  0  0  0  0
   -3.3618    4.2528    1.6175 O   0  0  0  0  0  0  0  0  0  0  0  0
    0.5525   -0.8223    0.8568 C   0  0  0  0  0  0  0  0  0  0  0  0
   -0.2166   -1.0082    2.1138 C   0  0  0  0  0  0  0  0  0  0  0  0
    1.9362   -0.7716    0.8540 C   0  0  0  0  0  0  0  0  0  0  0  0
    6.6550    1.7398    1.0331 H   0  0  0  0  0  0  0  0  0  0  0  0
    6.9168    0.2775    0.0660 H   0  0  0  0  0  0  0  0  0  0  0  0
    6.8041    1.9018   -0.7594 H   0  0  0  0  0  0  0  0  0  0  0  0
    4.4781    1.7309   -0.8384 H   0  0  0  0  0  0  0  0  0  0  0  0
    4.4005    1.4876    0.9339 H   0  0  0  0  0  0  0  0  0  0  0  0
    2.6051   -0.3364   -2.4170 H   0  0  0  0  0  0  0  0  0  0  0  0
    0.1297   -0.4195   -2.4728 H   0  0  0  0  0  0  0  0  0  0  0  0
   -1.5767   -2.8629   -0.6946 H   0  0  0  0  0  0  0  0  0  0  0  0
   -5.3488   -0.9147   -0.6188 H   0  0  0  0  0  0  0  0  0  0  0  0
   -4.1889    1.2805   -0.2949 H   0  0  0  0  0  0  0  0  0  0  0  0
   -1.0194    3.5212    0.1970 H   0  0  0  0  0  0  0  0  0  0  0  0
   -2.4329    3.3416   -0.8662 H   0  0  0  0  0  0  0  0  0  0  0  0
   -4.1787    4.3153    2.2042 H   0  0  0  0  0  0  0  0  0  0  0  0
   -0.4183   -2.1020    2.2504 H   0  0  0  0  0  0  0  0  0  0  0  0
   -1.1780   -0.4372    2.1047 H   0  0  0  0  0  0  0  0  0  0  0  0
    0.3342   -0.6771    2.9978 H   0  0  0  0  0  0  0  0  0  0  0  0
    2.4203   -0.8754    1.8203 H   0  0  0  0  0  0  0  0  0  0  0  0
  1  2  1  0
  2  3  1  0
  3  4  2  0
  3  5  2  0
  3  6  1  0
  6  7  2  0
  7  8  1  0
  8  9  2  0
  9 10  1  0
 10 11  2  0
 11 12  1  0
 12 13  1  0
 13 14  1  0
 13 15  1  0
 13 16  1  0
 12 17  2  0
 17 18  1  0
 18 19  2  0
 19 20  1  0
 20 21  1  0
 21 22  1  0
 22 23  2  0
 22 24  1  0
  9 25  1  0
 25 26  1  0
 25 27  2  0
 27  6  1  0
 19 10  1  0
  1 28  1  0
  1 29  1  0
  1 30  1  0
  2 31  1  0
  2 32  1  0
  7 33  1  0
  8 34  1  0
 11 35  1  0
 17 36  1  0
 18 37  1  0
 21 38  1  0
 21 39  1  0
 24 40  1  0
 26 41  1  0
 26 42  1  0
 26 43  1  0
 27 44  1  0
M  END
$$$$
