@<TRIPOS>MOLECULE
*****
 44 45 0 0 0
SMALL
GASTEIGER

@<TRIPOS>ATOM
      1 C           6.4004    1.2614    0.0613 C.3     1  UNL1       -0.0453
      2 C           4.9047    1.1381   -0.0098 C.3     1  UNL1        0.0681
      3 S           4.3900   -0.5446   -0.2428 S.O2    1  UNL1       -0.0033
      4 O           4.9818   -1.0702   -1.5379 O.2     1  UNL1       -0.1694
      5 O           4.8272   -1.3573    0.9340 O.2     1  UNL1       -0.1694
      6 C           2.6434   -0.5991   -0.3144 C.ar    1  UNL1        0.0884
      7 C           2.0100   -0.4694   -1.5304 C.ar    1  UNL1       -0.0363
      8 C           0.6238   -0.5220   -1.5138 C.ar    1  UNL1       -0.0519
      9 C          -0.0900   -0.6941   -0.3507 C.ar    1  UNL1       -0.0114
     10 C          -1.5392   -0.7378   -0.4224 C.ar    1  UNL1        0.0246
     11 C          -2.1631   -1.9594   -0.6063 C.ar    1  UNL1       -0.0389
     12 C          -3.5352   -2.0148   -0.6759 C.ar    1  UNL1        0.0556
     13 C          -4.1899   -3.3111   -0.8706 C.3     1  UNL1        0.4174
     14 F          -5.2248   -3.4013    0.0520 F       1  UNL1       -0.1659
     15 F          -4.6386   -3.5256   -2.1514 F       1  UNL1       -0.1659
     16 F          -3.3222   -4.3597   -0.5736 F       1  UNL1       -0.1659
     17 C          -4.2767   -0.8614   -0.5631 C.ar    1  UNL1       -0.0466
     18 C          -3.6225    0.3643   -0.3775 C.ar    1  UNL1       -0.0188
     19 C          -2.2491    0.4472   -0.3039 C.ar    1  UNL1        0.1290
     20 O          -1.5368    1.5903   -0.1270 O.3     1  UNL1       -0.4802
     21 C          -1.9477    2.8978    0.0288 C.3     1  UNL1        0.1857
     22 C          -2.7741    3.0449    1.2393 C.2     1  UNL1        0.3427
     23 O          -2.9839    2.0623    1.9929 O.2     1  UNL1       -0.2472
     24 O          -3.3618    4.2528    1.6175 O.3     1  UNL1       -0.4783
     25 C           0.5525   -0.8223    0.8568 C.ar    1  UNL1       -0.0408
     26 C          -0.2166   -1.0082    2.1138 C.3     1  UNL1       -0.0391
     27 C           1.9362   -0.7716    0.8540 C.ar    1  UNL1       -0.0334
     28 H           6.6550    1.7398    1.0331 H       1  UNL1        0.0245
     29 H           6.9168    0.2775    0.0660 H       1  UNL1        0.0245
     30 H           6.8041    1.9018   -0.7594 H       1  UNL1        0.0245
     31 H           4.4781    1.7309   -0.8384 H       1  UNL1        0.0501
     32 H           4.4005    1.4876    0.9339 H       1  UNL1        0.0501
     33 H           2.6051   -0.3364   -2.4170 H       1  UNL1        0.0637
     34 H           0.1297   -0.4195   -2.4728 H       1  UNL1        0.0624
     35 H          -1.5767   -2.8629   -0.6946 H       1  UNL1        0.0630
     36 H          -5.3488   -0.9147   -0.6188 H       1  UNL1        0.0624
     37 H          -4.1889    1.2805   -0.2949 H       1  UNL1        0.0654
     38 H          -1.0194    3.5212    0.1970 H       1  UNL1        0.0815
     39 H          -2.4329    3.3416   -0.8662 H       1  UNL1        0.0815
     40 H          -4.1787    4.3153    2.2042 H       1  UNL1        0.2952
     41 H          -0.4183   -2.1020    2.2504 H       1  UNL1        0.0278
     42 H          -1.1780   -0.4372    2.1047 H       1  UNL1        0.0278
     43 H           0.3342   -0.6771    2.9978 H       1  UNL1        0.0278
     44 H           2.4203   -0.8754    1.8203 H       1  UNL1        0.0639
@<TRIPOS>BOND
     1     1     2    1
     2     2     3    1
     3     3     4    2
     4     3     5    2
     5     3     6    1
     6     6     7   ar
     7     7     8   ar
     8     8     9   ar
     9     9    10    1
    10    10    11   ar
    11    11    12   ar
    12    12    13    1
    13    13    14    1
    14    13    15    1
    15    13    16    1
    16    12    17   ar
    17    17    18   ar
    18    18    19   ar
    19    19    20    1
    20    20    21    1
    21    21    22    1
    22    22    23    2
    23    22    24    1
    24     9    25   ar
    25    25    26    1
    26    25    27   ar
    27    27     6   ar
    28    19    10   ar
    29     1    28    1
    30     1    29    1
    31     1    30    1
    32     2    31    1
    33     2    32    1
    34     7    33    1
    35     8    34    1
    36    11    35    1
    37    17    36    1
    38    18    37    1
    39    21    38    1
    40    21    39    1
    41    24    40    1
    42    26    41    1
    43    26    42    1
    44    26    43    1
    45    27    44    1
