@<TRIPOS>MOLECULE
*****
 42 44 0 0 0
SMALL
GASTEIGER

@<TRIPOS>ATOM
      1 C           5.2563   -0.8149    3.7264 C.3     1  UNL1       -0.0570
      2 C           4.4811    0.2354    3.0082 C.3     1  UNL1        0.0211
      3 C           3.1365   -0.1915    2.5931 C.2     1  UNL1        0.2132
      4 O           2.7533   -1.3516    2.8773 O.2     1  UNL1       -0.2758
      5 N           2.2583    0.6664    1.8811 N.am    1  UNL1       -0.3084
      6 C           0.9333    0.2460    1.4718 C.3     1  UNL1        0.0501
      7 C          -0.1446    1.1038    2.0464 C.3     1  UNL1       -0.0300
      8 C          -1.4509    1.0704    1.3347 C.3     1  UNL1       -0.0470
      9 C          -1.5096   -0.1833    0.4483 C.3     1  UNL1       -0.0266
     10 C          -0.4226   -0.0197   -0.5306 C.ar    1  UNL1       -0.0318
     11 C          -0.6108   -0.0820   -1.8685 C.ar    1  UNL1        0.0037
     12 C          -1.9366   -0.2628   -2.4864 C.ar    1  UNL1       -0.0161
     13 C          -2.1587   -1.2546   -3.4157 C.ar    1  UNL1       -0.0528
     14 C          -3.4115   -1.4129   -4.0171 C.ar    1  UNL1       -0.0438
     15 C          -4.4626   -0.5819   -3.6990 C.ar    1  UNL1        0.0518
     16 C          -5.7593   -0.7441   -4.3230 C.1     1  UNL1        0.0992
     17 N          -6.8013   -0.8552   -4.8188 N.1     1  UNL1       -0.1909
     18 C          -4.2353    0.4083   -2.7690 C.ar    1  UNL1       -0.0438
     19 C          -2.9942    0.5626   -2.1755 C.ar    1  UNL1       -0.0528
     20 C           0.4941    0.0658   -2.6921 C.ar    1  UNL1        0.0355
     21 N           1.7124    0.2659   -2.1889 N.ar    1  UNL1       -0.2623
     22 C           1.9076    0.3305   -0.8553 C.ar    1  UNL1        0.0328
     23 C           0.8394    0.1878   -0.0186 C.ar    1  UNL1       -0.0054
     24 H           5.6968   -0.3743    4.6399 H       1  UNL1        0.0234
     25 H           4.6619   -1.6888    4.0562 H       1  UNL1        0.0234
     26 H           6.1146   -1.1781    3.0959 H       1  UNL1        0.0234
     27 H           5.0418    0.5227    2.0884 H       1  UNL1        0.0356
     28 H           4.4096    1.1491    3.6260 H       1  UNL1        0.0356
     29 H           2.6191    1.6272    1.6647 H       1  UNL1        0.1493
     30 H           0.7880   -0.8014    1.8230 H       1  UNL1        0.0549
     31 H          -0.2817    0.7940    3.1147 H       1  UNL1        0.0286
     32 H           0.2062    2.1753    2.0658 H       1  UNL1        0.0286
     33 H          -2.3126    1.0330    2.0464 H       1  UNL1        0.0269
     34 H          -1.5279    1.9333    0.6571 H       1  UNL1        0.0269
     35 H          -2.4945   -0.3970    0.0557 H       1  UNL1        0.0313
     36 H          -1.1457   -0.9986    1.1497 H       1  UNL1        0.0313
     37 H          -1.3408   -1.9185   -3.6773 H       1  UNL1        0.0624
     38 H          -3.5925   -2.2018   -4.7590 H       1  UNL1        0.0631
     39 H          -5.0841    1.0572   -2.5327 H       1  UNL1        0.0631
     40 H          -2.8574    1.3716   -1.4470 H       1  UNL1        0.0624
     41 H           0.3268    0.0122   -3.7542 H       1  UNL1        0.0836
     42 H           2.8983    0.4948   -0.4276 H       1  UNL1        0.0833
@<TRIPOS>BOND
     1     1     2    1
     2     2     3    1
     3     3     4    2
     4     3     5   am
     5     5     6    1
     6     6     7    1
     7     7     8    1
     8     8     9    1
     9     9    10    1
    10    10    11   ar
    11    11    12    1
    12    12    13   ar
    13    13    14   ar
    14    14    15   ar
    15    15    16    1
    16    16    17    3
    17    15    18   ar
    18    18    19   ar
    19    11    20   ar
    20    20    21   ar
    21    21    22   ar
    22    22    23   ar
    23    23     6    1
    24    23    10   ar
    25    19    12   ar
    26     1    24    1
    27     1    25    1
    28     1    26    1
    29     2    27    1
    30     2    28    1
    31     5    29    1
    32     6    30    1
    33     7    31    1
    34     7    32    1
    35     8    33    1
    36     8    34    1
    37     9    35    1
    38     9    36    1
    39    13    37    1
    40    14    38    1
    41    18    39    1
    42    19    40    1
    43    20    41    1
    44    22    42    1
