@<TRIPOS>MOLECULE
*****
 46 49 0 0 0
SMALL
GASTEIGER

@<TRIPOS>ATOM
      1 O          -4.6404   -3.4362   -0.4605 O.2     1  UNL1       -0.4950
      2 C          -4.6461   -2.1421    0.0639 C.2     1  UNL1        0.1955
      3 N          -5.6957   -1.3904    0.2629 N.2     1  UNL1       -0.2167
      4 C          -5.2483   -0.1396    0.8157 C.ar    1  UNL1        0.0713
      5 C          -6.0298    0.9389    1.1750 C.ar    1  UNL1       -0.0359
      6 C          -5.4193    2.0531    1.6897 C.ar    1  UNL1       -0.0597
      7 C          -4.0383    2.0783    1.8397 C.ar    1  UNL1       -0.0614
      8 C          -3.3162    0.9603    1.4583 C.ar    1  UNL1       -0.0558
      9 C          -3.8548   -0.1821    0.9394 C.ar    1  UNL1       -0.0096
     10 C          -3.3438   -1.4912    0.4592 C.3     1  UNL1        0.0659
     11 C          -2.5319   -1.4215   -0.7830 C.3     1  UNL1       -0.0123
     12 C          -1.2061   -0.8279   -0.6852 C.ar    1  UNL1       -0.0462
     13 C          -0.1862   -1.7385   -0.3844 C.ar    1  UNL1       -0.0568
     14 C           1.1272   -1.3557   -0.2546 C.ar    1  UNL1       -0.0404
     15 C           1.5054   -0.0390   -0.4170 C.ar    1  UNL1        0.0298
     16 C           0.5059    0.8641   -0.7136 C.ar    1  UNL1       -0.0404
     17 C          -0.8135    0.4869   -0.8452 C.ar    1  UNL1       -0.0568
     18 N           2.8270    0.4684   -0.3061 N.pl3   1  UNL1       -0.3269
     19 C           3.2601    1.8257   -0.4797 C.3     1  UNL1        0.0280
     20 C           4.6462    1.9295   -1.0853 C.3     1  UNL1        0.0302
     21 N           5.6167    1.0794   -0.4577 N.am    1  UNL1       -0.3010
     22 C           5.1041    0.1275    0.4781 C.3     1  UNL1        0.0302
     23 C           3.8299   -0.5423    0.0248 C.3     1  UNL1        0.0280
     24 C           6.9295    1.3699   -0.9118 C.2     1  UNL1        0.2026
     25 O           6.7460    2.3180   -1.7427 O.2     1  UNL1       -0.2793
     26 H          -5.5468   -3.9031   -0.5639 H       1  UNL1        0.2934
     27 H          -7.0984    0.9212    1.0597 H       1  UNL1        0.0639
     28 H          -6.0153    2.9053    1.9757 H       1  UNL1        0.0618
     29 H          -3.5808    2.9665    2.2470 H       1  UNL1        0.0618
     30 H          -2.2626    1.0439    1.5996 H       1  UNL1        0.0621
     31 H          -2.9429   -2.1184    1.2573 H       1  UNL1        0.0448
     32 H          -3.1160   -0.7771   -1.5049 H       1  UNL1        0.0324
     33 H          -2.5097   -2.4139   -1.2744 H       1  UNL1        0.0324
     34 H          -0.3643   -2.7959   -0.2354 H       1  UNL1        0.0621
     35 H           1.9104   -2.0640   -0.0223 H       1  UNL1        0.0636
     36 H           0.6152    1.9275   -0.8735 H       1  UNL1        0.0636
     37 H          -1.6451    1.1484   -1.0771 H       1  UNL1        0.0621
     38 H           2.5795    2.3832   -1.1558 H       1  UNL1        0.0479
     39 H           3.2479    2.3173    0.5085 H       1  UNL1        0.0479
     40 H           4.5706    1.6638   -2.1624 H       1  UNL1        0.0480
     41 H           4.9709    2.9840   -0.9547 H       1  UNL1        0.0480
     42 H           4.9189    0.5927    1.4591 H       1  UNL1        0.0480
     43 H           5.8499   -0.6945    0.6032 H       1  UNL1        0.0480
     44 H           3.9639   -1.1937   -0.8483 H       1  UNL1        0.0479
     45 H           3.4874   -1.1548    0.8937 H       1  UNL1        0.0479
     46 H           7.8395    0.8909   -0.6110 H       1  UNL1        0.1253
@<TRIPOS>BOND
     1     1     2    1
     2     2     3    2
     3     3     4    1
     4     4     5   ar
     5     5     6   ar
     6     6     7   ar
     7     7     8   ar
     8     8     9   ar
     9     9    10    1
    10    10    11    1
    11    11    12    1
    12    12    13   ar
    13    13    14   ar
    14    14    15   ar
    15    15    16   ar
    16    16    17   ar
    17    15    18    1
    18    18    19    1
    19    19    20    1
    20    20    21    1
    21    21    22    1
    22    22    23    1
    23    21    24   am
    24    24    25    2
    25    10     2    1
    26    17    12   ar
    27    23    18    1
    28     9     4   ar
    29     1    26    1
    30     5    27    1
    31     6    28    1
    32     7    29    1
    33     8    30    1
    34    10    31    1
    35    11    32    1
    36    11    33    1
    37    13    34    1
    38    14    35    1
    39    16    36    1
    40    17    37    1
    41    19    38    1
    42    19    39    1
    43    20    40    1
    44    20    41    1
    45    22    42    1
    46    22    43    1
    47    23    44    1
    48    23    45    1
    49    24    46    1
