
     RDKit          3D

 50 52  0  0  0  0  0  0  0  0999 V2000
   -1.4261    3.1871   -2.4899 C   0  0  0  0  0  0  0  0  0  0  0  0
   -0.8850    2.4502   -1.5363 C   0  0  0  0  0  0  0  0  0  0  0  0
    0.5412    2.7814   -1.2400 C   0  0  0  0  0  0  0  0  0  0  0  0
   -1.6887    1.4984   -0.8238 C   0  0  0  0  0  0  0  0  0  0  0  0
   -3.0952    1.5745   -0.9581 C   0  0  0  0  0  0  0  0  0  0  0  0
   -3.9098    0.7428   -0.3083 N   0  0  0  0  0  0  0  0  0  0  0  0
   -3.4285   -0.2086    0.5072 C   0  0  0  0  0  0  0  0  0  0  0  0
   -4.3181   -1.1146    1.2181 C   0  0  0  0  0  0  0  0  0  0  0  0
   -3.8500   -2.0884    2.0513 C   0  0  0  0  0  0  0  0  0  0  0  0
   -4.7177   -2.9503    2.7267 C   0  0  0  0  0  0  0  0  0  0  0  0
   -4.0453   -4.1652    3.7705 Cl  0  0  0  0  0  0  0  0  0  0  0  0
   -6.0741   -2.8071    2.5417 C   0  0  0  0  0  0  0  0  0  0  0  0
   -6.5471   -1.8290    1.7046 C   0  0  0  0  0  0  0  0  0  0  0  0
   -5.6968   -0.9751    1.0350 C   0  0  0  0  0  0  0  0  0  0  0  0
   -6.1972   -0.0158    0.2123 F   0  0  0  0  0  0  0  0  0  0  0  0
   -2.0654   -0.3052    0.6539 C   0  0  0  0  0  0  0  0  0  0  0  0
   -1.1734    0.5473   -0.0127 C   0  0  0  0  0  0  0  0  0  0  0  0
    0.2191    0.3693    0.1822 N   0  0  0  0  0  0  0  0  0  0  0  0
    0.9838   -0.1162   -0.9054 C   0  0  0  0  0  0  0  0  0  0  0  0
    0.3234   -0.4626   -2.0963 C   0  0  0  0  0  0  0  0  0  0  0  0
    0.9969   -0.9296   -3.1880 C   0  0  0  0  0  0  0  0  0  0  0  0
    2.3137   -1.0630   -3.1291 N   0  0  0  0  0  0  0  0  0  0  0  0
    2.9639   -0.7388   -2.0031 C   0  0  0  0  0  0  0  0  0  0  0  0
    2.3366   -0.2535   -0.8458 C   0  0  0  0  0  0  0  0  0  0  0  0
    3.0952    0.0859    0.3228 C   0  0  0  0  0  0  0  0  0  0  0  0
    2.6628    0.5632    1.4020 O   0  0  0  0  0  0  0  0  0  0  0  0
    4.5265   -0.1188    0.3300 N   0  0  0  0  0  0  0  0  0  0  0  0
    5.3100    0.2214    1.5083 C   0  0  0  0  0  0  0  0  0  0  0  0
    6.7625   -0.0926    1.2396 C   0  0  0  0  0  0  0  0  0  0  0  0
    6.9426   -1.4564    0.9521 O   0  0  0  0  0  0  0  0  0  0  0  0
   -2.4249    3.0605   -2.8023 H   0  0  0  0  0  0  0  0  0  0  0  0
   -0.8489    3.9498   -2.9808 H   0  0  0  0  0  0  0  0  0  0  0  0
    0.5705    3.9305   -1.3057 H   0  0  0  0  0  0  0  0  0  0  0  0
    0.8744    2.5811   -0.2337 H   0  0  0  0  0  0  0  0  0  0  0  0
    1.2546    2.4387   -1.9867 H   0  0  0  0  0  0  0  0  0  0  0  0
   -3.5814    2.3084   -1.5782 H   0  0  0  0  0  0  0  0  0  0  0  0
   -2.8071   -2.2450    2.2323 H   0  0  0  0  0  0  0  0  0  0  0  0
   -6.7752   -3.4473    3.0406 H   0  0  0  0  0  0  0  0  0  0  0  0
   -7.6338   -1.7240    1.5645 H   0  0  0  0  0  0  0  0  0  0  0  0
   -1.5824   -1.0412    1.2903 H   0  0  0  0  0  0  0  0  0  0  0  0
    0.6543    0.5845    1.0962 H   0  0  0  0  0  0  0  0  0  0  0  0
   -0.7707   -0.3543   -2.1274 H   0  0  0  0  0  0  0  0  0  0  0  0
    0.4315   -1.1788   -4.0751 H   0  0  0  0  0  0  0  0  0  0  0  0
    4.0522   -0.8468   -1.9526 H   0  0  0  0  0  0  0  0  0  0  0  0
    5.0520   -0.5014   -0.4610 H   0  0  0  0  0  0  0  0  0  0  0  0
    5.2513    1.3437    1.5851 H   0  0  0  0  0  0  0  0  0  0  0  0
    4.9382   -0.2214    2.4297 H   0  0  0  0  0  0  0  0  0  0  0  0
    7.3934    0.1423    2.1198 H   0  0  0  0  0  0  0  0  0  0  0  0
    7.1697    0.4988    0.3980 H   0  0  0  0  0  0  0  0  0  0  0  0
    7.9225   -1.6087    0.9255 H   0  0  0  0  0  0  0  0  0  0  0  0
  1  2  2  3
  2  3  1  0
  2  4  1  0
  4  5  2  0
  5  6  1  0
  6  7  2  0
  7  8  1  0
  8  9  2  0
  9 10  1  0
 10 11  1  0
 10 12  2  0
 12 13  1  0
 13 14  2  0
 14 15  1  0
  7 16  1  0
 16 17  2  0
 17 18  1  0
 18 19  1  0
 19 20  2  0
 20 21  1  0
 21 22  2  0
 22 23  1  0
 23 24  2  0
 24 25  1  0
 25 26  2  0
 25 27  1  0
 27 28  1  0
 28 29  1  0
 29 30  1  0
 17  4  1  0
 24 19  1  0
 14  8  1  0
  1 31  1  0
  1 32  1  0
  3 33  1  0
  3 34  1  0
  3 35  1  0
  5 36  1  0
  9 37  1  0
 12 38  1  0
 13 39  1  0
 16 40  1  0
 18 41  1  0
 20 42  1  0
 21 43  1  0
 23 44  1  0
 27 45  1  0
 28 46  1  0
 28 47  1  0
 29 48  1  0
 29 49  1  0
 30 50  1  0
M  END
$$$$
