@<TRIPOS>MOLECULE
*****
 50 52 0 0 0
SMALL
GASTEIGER

@<TRIPOS>ATOM
      1 C          -1.4261    3.1871   -2.4899 C.2     1  UNL1       -0.0951
      2 C          -0.8850    2.4502   -1.5363 C.2     1  UNL1       -0.0472
      3 C           0.5412    2.7814   -1.2400 C.3     1  UNL1       -0.0396
      4 C          -1.6887    1.4984   -0.8238 C.ar    1  UNL1        0.0166
      5 C          -3.0952    1.5745   -0.9581 C.ar    1  UNL1        0.0374
      6 N          -3.9098    0.7428   -0.3083 N.ar    1  UNL1       -0.2542
      7 C          -3.4285   -0.2086    0.5072 C.ar    1  UNL1        0.0755
      8 C          -4.3181   -1.1146    1.2181 C.ar    1  UNL1        0.0369
      9 C          -3.8500   -2.0884    2.0513 C.ar    1  UNL1       -0.0314
     10 C          -4.7177   -2.9503    2.7267 C.ar    1  UNL1        0.0418
     11 CL         -4.0453   -4.1652    3.7705 Cl      1  UNL1       -0.0835
     12 C          -6.0741   -2.8071    2.5417 C.ar    1  UNL1       -0.0406
     13 C          -6.5471   -1.8290    1.7046 C.ar    1  UNL1       -0.0244
     14 C          -5.6968   -0.9751    1.0350 C.ar    1  UNL1        0.1326
     15 F          -6.1972   -0.0158    0.2123 F       1  UNL1       -0.2048
     16 C          -2.0654   -0.3052    0.6539 C.ar    1  UNL1       -0.0138
     17 C          -1.1734    0.5473   -0.0127 C.ar    1  UNL1        0.0423
     18 N           0.2191    0.3693    0.1822 N.pl3   1  UNL1       -0.3133
     19 C           0.9838   -0.1162   -0.9054 C.ar    1  UNL1        0.0465
     20 C           0.3234   -0.4626   -2.0963 C.ar    1  UNL1       -0.0217
     21 C           0.9969   -0.9296   -3.1880 C.ar    1  UNL1        0.0293
     22 N           2.3137   -1.0630   -3.1291 N.ar    1  UNL1       -0.2624
     23 C           2.9639   -0.7388   -2.0031 C.ar    1  UNL1        0.0415
     24 C           2.3366   -0.2535   -0.8458 C.ar    1  UNL1        0.0758
     25 C           3.0952    0.0859    0.3228 C.2     1  UNL1        0.2474
     26 O           2.6628    0.5632    1.4020 O.2     1  UNL1       -0.2701
     27 N           4.5265   -0.1188    0.3300 N.am    1  UNL1       -0.3091
     28 C           5.3100    0.2214    1.5083 C.3     1  UNL1        0.0351
     29 C           6.7625   -0.0926    1.2396 C.3     1  UNL1        0.0597
     30 O           6.9426   -1.4564    0.9521 O.3     1  UNL1       -0.3935
     31 H          -2.4249    3.0605   -2.8023 H       1  UNL1        0.0538
     32 H          -0.8489    3.9498   -2.9808 H       1  UNL1        0.0538
     33 H           0.5705    3.9305   -1.3057 H       1  UNL1        0.0278
     34 H           0.8744    2.5811   -0.2337 H       1  UNL1        0.0278
     35 H           1.2546    2.4387   -1.9867 H       1  UNL1        0.0278
     36 H          -3.5814    2.3084   -1.5782 H       1  UNL1        0.0836
     37 H          -2.8071   -2.2450    2.2323 H       1  UNL1        0.0639
     38 H          -6.7752   -3.4473    3.0406 H       1  UNL1        0.0633
     39 H          -7.6338   -1.7240    1.5645 H       1  UNL1        0.0647
     40 H          -1.5824   -1.0412    1.2903 H       1  UNL1        0.0658
     41 H           0.6543    0.5845    1.0962 H       1  UNL1        0.1522
     42 H          -0.7707   -0.3543   -2.1274 H       1  UNL1        0.0651
     43 H           0.4315   -1.1788   -4.0751 H       1  UNL1        0.0830
     44 H           4.0522   -0.8468   -1.9526 H       1  UNL1        0.0838
     45 H           5.0520   -0.5014   -0.4610 H       1  UNL1        0.1491
     46 H           5.2513    1.3437    1.5851 H       1  UNL1        0.0485
     47 H           4.9382   -0.2214    2.4297 H       1  UNL1        0.0485
     48 H           7.3934    0.1423    2.1198 H       1  UNL1        0.0573
     49 H           7.1697    0.4988    0.3980 H       1  UNL1        0.0573
     50 H           7.9225   -1.6087    0.9255 H       1  UNL1        0.2095
@<TRIPOS>BOND
     1     1     2    2
     2     2     3    1
     3     2     4    1
     4     4     5   ar
     5     5     6   ar
     6     6     7   ar
     7     7     8    1
     8     8     9   ar
     9     9    10   ar
    10    10    11    1
    11    10    12   ar
    12    12    13   ar
    13    13    14   ar
    14    14    15    1
    15     7    16   ar
    16    16    17   ar
    17    17    18    1
    18    18    19    1
    19    19    20   ar
    20    20    21   ar
    21    21    22   ar
    22    22    23   ar
    23    23    24   ar
    24    24    25    1
    25    25    26    2
    26    25    27   am
    27    27    28    1
    28    28    29    1
    29    29    30    1
    30    17     4   ar
    31    24    19   ar
    32    14     8   ar
    33     1    31    1
    34     1    32    1
    35     3    33    1
    36     3    34    1
    37     3    35    1
    38     5    36    1
    39     9    37    1
    40    12    38    1
    41    13    39    1
    42    16    40    1
    43    18    41    1
    44    20    42    1
    45    21    43    1
    46    23    44    1
    47    27    45    1
    48    28    46    1
    49    28    47    1
    50    29    48    1
    51    29    49    1
    52    30    50    1
