@<TRIPOS>MOLECULE
*****
 60 64 0 0 0
SMALL
GASTEIGER

@<TRIPOS>ATOM
      1 C          -7.5735   -1.7221   -1.1383 C.3     1  UNL1        0.0365
      2 O          -6.5832   -1.1763   -1.9308 O.3     1  UNL1       -0.3814
      3 C          -6.5200    0.1879   -1.7796 C.3     1  UNL1        0.0645
      4 C          -6.2159    0.5938   -0.3919 C.3     1  UNL1        0.0552
      5 C          -6.1416    2.1085   -0.2299 C.3     1  UNL1       -0.0323
      6 C          -5.2392    2.2407    0.9712 C.3     1  UNL1       -0.0370
      7 C          -4.8720    0.8407    1.3811 C.3     1  UNL1        0.0209
      8 N          -4.9794    0.1029    0.1357 N.3     1  UNL1       -0.1713
      9 S          -3.6460    0.3940   -0.9175 S.O2    1  UNL1        0.0612
     10 O          -3.8640   -0.4398   -2.1488 O.2     1  UNL1       -0.1528
     11 O          -3.5744    1.8258   -1.3584 O.2     1  UNL1       -0.1528
     12 C          -2.1431   -0.1137   -0.1946 C.ar    1  UNL1        0.1063
     13 C          -1.4021    0.7560    0.5659 C.ar    1  UNL1       -0.0335
     14 C          -0.2158    0.3408    1.1312 C.ar    1  UNL1       -0.0377
     15 C           0.2821   -0.9344    0.9714 C.ar    1  UNL1        0.0481
     16 C          -0.4772   -1.7898    0.2052 C.ar    1  UNL1        0.0502
     17 C          -1.6662   -1.3901   -0.3675 C.ar    1  UNL1       -0.0226
     18 C           0.2466   -3.0721    0.1799 C.2     1  UNL1        0.2496
     19 O          -0.1645   -4.0804   -0.4314 O.2     1  UNL1       -0.2817
     20 C           1.4701   -2.9502    0.9619 C.2     1  UNL1        0.2915
     21 O           2.3420   -3.8509    1.1634 O.2     1  UNL1       -0.2661
     22 N           1.4657   -1.6042    1.4440 N.am    1  UNL1       -0.2598
     23 C           2.4961   -1.0357    2.2718 C.3     1  UNL1        0.0452
     24 C           3.5404   -0.4473    1.4124 C.ar    1  UNL1       -0.0295
     25 C           3.4884    0.8631    1.0021 C.ar    1  UNL1       -0.0536
     26 C           4.4948    1.3878    0.1872 C.ar    1  UNL1       -0.0196
     27 C           5.5547    0.5982   -0.2172 C.ar    1  UNL1        0.1206
     28 O           6.5442    1.1367   -1.0261 O.3     1  UNL1       -0.4893
     29 C           7.6131    0.3136   -1.4248 C.3     1  UNL1        0.1178
     30 C           8.5901    1.0612   -2.2966 C.3     1  UNL1        0.1159
     31 C          10.0281    1.0712   -1.8685 C.3     1  UNL1        0.0776
     32 O           9.2256    2.1831   -1.7848 O.3     1  UNL1       -0.3683
     33 C           5.6023   -0.7235    0.1998 C.ar    1  UNL1       -0.0196
     34 C           4.5941   -1.2279    1.0091 C.ar    1  UNL1       -0.0536
     35 H          -8.5945   -1.2997   -1.3711 H       1  UNL1        0.0523
     36 H          -7.4314   -1.6258   -0.0571 H       1  UNL1        0.0523
     37 H          -7.7094   -2.8185   -1.4254 H       1  UNL1        0.0523
     38 H          -7.5668    0.5608   -2.0005 H       1  UNL1        0.0576
     39 H          -5.9028    0.6877   -2.5538 H       1  UNL1        0.0576
     40 H          -7.0333    0.2819    0.2834 H       1  UNL1        0.0502
     41 H          -5.7701    2.5903   -1.1322 H       1  UNL1        0.0282
     42 H          -7.1584    2.5180    0.0044 H       1  UNL1        0.0282
     43 H          -4.3255    2.7916    0.6326 H       1  UNL1        0.0279
     44 H          -5.7495    2.8023    1.7793 H       1  UNL1        0.0279
     45 H          -5.6420    0.4508    2.0645 H       1  UNL1        0.0444
     46 H          -3.8594    0.7699    1.8221 H       1  UNL1        0.0444
     47 H          -1.7487    1.7954    0.7318 H       1  UNL1        0.0638
     48 H           0.3682    1.0312    1.7335 H       1  UNL1        0.0637
     49 H          -2.2221   -2.1187   -0.9654 H       1  UNL1        0.0645
     50 H           2.0558   -0.2889    2.9669 H       1  UNL1        0.0518
     51 H           2.9708   -1.8707    2.8663 H       1  UNL1        0.0518
     52 H           2.6757    1.4981    1.3028 H       1  UNL1        0.0622
     53 H           4.4358    2.4256   -0.1265 H       1  UNL1        0.0654
     54 H           8.1672   -0.0891   -0.5335 H       1  UNL1        0.0723
     55 H           7.2525   -0.5711   -1.9781 H       1  UNL1        0.0723
     56 H           8.3383    1.1390   -3.3749 H       1  UNL1        0.0653
     57 H          10.8172    0.9650   -2.6119 H       1  UNL1        0.0587
     58 H          10.2524    0.5003   -0.9210 H       1  UNL1        0.0587
     59 H           6.4368   -1.3172   -0.1280 H       1  UNL1        0.0654
     60 H           4.6427   -2.2554    1.3258 H       1  UNL1        0.0622
@<TRIPOS>BOND
     1     1     2    1
     2     2     3    1
     3     3     4    1
     4     4     5    1
     5     5     6    1
     6     6     7    1
     7     7     8    1
     8     8     9    1
     9     9    10    2
    10     9    11    2
    11     9    12    1
    12    12    13   ar
    13    13    14   ar
    14    14    15   ar
    15    15    16   ar
    16    16    17   ar
    17    16    18    1
    18    18    19    2
    19    18    20    1
    20    20    21    2
    21    20    22   am
    22    22    23    1
    23    23    24    1
    24    24    25   ar
    25    25    26   ar
    26    26    27   ar
    27    27    28    1
    28    28    29    1
    29    29    30    1
    30    30    31    1
    31    31    32    1
    32    27    33   ar
    33    33    34   ar
    34     8     4    1
    35    17    12   ar
    36    34    24   ar
    37    22    15    1
    38    32    30    1
    39     1    35    1
    40     1    36    1
    41     1    37    1
    42     3    38    1
    43     3    39    1
    44     4    40    1
    45     5    41    1
    46     5    42    1
    47     6    43    1
    48     6    44    1
    49     7    45    1
    50     7    46    1
    51    13    47    1
    52    14    48    1
    53    17    49    1
    54    23    50    1
    55    23    51    1
    56    25    52    1
    57    26    53    1
    58    29    54    1
    59    29    55    1
    60    30    56    1
    61    31    57    1
    62    31    58    1
    63    33    59    1
    64    34    60    1
