
     RDKit          3D

 60 64  0  0  0  0  0  0  0  0999 V2000
   -7.5735   -1.7221   -1.1383 C   0  0  0  0  0  0  0  0  0  0  0  0
   -6.5832   -1.1763   -1.9308 O   0  0  0  0  0  0  0  0  0  0  0  0
   -6.5200    0.1879   -1.7796 C   0  0  0  0  0  0  0  0  0  0  0  0
   -6.2159    0.5938   -0.3919 C   0  0  2  0  0  0  0  0  0  0  0  0
   -6.1416    2.1085   -0.2299 C   0  0  0  0  0  0  0  0  0  0  0  0
   -5.2392    2.2407    0.9712 C   0  0  0  0  0  0  0  0  0  0  0  0
   -4.8720    0.8407    1.3811 C   0  0  0  0  0  0  0  0  0  0  0  0
   -4.9794    0.1029    0.1357 N   0  0  0  0  0  0  0  0  0  0  0  0
   -3.6460    0.3940   -0.9175 S   0  0  0  0  0  6  0  0  0  0  0  0
   -3.8640   -0.4398   -2.1488 O   0  0  0  0  0  0  0  0  0  0  0  0
   -3.5744    1.8258   -1.3584 O   0  0  0  0  0  0  0  0  0  0  0  0
   -2.1431   -0.1137   -0.1946 C   0  0  0  0  0  0  0  0  0  0  0  0
   -1.4021    0.7560    0.5659 C   0  0  0  0  0  0  0  0  0  0  0  0
   -0.2158    0.3408    1.1312 C   0  0  0  0  0  0  0  0  0  0  0  0
    0.2821   -0.9344    0.9714 C   0  0  0  0  0  0  0  0  0  0  0  0
   -0.4772   -1.7898    0.2052 C   0  0  0  0  0  0  0  0  0  0  0  0
   -1.6662   -1.3901   -0.3675 C   0  0  0  0  0  0  0  0  0  0  0  0
    0.2466   -3.0721    0.1799 C   0  0  0  0  0  0  0  0  0  0  0  0
   -0.1645   -4.0804   -0.4314 O   0  0  0  0  0  0  0  0  0  0  0  0
    1.4701   -2.9502    0.9619 C   0  0  0  0  0  0  0  0  0  0  0  0
    2.3420   -3.8509    1.1634 O   0  0  0  0  0  0  0  0  0  0  0  0
    1.4657   -1.6042    1.4440 N   0  0  0  0  0  0  0  0  0  0  0  0
    2.4961   -1.0357    2.2718 C   0  0  0  0  0  0  0  0  0  0  0  0
    3.5404   -0.4473    1.4124 C   0  0  0  0  0  0  0  0  0  0  0  0
    3.4884    0.8631    1.0021 C   0  0  0  0  0  0  0  0  0  0  0  0
    4.4948    1.3878    0.1872 C   0  0  0  0  0  0  0  0  0  0  0  0
    5.5547    0.5982   -0.2172 C   0  0  0  0  0  0  0  0  0  0  0  0
    6.5442    1.1367   -1.0261 O   0  0  0  0  0  0  0  0  0  0  0  0
    7.6131    0.3136   -1.4248 C   0  0  0  0  0  0  0  0  0  0  0  0
    8.5901    1.0612   -2.2966 C   0  0  0  0  0  0  0  0  0  0  0  0
   10.0281    1.0712   -1.8685 C   0  0  0  0  0  0  0  0  0  0  0  0
    9.2256    2.1831   -1.7848 O   0  0  0  0  0  0  0  0  0  0  0  0
    5.6023   -0.7235    0.1998 C   0  0  0  0  0  0  0  0  0  0  0  0
    4.5941   -1.2279    1.0091 C   0  0  0  0  0  0  0  0  0  0  0  0
   -8.5945   -1.2997   -1.3711 H   0  0  0  0  0  0  0  0  0  0  0  0
   -7.4314   -1.6258   -0.0571 H   0  0  0  0  0  0  0  0  0  0  0  0
   -7.7094   -2.8185   -1.4254 H   0  0  0  0  0  0  0  0  0  0  0  0
   -7.5668    0.5608   -2.0005 H   0  0  0  0  0  0  0  0  0  0  0  0
   -5.9028    0.6877   -2.5538 H   0  0  0  0  0  0  0  0  0  0  0  0
   -7.0333    0.2819    0.2834 H   0  0  0  0  0  0  0  0  0  0  0  0
   -5.7701    2.5903   -1.1322 H   0  0  0  0  0  0  0  0  0  0  0  0
   -7.1584    2.5180    0.0044 H   0  0  0  0  0  0  0  0  0  0  0  0
   -4.3255    2.7916    0.6326 H   0  0  0  0  0  0  0  0  0  0  0  0
   -5.7495    2.8023    1.7793 H   0  0  0  0  0  0  0  0  0  0  0  0
   -5.6420    0.4508    2.0645 H   0  0  0  0  0  0  0  0  0  0  0  0
   -3.8594    0.7699    1.8221 H   0  0  0  0  0  0  0  0  0  0  0  0
   -1.7487    1.7954    0.7318 H   0  0  0  0  0  0  0  0  0  0  0  0
    0.3682    1.0312    1.7335 H   0  0  0  0  0  0  0  0  0  0  0  0
   -2.2221   -2.1187   -0.9654 H   0  0  0  0  0  0  0  0  0  0  0  0
    2.0558   -0.2889    2.9669 H   0  0  0  0  0  0  0  0  0  0  0  0
    2.9708   -1.8707    2.8663 H   0  0  0  0  0  0  0  0  0  0  0  0
    2.6757    1.4981    1.3028 H   0  0  0  0  0  0  0  0  0  0  0  0
    4.4358    2.4256   -0.1265 H   0  0  0  0  0  0  0  0  0  0  0  0
    8.1672   -0.0891   -0.5335 H   0  0  0  0  0  0  0  0  0  0  0  0
    7.2525   -0.5711   -1.9781 H   0  0  0  0  0  0  0  0  0  0  0  0
    8.3383    1.1390   -3.3749 H   0  0  0  0  0  0  0  0  0  0  0  0
   10.8172    0.9650   -2.6119 H   0  0  0  0  0  0  0  0  0  0  0  0
   10.2524    0.5003   -0.9210 H   0  0  0  0  0  0  0  0  0  0  0  0
    6.4368   -1.3172   -0.1280 H   0  0  0  0  0  0  0  0  0  0  0  0
    4.6427   -2.2554    1.3258 H   0  0  0  0  0  0  0  0  0  0  0  0
  1  2  1  0
  2  3  1  0
  3  4  1  0
  4  5  1  0
  5  6  1  0
  6  7  1  0
  7  8  1  0
  8  9  1  0
  9 10  2  0
  9 11  2  0
  9 12  1  0
 12 13  2  0
 13 14  1  0
 14 15  2  0
 15 16  1  0
 16 17  2  0
 16 18  1  0
 18 19  2  0
 18 20  1  0
 20 21  2  0
 20 22  1  0
 22 23  1  0
 23 24  1  0
 24 25  2  0
 25 26  1  0
 26 27  2  0
 27 28  1  0
 28 29  1  0
 29 30  1  0
 30 31  1  0
 31 32  1  0
 27 33  1  0
 33 34  2  0
  8  4  1  0
 17 12  1  0
 34 24  1  0
 22 15  1  0
 32 30  1  0
  1 35  1  0
  1 36  1  0
  1 37  1  0
  3 38  1  0
  3 39  1  0
  4 40  1  1
  5 41  1  0
  5 42  1  0
  6 43  1  0
  6 44  1  0
  7 45  1  0
  7 46  1  0
 13 47  1  0
 14 48  1  0
 17 49  1  0
 23 50  1  0
 23 51  1  0
 25 52  1  0
 26 53  1  0
 29 54  1  0
 29 55  1  0
 30 56  1  0
 31 57  1  0
 31 58  1  0
 33 59  1  0
 34 60  1  0
M  END
$$$$
