@<TRIPOS>MOLECULE
*****
 41 44 0 0 0
SMALL
GASTEIGER

@<TRIPOS>ATOM
      1 N           7.6636   -0.5091   -1.0151 N.1     1  UNL1       -0.1908
      2 C           6.5127   -0.4744   -1.2887 C.1     1  UNL1        0.1005
      3 C           5.0781   -0.4378   -1.6552 C.ar    1  UNL1        0.0713
      4 C           4.8392   -0.2058   -3.0201 C.ar    1  UNL1       -0.0044
      5 S           3.0774   -0.2182   -3.1343 S.2     1  UNL1       -0.0799
      6 C           2.7707   -0.5362   -1.3293 C.ar    1  UNL1        0.0838
      7 N           1.4896   -0.6285   -0.8745 N.am    1  UNL1       -0.2781
      8 C           0.7112    0.4979   -0.3843 C.2     1  UNL1        0.2354
      9 O           1.4084    1.5740   -0.4540 O.2     1  UNL1       -0.2737
     10 C          -0.5858    0.4604    0.0970 C.3     1  UNL1        0.0964
     11 N          -1.8455    0.4515    0.5693 N.am    1  UNL1       -0.2623
     12 C          -2.0715    0.2525    2.0077 C.2     1  UNL1        0.2205
     13 O          -1.1130    0.6484    2.7266 O.2     1  UNL1       -0.2752
     14 C          -3.3065   -0.3532    2.5306 C.3     1  UNL1        0.0285
     15 C          -4.5070    0.3310    1.8879 C.3     1  UNL1       -0.0177
     16 C          -4.2866    0.5661    0.4458 C.ar    1  UNL1       -0.0255
     17 C          -5.4526    0.7334   -0.3102 C.ar    1  UNL1       -0.0568
     18 C          -5.4137    0.9410   -1.6776 C.ar    1  UNL1       -0.0614
     19 C          -4.1797    0.9802   -2.2914 C.ar    1  UNL1       -0.0600
     20 C          -3.0335    0.8143   -1.5372 C.ar    1  UNL1       -0.0400
     21 C          -3.0502    0.6066   -0.1711 C.ar    1  UNL1        0.0400
     22 C           4.0137   -0.5934   -0.8693 C.ar    1  UNL1        0.0648
     23 C           4.1177   -0.8466    0.6064 C.ar    1  UNL1        0.1650
     24 N           3.0711   -1.0139    1.4665 N.ar    1  UNL1       -0.1295
     25 N           3.5029   -1.2175    2.6956 N.ar    1  UNL1       -0.1377
     26 C           4.8388   -1.1890    2.6730 C.ar    1  UNL1        0.1175
     27 N           5.1946   -0.9568    1.3618 N.ar    1  UNL1       -0.3276
     28 H           5.5055   -0.0513   -3.8440 H       1  UNL1        0.0707
     29 H           0.9877   -1.5351   -0.8539 H       1  UNL1        0.1554
     30 H          -1.0052   -0.3146   -0.9434 H       1  UNL1        0.0564
     31 H          -0.9147    1.4687   -0.7496 H       1  UNL1        0.0564
     32 H          -3.3618   -0.2159    3.6117 H       1  UNL1        0.0362
     33 H          -3.3680   -1.4369    2.2185 H       1  UNL1        0.0362
     34 H          -5.3567   -0.3968    2.0361 H       1  UNL1        0.0318
     35 H          -4.7017    1.2457    2.4565 H       1  UNL1        0.0318
     36 H          -6.4227    0.7072    0.1439 H       1  UNL1        0.0621
     37 H          -6.2892    1.0739   -2.2911 H       1  UNL1        0.0618
     38 H          -4.1083    1.1402   -3.3585 H       1  UNL1        0.0618
     39 H          -2.1060    0.8467   -2.0631 H       1  UNL1        0.0636
     40 H           5.5062   -1.3179    3.4936 H       1  UNL1        0.1046
     41 H           6.1910   -0.8908    1.0872 H       1  UNL1        0.1683
@<TRIPOS>BOND
     1     1     2    3
     2     2     3    1
     3     3     4   ar
     4     4     5   ar
     5     5     6   ar
     6     6     7    1
     7     7     8   am
     8     8     9    2
     9     8    10    1
    10    10    11    1
    11    11    12   am
    12    12    13    2
    13    12    14    1
    14    14    15    1
    15    15    16    1
    16    16    17   ar
    17    17    18   ar
    18    18    19   ar
    19    19    20   ar
    20    20    21   ar
    21     6    22   ar
    22    22    23    1
    23    23    24   ar
    24    24    25   ar
    25    25    26   ar
    26    26    27   ar
    27    22     3   ar
    28    27    23   ar
    29    21    11    1
    30    21    16   ar
    31     4    28    1
    32     7    29    1
    33    10    30    1
    34    10    31    1
    35    14    32    1
    36    14    33    1
    37    15    34    1
    38    15    35    1
    39    17    36    1
    40    18    37    1
    41    19    38    1
    42    20    39    1
    43    26    40    1
    44    27    41    1
