@<TRIPOS>MOLECULE
*****
 42 44 0 0 0
SMALL
GASTEIGER

@<TRIPOS>ATOM
      1 N           7.8608   -0.6229    1.3327 N.am    1  UNL1       -0.3253
      2 C           6.5482   -0.9127    0.8794 C.2     1  UNL1        0.2431
      3 O           6.1277   -2.0942    0.8303 O.2     1  UNL1       -0.2704
      4 C           5.6764    0.1791    0.4648 C.ar    1  UNL1        0.0580
      5 C           6.0905    1.5000    0.4992 C.ar    1  UNL1        0.0399
      6 N           5.3146    2.5233    0.1257 N.ar    1  UNL1       -0.2589
      7 C           4.0649    2.2768   -0.3086 C.ar    1  UNL1        0.0692
      8 C           3.5580    0.9945   -0.3802 C.ar    1  UNL1        0.1397
      9 O           2.2618    0.7901   -0.8351 O.3     1  UNL1       -0.4858
     10 C           1.7719   -0.5240   -0.8978 C.3     1  UNL1        0.1148
     11 C           0.3803   -0.5585   -1.4026 C.ar    1  UNL1       -0.0087
     12 C           0.1383   -0.6732   -2.7535 C.ar    1  UNL1       -0.0552
     13 C          -1.1530   -0.7063   -3.2344 C.ar    1  UNL1       -0.0596
     14 C          -2.1899   -0.6210   -2.3209 C.ar    1  UNL1       -0.0404
     15 C          -2.0131   -0.5059   -0.9703 C.ar    1  UNL1        0.0340
     16 N          -3.0374   -0.4149    0.0098 N.am    1  UNL1       -0.2815
     17 C          -4.4236   -0.4247   -0.2072 C.2     1  UNL1        0.2483
     18 O          -4.8573   -0.5231   -1.3819 O.2     1  UNL1       -0.2699
     19 C          -5.4362   -0.3271    0.8510 C.ar    1  UNL1        0.0399
     20 C          -6.7812   -0.3448    0.5467 C.ar    1  UNL1       -0.0315
     21 C          -7.7869   -0.2577    1.4844 C.ar    1  UNL1        0.0283
     22 N          -7.4305   -0.1482    2.7800 N.ar    1  UNL1       -0.2632
     23 C          -6.1352   -0.1273    3.1168 C.ar    1  UNL1        0.0283
     24 C          -5.1027   -0.2151    2.1747 C.ar    1  UNL1       -0.0315
     25 C          -0.6710   -0.4775   -0.5399 C.ar    1  UNL1       -0.0341
     26 C           4.3876   -0.0337    0.0133 C.ar    1  UNL1       -0.0048
     27 H           8.6318   -1.2516    1.0220 H       1  UNL1        0.1453
     28 H           8.1207    0.1716    1.9548 H       1  UNL1        0.1453
     29 H           7.1182    1.6474    0.8612 H       1  UNL1        0.0837
     30 H           3.4012    3.0993   -0.6234 H       1  UNL1        0.0867
     31 H           2.4236   -1.1345   -1.5806 H       1  UNL1        0.0748
     32 H           1.7551   -1.0069    0.1075 H       1  UNL1        0.0748
     33 H           0.9697   -0.7402   -3.4697 H       1  UNL1        0.0621
     34 H          -1.3758   -0.7961   -4.2937 H       1  UNL1        0.0618
     35 H          -3.1810   -0.6502   -2.7341 H       1  UNL1        0.0636
     36 H          -2.7577   -0.3279    1.0419 H       1  UNL1        0.1551
     37 H          -7.0556   -0.4328   -0.4933 H       1  UNL1        0.0640
     38 H          -8.8404   -0.2763    1.1906 H       1  UNL1        0.0830
     39 H          -5.8556   -0.0403    4.1468 H       1  UNL1        0.0830
     40 H          -4.0669   -0.1934    2.5015 H       1  UNL1        0.0640
     41 H          -0.4749   -0.3873    0.5221 H       1  UNL1        0.0640
     42 H           4.0241   -1.0443   -0.0300 H       1  UNL1        0.0663
@<TRIPOS>BOND
     1     1     2   am
     2     2     3    2
     3     2     4    1
     4     4     5   ar
     5     5     6   ar
     6     6     7   ar
     7     7     8   ar
     8     8     9    1
     9     9    10    1
    10    10    11    1
    11    11    12   ar
    12    12    13   ar
    13    13    14   ar
    14    14    15   ar
    15    15    16    1
    16    16    17   am
    17    17    18    2
    18    17    19    1
    19    19    20   ar
    20    20    21   ar
    21    21    22   ar
    22    22    23   ar
    23    23    24   ar
    24    15    25   ar
    25     8    26   ar
    26    26     4   ar
    27    25    11   ar
    28    24    19   ar
    29     1    27    1
    30     1    28    1
    31     5    29    1
    32     7    30    1
    33    10    31    1
    34    10    32    1
    35    12    33    1
    36    13    34    1
    37    14    35    1
    38    16    36    1
    39    20    37    1
    40    21    38    1
    41    23    39    1
    42    24    40    1
    43    25    41    1
    44    26    42    1
