@<TRIPOS>MOLECULE
*****
 66 67 0 0 0
SMALL
GASTEIGER

@<TRIPOS>ATOM
      1 C          -0.8654    1.6751   -0.0552 C.3     1  UNL1        0.0245
      2 C          -2.3112    1.3568    0.2449 C.3     1  UNL1        0.1127
      3 C          -3.0171    2.4317    1.0151 C.3     1  UNL1        0.0146
      4 C          -3.0778    3.6371    0.0506 C.3     1  UNL1        0.0773
      5 O          -3.6043    3.1940   -1.1593 O.3     1  UNL1       -0.3876
      6 C          -1.6638    4.1435   -0.1029 C.2     1  UNL1       -0.0522
      7 C          -0.7547    3.1624   -0.1367 C.2     1  UNL1       -0.0423
      8 C           0.6491    3.6361   -0.2693 C.2     1  UNL1       -0.0621
      9 C           1.5995    3.0714    0.5008 C.2     1  UNL1       -0.0806
     10 C           1.1249    1.9991    1.4375 C.3     1  UNL1       -0.0219
     11 C           2.2770    1.3815    2.1545 C.3     1  UNL1       -0.0587
     12 C           0.1261    1.0594    0.8646 C.3     1  UNL1       -0.0247
     13 C           0.6819   -0.2270    0.3180 C.3     1  UNL1       -0.0467
     14 C           1.4031   -0.1624   -0.9674 C.3     1  UNL1       -0.0265
     15 C           1.8741   -1.5245   -1.4028 C.3     1  UNL1        0.0576
     16 O           2.5608   -1.4855   -2.6195 O.3     1  UNL1       -0.3917
     17 C           2.6954   -2.2794   -0.4128 C.3     1  UNL1       -0.0002
     18 C           3.9587   -1.6339    0.0338 C.3     1  UNL1        0.0676
     19 O           4.6326   -2.4506    0.9601 O.3     1  UNL1       -0.3912
     20 C           4.9159   -1.3116   -1.0849 C.3     1  UNL1        0.0708
     21 C           6.1576   -0.6834   -0.5675 C.2     1  UNL1        0.3072
     22 O           7.2593    0.0828   -0.2368 O.3     1  UNL1       -0.4806
     23 O           6.8914   -1.2212    0.3001 O.2     1  UNL1       -0.2509
     24 O          -2.4546    0.0646    0.7313 O.3     1  UNL1       -0.4604
     25 C          -3.0985   -0.9733    0.0924 C.2     1  UNL1        0.3102
     26 O          -3.5681   -0.6384   -1.0185 O.2     1  UNL1       -0.2505
     27 C          -3.2352   -2.3469    0.6348 C.3     1  UNL1        0.0534
     28 C          -3.9991   -2.3865    1.9225 C.3     1  UNL1       -0.0523
     29 C          -3.7866   -3.2318   -0.4252 C.3     1  UNL1       -0.0432
     30 C          -5.1434   -2.7117   -0.8536 C.3     1  UNL1       -0.0645
     31 H          -0.6647    1.2722   -1.0735 H       1  UNL1        0.0388
     32 H          -2.8333    1.3550   -0.7654 H       1  UNL1        0.0741
     33 H          -4.0792    2.1282    1.1042 H       1  UNL1        0.0329
     34 H          -2.5342    2.7266    1.9604 H       1  UNL1        0.0329
     35 H          -3.6807    4.4427    0.5138 H       1  UNL1        0.0639
     36 H          -4.5990    3.1263   -0.9777 H       1  UNL1        0.2102
     37 H          -1.4238    5.1704   -0.1834 H       1  UNL1        0.0600
     38 H           0.9044    4.4363   -0.9607 H       1  UNL1        0.0617
     39 H           2.6407    3.3721    0.4443 H       1  UNL1        0.0575
     40 H           0.5691    2.5827    2.2453 H       1  UNL1        0.0343
     41 H           2.1476    0.3668    2.5164 H       1  UNL1        0.0235
     42 H           2.5759    1.9844    3.0667 H       1  UNL1        0.0235
     43 H           3.1933    1.4351    1.5134 H       1  UNL1        0.0235
     44 H          -0.4991    0.7041    1.7609 H       1  UNL1        0.0313
     45 H          -0.2205   -0.8865    0.1502 H       1  UNL1        0.0269
     46 H           1.2440   -0.7874    1.1091 H       1  UNL1        0.0269
     47 H           0.7944    0.2229   -1.8272 H       1  UNL1        0.0290
     48 H           2.3102    0.4856   -0.9538 H       1  UNL1        0.0290
     49 H           0.9723   -2.1773   -1.6102 H       1  UNL1        0.0594
     50 H           2.0138   -1.0822   -3.3504 H       1  UNL1        0.2098
     51 H           2.9229   -3.3120   -0.7979 H       1  UNL1        0.0315
     52 H           2.0611   -2.4856    0.4941 H       1  UNL1        0.0315
     53 H           3.7022   -0.6990    0.6061 H       1  UNL1        0.0599
     54 H           5.3300   -2.9398    0.4585 H       1  UNL1        0.2098
     55 H           5.1630   -2.2421   -1.6229 H       1  UNL1        0.0403
     56 H           4.4932   -0.5691   -1.8052 H       1  UNL1        0.0403
     57 H           7.4066    0.9713   -0.6631 H       1  UNL1        0.2951
     58 H          -2.1875   -2.7110    0.8461 H       1  UNL1        0.0410
     59 H          -4.4511   -3.3964    2.0181 H       1  UNL1        0.0238
     60 H          -3.2946   -2.2680    2.7560 H       1  UNL1        0.0238
     61 H          -4.8382   -1.6684    1.9582 H       1  UNL1        0.0238
     62 H          -3.1111   -3.1310   -1.3203 H       1  UNL1        0.0270
     63 H          -3.8337   -4.2992   -0.1251 H       1  UNL1        0.0270
     64 H          -5.8383   -3.5800   -0.8683 H       1  UNL1        0.0230
     65 H          -5.4978   -1.9724   -0.1136 H       1  UNL1        0.0230
     66 H          -5.0854   -2.2027   -1.8231 H       1  UNL1        0.0230
@<TRIPOS>BOND
     1     1     2    1
     2     2     3    1
     3     3     4    1
     4     4     5    1
     5     4     6    1
     6     6     7    2
     7     7     8    1
     8     8     9    2
     9     9    10    1
    10    10    11    1
    11    10    12    1
    12    12    13    1
    13    13    14    1
    14    14    15    1
    15    15    16    1
    16    15    17    1
    17    17    18    1
    18    18    19    1
    19    18    20    1
    20    20    21    1
    21    21    22    1
    22    21    23    2
    23     2    24    1
    24    24    25    1
    25    25    26    2
    26    25    27    1
    27    27    28    1
    28    27    29    1
    29    29    30    1
    30     7     1    1
    31    12     1    1
    32     1    31    1
    33     2    32    1
    34     3    33    1
    35     3    34    1
    36     4    35    1
    37     5    36    1
    38     6    37    1
    39     8    38    1
    40     9    39    1
    41    10    40    1
    42    11    41    1
    43    11    42    1
    44    11    43    1
    45    12    44    1
    46    13    45    1
    47    13    46    1
    48    14    47    1
    49    14    48    1
    50    15    49    1
    51    16    50    1
    52    17    51    1
    53    17    52    1
    54    18    53    1
    55    19    54    1
    56    20    55    1
    57    20    56    1
    58    22    57    1
    59    27    58    1
    60    28    59    1
    61    28    60    1
    62    28    61    1
    63    29    62    1
    64    29    63    1
    65    30    64    1
    66    30    65    1
    67    30    66    1
