@<TRIPOS>MOLECULE
*****
 56 60 0 0 0
SMALL
GASTEIGER

@<TRIPOS>ATOM
      1 N           0.8799    1.6048   -1.8505 N.pl3   1  UNL1       -0.3426
      2 C           2.0642    0.8820   -1.4349 C.ar    1  UNL1        0.1250
      3 N           3.1873    1.1255   -2.1117 N.ar    1  UNL1       -0.2394
      4 C           4.3741    0.5812   -1.8633 C.ar    1  UNL1        0.0386
      5 C           4.4203   -0.3089   -0.8086 C.ar    1  UNL1        0.0176
      6 C           5.6537   -0.9575   -0.4497 C.ar    1  UNL1        0.0221
      7 C           5.8982   -2.2721   -0.1447 C.ar    1  UNL1        0.0572
      8 N           7.2037   -2.3788    0.1208 N.ar    1  UNL1       -0.1790
      9 N           7.8288   -1.2377    0.0128 N.ar    1  UNL1       -0.2687
     10 C           9.2196   -0.8838    0.2035 C.3     1  UNL1        0.0646
     11 C           9.4567   -0.4900    1.6329 C.3     1  UNL1        0.0637
     12 O           8.6473    0.6102    1.9392 O.3     1  UNL1       -0.3932
     13 C           6.8928   -0.3291   -0.3416 C.ar    1  UNL1        0.0334
     14 C           3.2560   -0.5897   -0.0732 C.ar    1  UNL1        0.0324
     15 S           2.9719   -1.6096    1.2776 S.2     1  UNL1       -0.0953
     16 C           1.2093   -1.2506    1.4561 C.ar    1  UNL1       -0.0153
     17 C           0.9967   -0.3466    0.4206 C.ar    1  UNL1        0.0002
     18 C          -0.4126    0.1210    0.2492 C.ar    1  UNL1       -0.0166
     19 C          -1.0598   -0.1490   -0.9326 C.ar    1  UNL1       -0.0522
     20 C          -2.3732    0.2650   -1.1777 C.ar    1  UNL1       -0.0399
     21 C          -3.0086    0.9600   -0.1876 C.ar    1  UNL1        0.0348
     22 N          -4.3329    1.4049   -0.3733 N.am    1  UNL1       -0.2692
     23 C          -5.4929    0.6864   -0.0452 C.2     1  UNL1        0.3081
     24 O          -5.3592   -0.4608    0.4617 O.2     1  UNL1       -0.2522
     25 N          -6.8162    1.1985   -0.2606 N.am    1  UNL1       -0.2691
     26 C          -7.9859    0.4865    0.0647 C.ar    1  UNL1        0.0375
     27 C          -8.5584   -0.3383   -0.8672 C.ar    1  UNL1       -0.0403
     28 C          -9.7117   -1.0312   -0.5258 C.ar    1  UNL1       -0.0573
     29 C         -10.2516   -0.8797    0.7241 C.ar    1  UNL1       -0.0263
     30 C          -9.6959   -0.0597    1.6731 C.ar    1  UNL1        0.1252
     31 F         -10.2336    0.0875    2.9097 F       1  UNL1       -0.2054
     32 C          -8.5408    0.6251    1.3100 C.ar    1  UNL1       -0.0052
     33 C          -2.3608    1.2283    0.9921 C.ar    1  UNL1       -0.0399
     34 C          -1.0526    0.8119    1.2265 C.ar    1  UNL1       -0.0522
     35 C           2.0317   -0.0122   -0.3505 C.ar    1  UNL1        0.0370
     36 H           0.4711    1.4363   -2.7852 H       1  UNL1        0.1437
     37 H           0.4132    2.3057   -1.2359 H       1  UNL1        0.1437
     38 H           5.2367    0.8253   -2.4521 H       1  UNL1        0.0837
     39 H           5.1902   -3.0640   -0.1212 H       1  UNL1        0.0854
     40 H           9.4952   -0.0011   -0.4282 H       1  UNL1        0.0531
     41 H           9.8974   -1.7528   -0.0411 H       1  UNL1        0.0531
     42 H          10.5180   -0.1446    1.7459 H       1  UNL1        0.0575
     43 H           9.2693   -1.2928    2.3536 H       1  UNL1        0.0575
     44 H           8.7670    1.2495    1.1933 H       1  UNL1        0.2095
     45 H           7.0403    0.7179   -0.5204 H       1  UNL1        0.0832
     46 H           0.5590   -1.6971    2.2329 H       1  UNL1        0.0700
     47 H          -0.5785   -0.7141   -1.7386 H       1  UNL1        0.0624
     48 H          -2.8678    0.0470   -2.1079 H       1  UNL1        0.0636
     49 H          -4.4587    2.3583   -0.7944 H       1  UNL1        0.1564
     50 H          -6.8813    2.1436   -0.6785 H       1  UNL1        0.1564
     51 H          -8.1640   -0.4891   -1.8723 H       1  UNL1        0.0636
     52 H         -10.1594   -1.6732   -1.2476 H       1  UNL1        0.0619
     53 H         -11.1575   -1.4229    0.9948 H       1  UNL1        0.0646
     54 H          -8.1208    1.2659    2.0755 H       1  UNL1        0.0665
     55 H          -2.8515    1.7797    1.7901 H       1  UNL1        0.0636
     56 H          -0.5637    1.0288    2.1493 H       1  UNL1        0.0624
@<TRIPOS>BOND
     1     1     2    1
     2     2     3   ar
     3     3     4   ar
     4     4     5   ar
     5     5     6    1
     6     6     7   ar
     7     7     8   ar
     8     8     9   ar
     9     9    10    1
    10    10    11    1
    11    11    12    1
    12     9    13   ar
    13     5    14   ar
    14    14    15   ar
    15    15    16   ar
    16    16    17   ar
    17    17    18    1
    18    18    19   ar
    19    19    20   ar
    20    20    21   ar
    21    21    22    1
    22    22    23   am
    23    23    24    2
    24    23    25   am
    25    25    26    1
    26    26    27   ar
    27    27    28   ar
    28    28    29   ar
    29    29    30   ar
    30    30    31    1
    31    30    32   ar
    32    21    33   ar
    33    33    34   ar
    34    17    35   ar
    35    35     2   ar
    36    13     6   ar
    37    35    14   ar
    38    34    18   ar
    39    32    26   ar
    40     1    36    1
    41     1    37    1
    42     4    38    1
    43     7    39    1
    44    10    40    1
    45    10    41    1
    46    11    42    1
    47    11    43    1
    48    12    44    1
    49    13    45    1
    50    16    46    1
    51    19    47    1
    52    20    48    1
    53    22    49    1
    54    25    50    1
    55    27    51    1
    56    28    52    1
    57    29    53    1
    58    32    54    1
    59    33    55    1
    60    34    56    1
