@<TRIPOS>MOLECULE
*****
 63 64 0 0 0
SMALL
GASTEIGER

@<TRIPOS>ATOM
      1 C          -7.0943    0.0624   -1.0638 C.3     1  UNL1        0.0108
      2 C          -6.4382    0.2801    0.2873 C.3     1  UNL1        0.2648
      3 C          -6.0015    1.7459    0.3104 C.3     1  UNL1        0.0108
      4 N          -7.4641    0.1451    1.2932 N.2     1  UNL1       -0.0662
      5 C          -7.4351   -0.6575    2.2749 C.cat   1  UNL1        0.4202
      6 N          -8.5614   -0.6389    3.1704 N.pl3   1  UNL1       -0.2468
      7 N          -6.3319   -1.5126    2.4465 N.2     1  UNL1       -0.0050
      8 C          -5.3284   -1.4928    1.6035 C.2     1  UNL1        0.4149
      9 N          -4.2638   -2.4043    1.8770 N.pl3   1  UNL1       -0.2472
     10 N          -5.3260   -0.6117    0.4982 N.3     1  UNL1       -0.0841
     11 O          -4.3087   -0.5960   -0.3502 O.3     1  UNL1       -0.2129
     12 C          -3.1160   -0.1615    0.2064 C.3     1  UNL1        0.0903
     13 C          -1.9890   -0.1744   -0.8312 C.3     1  UNL1       -0.0227
     14 C          -2.3174    0.7187   -1.9735 C.3     1  UNL1       -0.0164
     15 C          -1.3014    0.7371   -3.0515 C.3     1  UNL1        0.0897
     16 O          -0.0677    1.1085   -2.8412 O.3     1  UNL1       -0.4920
     17 C           1.0825    0.8272   -2.2453 C.ar    1  UNL1        0.1205
     18 C           2.1614    1.7386   -2.3721 C.ar    1  UNL1       -0.0194
     19 C           3.3704    1.5077   -1.7905 C.ar    1  UNL1       -0.0511
     20 C           3.6330    0.3704   -1.0359 C.ar    1  UNL1       -0.0247
     21 C           4.9599    0.1990   -0.4441 C.2     1  UNL1       -0.0510
     22 C           5.3512   -0.8026    0.2807 C.2     1  UNL1       -0.0138
     23 C           6.5708   -1.1416    0.9303 C.2     1  UNL1        0.1861
     24 O           6.4477   -2.3215    1.5564 O.2     1  UNL1       -0.2873
     25 C           7.8517   -0.5402    1.0666 C.ar    1  UNL1        0.0217
     26 C           8.2220    0.6560    0.5654 C.ar    1  UNL1       -0.0509
     27 C           9.5001    1.2070    0.7160 C.ar    1  UNL1       -0.0611
     28 C          10.4420    0.4894    1.4177 C.ar    1  UNL1       -0.0617
     29 C          10.0953   -0.7318    1.9404 C.ar    1  UNL1       -0.0611
     30 C           8.8460   -1.2325    1.7732 C.ar    1  UNL1       -0.0509
     31 C           2.6082   -0.5098   -0.9078 C.ar    1  UNL1       -0.0511
     32 C           1.3622   -0.2922   -1.4959 C.ar    1  UNL1       -0.0194
     33 CL          0.6874    0.0000    0.0000 Cl      2  UNL2       -0.1454
     34 H          -8.0905    0.5066   -1.0237 H       1  UNL1        0.0301
     35 H          -6.4744    0.4886   -1.8944 H       1  UNL1        0.0301
     36 H          -7.1212   -1.0414   -1.2651 H       1  UNL1        0.0301
     37 H          -6.9137    2.3171   -0.0315 H       1  UNL1        0.0301
     38 H          -5.7458    2.0019    1.3596 H       1  UNL1        0.0301
     39 H          -5.2120    1.9612   -0.4125 H       1  UNL1        0.0301
     40 H          -8.5679    0.0555    3.9681 H       1  UNL1        0.2415
     41 H          -9.3687   -1.2689    3.0777 H       1  UNL1        0.2415
     42 H          -3.6499   -2.2587    2.7075 H       1  UNL1        0.2414
     43 H          -4.0945   -3.2229    1.2455 H       1  UNL1        0.2414
     44 H          -3.2552    0.9020    0.4867 H       1  UNL1        0.0599
     45 H          -2.7874   -0.7086    1.0876 H       1  UNL1        0.0599
     46 H          -1.0781    0.2173   -0.2849 H       1  UNL1        0.0290
     47 H          -1.7554   -1.1719   -1.1788 H       1  UNL1        0.0290
     48 H          -2.5379    1.7747   -1.6223 H       1  UNL1        0.0299
     49 H          -3.3291    0.4254   -2.4194 H       1  UNL1        0.0299
     50 H          -1.7176    1.3260   -3.9563 H       1  UNL1        0.0696
     51 H          -1.2753   -0.3640   -3.4575 H       1  UNL1        0.0696
     52 H           1.9409    2.6181   -2.9620 H       1  UNL1        0.0654
     53 H           4.1824    2.2344   -1.9095 H       1  UNL1        0.0625
     54 H           5.6786    0.9730   -0.6311 H       1  UNL1        0.0625
     55 H           4.5229   -1.5625    0.4128 H       1  UNL1        0.0656
     56 H           7.5515    1.2734    0.0170 H       1  UNL1        0.0625
     57 H           9.7262    2.1697    0.2876 H       1  UNL1        0.0618
     58 H          11.4337    0.8597    1.5646 H       1  UNL1        0.0618
     59 H          10.8108   -1.3317    2.5024 H       1  UNL1        0.0618
     60 H           8.6044   -2.2065    2.2016 H       1  UNL1        0.0625
     61 H           2.7639   -1.4197   -0.3243 H       1  UNL1        0.0625
     62 H           0.5998   -1.0708   -1.3565 H       1  UNL1        0.0654
     63 H          -0.6874    0.0000    0.0000 H       1  UNL1        0.1454
@<TRIPOS>BOND
     1     1     2    1
     2     2     3    1
     3     2     4    1
     4     4     5    2
     5     5     6    1
     6     5     7    1
     7     7     8    2
     8     8     9    1
     9     8    10    1
    10    10    11    1
    11    11    12    1
    12    12    13    1
    13    13    14    1
    14    14    15    1
    15    15    16    1
    16    16    17    1
    17    17    18   ar
    18    18    19   ar
    19    19    20   ar
    20    20    21    1
    21    21    22    2
    22    22    23    1
    23    23    24    2
    24    23    25    1
    25    25    26   ar
    26    26    27   ar
    27    27    28   ar
    28    28    29   ar
    29    29    30   ar
    30    20    31   ar
    31    31    32   ar
    32    10     2    1
    33    32    17   ar
    34    30    25   ar
    35     1    34    1
    36     1    35    1
    37     1    36    1
    38     3    37    1
    39     3    38    1
    40     3    39    1
    41     6    40    1
    42     6    41    1
    43     9    42    1
    44     9    43    1
    45    12    44    1
    46    12    45    1
    47    13    46    1
    48    13    47    1
    49    14    48    1
    50    14    49    1
    51    15    50    1
    52    15    51    1
    53    18    52    1
    54    19    53    1
    55    21    54    1
    56    22    55    1
    57    26    56    1
    58    27    57    1
    59    28    58    1
    60    29    59    1
    61    30    60    1
    62    31    61    1
    63    32    62    1
    64    33    63    1
