@<TRIPOS>MOLECULE
*****
 46 49 0 0 0
SMALL
GASTEIGER

@<TRIPOS>ATOM
      1 C           6.7481   -1.9970   -0.0177 C.3     1  UNL1       -0.0556
      2 C           6.2106   -0.6625   -0.3978 C.3     1  UNL1        0.0167
      3 C           6.7659    0.4106    0.5161 C.3     1  UNL1       -0.0556
      4 C           4.7276   -0.6153   -0.3653 C.ar    1  UNL1        0.1747
      5 N           3.8739   -1.6589   -0.4807 N.ar    1  UNL1       -0.0605
      6 O           2.6533   -1.1802   -0.3976 O.2     1  UNL1       -0.3295
      7 C           2.6397    0.0936   -0.2374 C.ar    1  UNL1        0.2958
      8 C           1.5647    1.0753   -0.0947 C.ar    1  UNL1        0.2221
      9 N           1.5697    2.3535   -0.5830 N.ar    1  UNL1       -0.1241
     10 N           0.4328    2.9145   -0.2522 N.ar    1  UNL1       -0.1319
     11 C          -0.3350    2.0608    0.4410 C.ar    1  UNL1        0.1542
     12 N           0.4006    0.9260    0.5199 N.ar    1  UNL1       -0.3040
     13 C          -0.2331   -0.1744    1.2303 C.3     1  UNL1        0.0424
     14 C          -1.6516   -0.3554    0.6557 C.3     1  UNL1        0.0338
     15 N          -2.3875    0.8904    0.7525 N.am    1  UNL1       -0.2860
     16 C          -3.7930    0.8829    0.5213 C.2     1  UNL1        0.2472
     17 O          -4.4444    1.9805    0.6112 O.2     1  UNL1       -0.2700
     18 C          -4.5761   -0.2860    0.1844 C.ar    1  UNL1        0.0371
     19 C          -4.3434   -0.9827   -0.9955 C.ar    1  UNL1       -0.0469
     20 C          -5.0617   -2.1040   -1.3516 C.ar    1  UNL1       -0.0257
     21 C          -6.0469   -2.5645   -0.5249 C.ar    1  UNL1        0.1234
     22 F          -6.7772   -3.6601   -0.8300 F       1  UNL1       -0.2055
     23 C          -6.3123   -1.9136    0.6437 C.ar    1  UNL1       -0.0257
     24 C          -5.5859   -0.7902    0.9905 C.ar    1  UNL1       -0.0469
     25 C          -1.6779    2.0882    1.0812 C.3     1  UNL1        0.0834
     26 C          -2.3261    3.3659    0.6623 C.3     1  UNL1       -0.0393
     27 N           3.9527    0.4715   -0.2142 N.ar    1  UNL1       -0.1889
     28 H           6.3037   -2.8405   -0.5542 H       1  UNL1        0.0236
     29 H           7.8412   -1.9996   -0.3110 H       1  UNL1        0.0236
     30 H           6.7695   -2.1498    1.0900 H       1  UNL1        0.0236
     31 H           6.5007   -0.4016   -1.4411 H       1  UNL1        0.0375
     32 H           7.6635    0.8439    0.0286 H       1  UNL1        0.0236
     33 H           5.9998    1.2408    0.5756 H       1  UNL1        0.0236
     34 H           7.0365   -0.0060    1.4843 H       1  UNL1        0.0236
     35 H           0.3030   -1.1162    1.1678 H       1  UNL1        0.0508
     36 H          -0.3527    0.1411    2.2778 H       1  UNL1        0.0508
     37 H          -1.5921   -0.6707   -0.3945 H       1  UNL1        0.0482
     38 H          -2.1845   -1.1124    1.2427 H       1  UNL1        0.0482
     39 H          -3.5738   -0.6230   -1.6639 H       1  UNL1        0.0626
     40 H          -4.8859   -2.6495   -2.2642 H       1  UNL1        0.0646
     41 H          -7.0721   -2.2268    1.3324 H       1  UNL1        0.0646
     42 H          -5.7752   -0.2498    1.9099 H       1  UNL1        0.0626
     43 H          -1.5527    2.1274    2.1879 H       1  UNL1        0.0579
     44 H          -2.7827    3.2344   -0.3406 H       1  UNL1        0.0252
     45 H          -1.5179    4.1448    0.5859 H       1  UNL1        0.0252
     46 H          -3.1159    3.7446    1.3318 H       1  UNL1        0.0252
@<TRIPOS>BOND
     1     1     2    1
     2     2     3    1
     3     2     4    1
     4     4     5   ar
     5     5     6   ar
     6     6     7   ar
     7     7     8    1
     8     8     9   ar
     9     9    10   ar
    10    10    11   ar
    11    11    12   ar
    12    12    13    1
    13    13    14    1
    14    14    15    1
    15    15    16   am
    16    16    17    2
    17    16    18    1
    18    18    19   ar
    19    19    20   ar
    20    20    21   ar
    21    21    22    1
    22    21    23   ar
    23    23    24   ar
    24    15    25    1
    25    25    26    1
    26     7    27   ar
    27    27     4   ar
    28    12     8   ar
    29    24    18   ar
    30    25    11    1
    31     1    28    1
    32     1    29    1
    33     1    30    1
    34     2    31    1
    35     3    32    1
    36     3    33    1
    37     3    34    1
    38    13    35    1
    39    13    36    1
    40    14    37    1
    41    14    38    1
    42    19    39    1
    43    20    40    1
    44    23    41    1
    45    24    42    1
    46    25    43    1
    47    26    44    1
    48    26    45    1
    49    26    46    1
