
     RDKit          3D

 46 49  0  0  0  0  0  0  0  0999 V2000
    6.7481   -1.9970   -0.0177 C   0  0  0  0  0  0  0  0  0  0  0  0
    6.2106   -0.6625   -0.3978 C   0  0  0  0  0  0  0  0  0  0  0  0
    6.7659    0.4106    0.5161 C   0  0  0  0  0  0  0  0  0  0  0  0
    4.7276   -0.6153   -0.3653 C   0  0  0  0  0  0  0  0  0  0  0  0
    3.8739   -1.6589   -0.4807 N   0  0  0  0  0  0  0  0  0  0  0  0
    2.6533   -1.1802   -0.3976 O   0  0  0  0  0  0  0  0  0  0  0  0
    2.6397    0.0936   -0.2374 C   0  0  0  0  0  0  0  0  0  0  0  0
    1.5647    1.0753   -0.0947 C   0  0  0  0  0  0  0  0  0  0  0  0
    1.5697    2.3535   -0.5830 N   0  0  0  0  0  0  0  0  0  0  0  0
    0.4328    2.9145   -0.2522 N   0  0  0  0  0  0  0  0  0  0  0  0
   -0.3350    2.0608    0.4410 C   0  0  0  0  0  0  0  0  0  0  0  0
    0.4006    0.9260    0.5199 N   0  0  0  0  0  0  0  0  0  0  0  0
   -0.2331   -0.1744    1.2303 C   0  0  0  0  0  0  0  0  0  0  0  0
   -1.6516   -0.3554    0.6557 C   0  0  0  0  0  0  0  0  0  0  0  0
   -2.3875    0.8904    0.7525 N   0  0  0  0  0  0  0  0  0  0  0  0
   -3.7930    0.8829    0.5213 C   0  0  0  0  0  0  0  0  0  0  0  0
   -4.4444    1.9805    0.6112 O   0  0  0  0  0  0  0  0  0  0  0  0
   -4.5761   -0.2860    0.1844 C   0  0  0  0  0  0  0  0  0  0  0  0
   -4.3434   -0.9827   -0.9955 C   0  0  0  0  0  0  0  0  0  0  0  0
   -5.0617   -2.1040   -1.3516 C   0  0  0  0  0  0  0  0  0  0  0  0
   -6.0469   -2.5645   -0.5249 C   0  0  0  0  0  0  0  0  0  0  0  0
   -6.7772   -3.6601   -0.8300 F   0  0  0  0  0  0  0  0  0  0  0  0
   -6.3123   -1.9136    0.6437 C   0  0  0  0  0  0  0  0  0  0  0  0
   -5.5859   -0.7902    0.9905 C   0  0  0  0  0  0  0  0  0  0  0  0
   -1.6779    2.0882    1.0812 C   0  0  2  0  0  0  0  0  0  0  0  0
   -2.3261    3.3659    0.6623 C   0  0  0  0  0  0  0  0  0  0  0  0
    3.9527    0.4715   -0.2142 N   0  0  0  0  0  0  0  0  0  0  0  0
    6.3037   -2.8405   -0.5542 H   0  0  0  0  0  0  0  0  0  0  0  0
    7.8412   -1.9996   -0.3110 H   0  0  0  0  0  0  0  0  0  0  0  0
    6.7695   -2.1498    1.0900 H   0  0  0  0  0  0  0  0  0  0  0  0
    6.5007   -0.4016   -1.4411 H   0  0  0  0  0  0  0  0  0  0  0  0
    7.6635    0.8439    0.0286 H   0  0  0  0  0  0  0  0  0  0  0  0
    5.9998    1.2408    0.5756 H   0  0  0  0  0  0  0  0  0  0  0  0
    7.0365   -0.0060    1.4843 H   0  0  0  0  0  0  0  0  0  0  0  0
    0.3030   -1.1162    1.1678 H   0  0  0  0  0  0  0  0  0  0  0  0
   -0.3527    0.1411    2.2778 H   0  0  0  0  0  0  0  0  0  0  0  0
   -1.5921   -0.6707   -0.3945 H   0  0  0  0  0  0  0  0  0  0  0  0
   -2.1845   -1.1124    1.2427 H   0  0  0  0  0  0  0  0  0  0  0  0
   -3.5738   -0.6230   -1.6639 H   0  0  0  0  0  0  0  0  0  0  0  0
   -4.8859   -2.6495   -2.2642 H   0  0  0  0  0  0  0  0  0  0  0  0
   -7.0721   -2.2268    1.3324 H   0  0  0  0  0  0  0  0  0  0  0  0
   -5.7752   -0.2498    1.9099 H   0  0  0  0  0  0  0  0  0  0  0  0
   -1.5527    2.1274    2.1879 H   0  0  0  0  0  0  0  0  0  0  0  0
   -2.7827    3.2344   -0.3406 H   0  0  0  0  0  0  0  0  0  0  0  0
   -1.5179    4.1448    0.5859 H   0  0  0  0  0  0  0  0  0  0  0  0
   -3.1159    3.7446    1.3318 H   0  0  0  0  0  0  0  0  0  0  0  0
  1  2  1  0
  2  3  1  0
  2  4  1  0
  4  5  2  0
  5  6  1  0
  6  7  1  0
  7  8  1  0
  8  9  2  0
  9 10  1  0
 10 11  2  0
 11 12  1  0
 12 13  1  0
 13 14  1  0
 14 15  1  0
 15 16  1  0
 16 17  2  0
 16 18  1  0
 18 19  2  0
 19 20  1  0
 20 21  2  0
 21 22  1  0
 21 23  1  0
 23 24  2  0
 15 25  1  0
 25 26  1  0
  7 27  2  0
 27  4  1  0
 12  8  1  0
 24 18  1  0
 25 11  1  0
  1 28  1  0
  1 29  1  0
  1 30  1  0
  2 31  1  0
  3 32  1  0
  3 33  1  0
  3 34  1  0
 13 35  1  0
 13 36  1  0
 14 37  1  0
 14 38  1  0
 19 39  1  0
 20 40  1  0
 23 41  1  0
 24 42  1  0
 25 43  1  1
 26 44  1  0
 26 45  1  0
 26 46  1  0
M  END
$$$$
