@<TRIPOS>MOLECULE
*****
 78 85 0 0 0
SMALL
GASTEIGER

@<TRIPOS>ATOM
      1 C          -5.9890    3.7912    3.1442 C.3     1  UNL1        0.0790
      2 O          -5.8211    2.9305    2.2116 O.3     1  UNL1       -0.4913
      3 C          -5.5792    2.0741    1.2859 C.ar    1  UNL1        0.1653
      4 C          -4.2914    1.6952    0.9085 C.ar    1  UNL1       -0.0123
      5 C          -3.9857    0.7885   -0.0697 C.ar    1  UNL1       -0.0320
      6 C          -2.6113    0.4634   -0.4160 C.3     1  UNL1        0.0233
      7 C          -2.0179   -0.7019    0.2853 C.ar    1  UNL1       -0.0298
      8 C          -2.5999   -1.2659    1.3719 C.ar    1  UNL1       -0.0120
      9 C          -2.0473   -2.3954    1.9956 C.ar    1  UNL1        0.1665
     10 C          -0.8904   -2.9162    1.4678 C.ar    1  UNL1        0.1666
     11 C          -0.3219   -2.3257    0.3688 C.ar    1  UNL1       -0.0102
     12 C          -0.8771   -1.2158   -0.2313 C.ar    1  UNL1       -0.0109
     13 C          -0.1206   -0.6574   -1.4253 C.3     1  UNL1        0.0938
     14 O           1.0518   -0.4287   -1.0554 O.3     1  UNL1       -0.3404
     15 C           2.2101   -0.2027   -0.6901 C.3     1  UNL1        0.1886
     16 O           2.8350    1.0065   -0.9958 O.3     1  UNL1       -0.3405
     17 C           4.1831    0.9724   -0.9313 C.3     1  UNL1        0.1137
     18 C           4.8701   -0.1706   -1.6474 C.3     1  UNL1        0.0798
     19 O           6.2113    0.2670   -1.8125 O.3     1  UNL1       -0.3440
     20 C           6.5808    0.7969   -0.5690 C.3     1  UNL1        0.1921
     21 C           8.0231    0.6355   -0.3052 C.ar    1  UNL1        0.0451
     22 C           8.7056    0.2134    0.7727 C.ar    1  UNL1       -0.0467
     23 C          10.0448    0.1727    0.7366 C.ar    1  UNL1       -0.0543
     24 C          10.6825    0.5666   -0.4100 C.ar    1  UNL1       -0.0239
     25 S           9.2724    1.0077   -1.4579 S.2     1  UNL1       -0.0966
     26 O           5.8775    0.2482    0.4904 O.3     1  UNL1       -0.3382
     27 C           4.6103    0.8709    0.5163 C.3     1  UNL1        0.1187
     28 C           3.6413    0.1790    1.3832 C.3     1  UNL1        0.1144
     29 O           4.3514   -0.8748    2.0190 O.3     1  UNL1       -0.3864
     30 C           2.4148   -0.3771    0.8119 C.3     1  UNL1        0.1341
     31 O           1.3074    0.2561    1.4079 O.3     1  UNL1       -0.3841
     32 C          -0.9342    0.3663   -2.1418 C.3     1  UNL1        0.0375
     33 C          -0.9707    0.2644   -3.6428 C.3     1  UNL1        0.0987
     34 O          -2.3397    0.4683   -4.0326 O.3     1  UNL1       -0.4640
     35 C          -3.0236    0.8769   -2.8788 C.2     1  UNL1        0.3116
     36 O          -3.9475    1.7184   -2.7854 O.2     1  UNL1       -0.2505
     37 C          -2.3865    0.0802   -1.8477 C.3     1  UNL1        0.0758
     38 O          -0.5531   -4.0237    2.2624 O.3     1  UNL1       -0.4526
     39 C          -1.6937   -4.4238    3.0171 C.3     1  UNL1        0.2332
     40 O          -2.4030   -3.1764    3.0927 O.3     1  UNL1       -0.4526
     41 C          -5.0708    0.2124   -0.7241 C.ar    1  UNL1       -0.0123
     42 C          -6.3593    0.5138   -0.4312 C.ar    1  UNL1        0.1653
     43 O          -7.4699   -0.0388   -1.0612 O.3     1  UNL1       -0.4913
     44 C          -7.4053   -0.9849   -2.0865 C.3     1  UNL1        0.0790
     45 C          -6.6049    1.4281    0.5559 C.ar    1  UNL1        0.2010
     46 O          -7.9119    1.7989    0.9228 O.3     1  UNL1       -0.5009
     47 H          -6.4278    4.8118    2.8680 H       1  UNL1        0.0660
     48 H          -5.0265    4.0921    3.6837 H       1  UNL1        0.0660
     49 H          -6.6598    3.4826    4.0317 H       1  UNL1        0.0660
     50 H          -3.4905    2.1771    1.4536 H       1  UNL1        0.0658
     51 H          -1.9838    1.3435   -0.1417 H       1  UNL1        0.0405
     52 H          -3.5118   -0.8967    1.8294 H       1  UNL1        0.0658
     53 H           0.6052   -2.7828   -0.0122 H       1  UNL1        0.0659
     54 H          -0.1567   -1.5636   -2.1263 H       1  UNL1        0.0651
     55 H           2.9381   -0.9657   -1.1307 H       1  UNL1        0.0938
     56 H           4.5683    1.9097   -1.4075 H       1  UNL1        0.0647
     57 H           4.9743   -1.0371   -0.9276 H       1  UNL1        0.0588
     58 H           4.4155   -0.4680   -2.5883 H       1  UNL1        0.0588
     59 H           6.4228    1.9154   -0.6429 H       1  UNL1        0.0970
     60 H           8.1326   -0.1004    1.6904 H       1  UNL1        0.0627
     61 H          10.6844   -0.1676    1.5982 H       1  UNL1        0.0623
     62 H          11.7314    0.6310   -0.6980 H       1  UNL1        0.0693
     63 H           4.8160    1.9240    0.8567 H       1  UNL1        0.0651
     64 H           3.4102    0.8703    2.2511 H       1  UNL1        0.0648
     65 H           4.0676   -1.7526    1.6346 H       1  UNL1        0.2100
     66 H           2.3049   -1.4688    1.0685 H       1  UNL1        0.0671
     67 H           1.0937   -0.2201    2.2312 H       1  UNL1        0.2101
     68 H          -0.7428    1.4054   -1.7923 H       1  UNL1        0.0370
     69 H          -0.6046   -0.7160   -4.0018 H       1  UNL1        0.0701
     70 H          -0.4397    1.0828   -4.1693 H       1  UNL1        0.0701
     71 H          -2.6272   -0.9910   -2.0079 H       1  UNL1        0.0427
     72 H          -2.2181   -5.1686    2.3962 H       1  UNL1        0.1166
     73 H          -1.4048   -4.7796    4.0144 H       1  UNL1        0.1166
     74 H          -4.8849   -0.5097   -1.4990 H       1  UNL1        0.0658
     75 H          -8.3070   -1.6288   -2.1438 H       1  UNL1        0.0660
     76 H          -6.5058   -1.6057   -2.0645 H       1  UNL1        0.0660
     77 H          -7.3764   -0.4081   -3.0530 H       1  UNL1        0.0660
     78 H          -8.4431    1.1016    1.4198 H       1  UNL1        0.2924
@<TRIPOS>BOND
     1     1     2    1
     2     2     3    1
     3     3     4   ar
     4     4     5   ar
     5     5     6    1
     6     6     7    1
     7     7     8   ar
     8     8     9   ar
     9     9    10   ar
    10    10    11   ar
    11    11    12   ar
    12    12    13    1
    13    13    14    1
    14    14    15    1
    15    15    16    1
    16    16    17    1
    17    17    18    1
    18    18    19    1
    19    19    20    1
    20    20    21    1
    21    21    22   ar
    22    22    23   ar
    23    23    24   ar
    24    24    25   ar
    25    20    26    1
    26    26    27    1
    27    27    28    1
    28    28    29    1
    29    28    30    1
    30    30    31    1
    31    13    32    1
    32    32    33    1
    33    33    34    1
    34    34    35    1
    35    35    36    2
    36    35    37    1
    37    10    38    1
    38    38    39    1
    39    39    40    1
    40     5    41   ar
    41    41    42   ar
    42    42    43    1
    43    43    44    1
    44    42    45   ar
    45    45    46    1
    46    45     3   ar
    47    37     6    1
    48    12     7   ar
    49    30    15    1
    50    37    32    1
    51    40     9    1
    52    27    17    1
    53    25    21   ar
    54     1    47    1
    55     1    48    1
    56     1    49    1
    57     4    50    1
    58     6    51    1
    59     8    52    1
    60    11    53    1
    61    13    54    1
    62    15    55    1
    63    17    56    1
    64    18    57    1
    65    18    58    1
    66    20    59    1
    67    22    60    1
    68    23    61    1
    69    24    62    1
    70    27    63    1
    71    28    64    1
    72    29    65    1
    73    30    66    1
    74    31    67    1
    75    32    68    1
    76    33    69    1
    77    33    70    1
    78    37    71    1
    79    39    72    1
    80    39    73    1
    81    41    74    1
    82    44    75    1
    83    44    76    1
    84    44    77    1
    85    46    78    1
