@<TRIPOS>MOLECULE
*****
 52 54 0 0 0
SMALL
GASTEIGER

@<TRIPOS>ATOM
      1 C           7.5210   -2.3885   -0.3395 C.3     1  UNL1        0.0003
      2 N           6.0935   -2.3054   -0.5961 N.pl3   1  UNL1       -0.3164
      3 C           5.4334   -1.0864   -0.3683 C.ar    1  UNL1        0.2195
      4 N           6.0822   -0.0030    0.0775 N.ar    1  UNL1       -0.1998
      5 C           5.4435    1.1532    0.2911 C.ar    1  UNL1        0.1332
      6 C           6.1986    2.3361    0.7868 C.3     1  UNL1       -0.0044
      7 N           4.1211    1.2063    0.0463 N.ar    1  UNL1       -0.1996
      8 C           3.4402    0.1423   -0.4002 C.ar    1  UNL1        0.2224
      9 N           2.0619    0.2087   -0.6522 N.pl3   1  UNL1       -0.2995
     10 C           1.2782   -0.9107   -1.1417 C.3     1  UNL1        0.0156
     11 C           0.0910   -1.2085   -0.2798 C.3     1  UNL1       -0.0260
     12 C          -0.1769   -0.0936    0.7206 C.3     1  UNL1        0.0384
     13 C          -1.5096   -0.2421    1.3559 C.2     1  UNL1        0.2165
     14 O          -1.5823   -0.3859    2.6080 O.2     1  UNL1       -0.2755
     15 N          -2.7171   -0.2268    0.5905 N.am    1  UNL1       -0.3110
     16 C          -3.9508   -0.3765    1.2965 C.3     1  UNL1        0.0374
     17 C          -5.1649   -0.3211    0.5004 C.ar    1  UNL1       -0.0187
     18 C          -5.8201   -1.4907    0.1285 C.ar    1  UNL1       -0.0565
     19 C          -6.9653   -1.4594   -0.6387 C.ar    1  UNL1       -0.0614
     20 C          -7.5015   -0.2634   -1.0648 C.ar    1  UNL1       -0.0612
     21 C          -6.8651    0.9013   -0.7049 C.ar    1  UNL1       -0.0498
     22 C          -5.7022    0.8623    0.0750 C.ar    1  UNL1        0.0595
     23 C          -5.0670    2.1389    0.4484 C.3     1  UNL1        0.4177
     24 F          -5.7970    3.2068   -0.0865 F       1  UNL1       -0.1659
     25 F          -5.0473    2.3524    1.8133 F       1  UNL1       -0.1659
     26 F          -3.8192    2.2357   -0.1124 F       1  UNL1       -0.1659
     27 C          -0.0510    1.2620    0.0594 C.3     1  UNL1       -0.0260
     28 C           1.3508    1.4517   -0.4215 C.3     1  UNL1        0.0156
     29 N           4.1015   -1.0019   -0.6057 N.ar    1  UNL1       -0.1810
     30 H           7.9582   -1.4104   -0.0961 H       1  UNL1        0.0426
     31 H           7.7152   -3.1210    0.4500 H       1  UNL1        0.0426
     32 H           7.9751   -2.7841   -1.2811 H       1  UNL1        0.0426
     33 H           5.5898   -3.1420   -0.9408 H       1  UNL1        0.1486
     34 H           6.4191    2.2964    1.8576 H       1  UNL1        0.0308
     35 H           7.1770    2.3342    0.2425 H       1  UNL1        0.0308
     36 H           5.6286    3.2496    0.4949 H       1  UNL1        0.0308
     37 H           1.9123   -1.8235   -1.2177 H       1  UNL1        0.0465
     38 H           0.9360   -0.6346   -2.1500 H       1  UNL1        0.0465
     39 H          -0.7964   -1.3419   -0.9141 H       1  UNL1        0.0288
     40 H           0.2429   -2.1785    0.2437 H       1  UNL1        0.0288
     41 H           0.6161   -0.1568    1.4909 H       1  UNL1        0.0395
     42 H          -2.6613   -0.1185   -0.4338 H       1  UNL1        0.1490
     43 H          -3.8801   -1.3660    1.8405 H       1  UNL1        0.0512
     44 H          -3.9468    0.3706    2.1443 H       1  UNL1        0.0512
     45 H          -5.4238   -2.4592    0.4484 H       1  UNL1        0.0621
     46 H          -7.4634   -2.3831   -0.9194 H       1  UNL1        0.0618
     47 H          -8.4164   -0.2326   -1.6781 H       1  UNL1        0.0618
     48 H          -7.2636    1.8560   -1.0254 H       1  UNL1        0.0623
     49 H          -0.2619    2.0144    0.8514 H       1  UNL1        0.0288
     50 H          -0.7727    1.3255   -0.7800 H       1  UNL1        0.0288
     51 H           1.2983    1.9644   -1.4098 H       1  UNL1        0.0465
     52 H           1.9380    2.0474    0.3127 H       1  UNL1        0.0465
@<TRIPOS>BOND
     1     1     2    1
     2     2     3    1
     3     3     4   ar
     4     4     5   ar
     5     5     6    1
     6     5     7   ar
     7     7     8   ar
     8     8     9    1
     9     9    10    1
    10    10    11    1
    11    11    12    1
    12    12    13    1
    13    13    14    2
    14    13    15   am
    15    15    16    1
    16    16    17    1
    17    17    18   ar
    18    18    19   ar
    19    19    20   ar
    20    20    21   ar
    21    21    22   ar
    22    22    23    1
    23    23    24    1
    24    23    25    1
    25    23    26    1
    26    12    27    1
    27    27    28    1
    28     8    29   ar
    29    29     3   ar
    30    28     9    1
    31    22    17   ar
    32     1    30    1
    33     1    31    1
    34     1    32    1
    35     2    33    1
    36     6    34    1
    37     6    35    1
    38     6    36    1
    39    10    37    1
    40    10    38    1
    41    11    39    1
    42    11    40    1
    43    12    41    1
    44    15    42    1
    45    16    43    1
    46    16    44    1
    47    18    45    1
    48    19    46    1
    49    20    47    1
    50    21    48    1
    51    27    49    1
    52    27    50    1
    53    28    51    1
    54    28    52    1
