
     RDKit          3D

 52 54  0  0  0  0  0  0  0  0999 V2000
    7.5210   -2.3885   -0.3395 C   0  0  0  0  0  0  0  0  0  0  0  0
    6.0935   -2.3054   -0.5961 N   0  0  0  0  0  0  0  0  0  0  0  0
    5.4334   -1.0864   -0.3683 C   0  0  0  0  0  0  0  0  0  0  0  0
    6.0822   -0.0030    0.0775 N   0  0  0  0  0  0  0  0  0  0  0  0
    5.4435    1.1532    0.2911 C   0  0  0  0  0  0  0  0  0  0  0  0
    6.1986    2.3361    0.7868 C   0  0  0  0  0  0  0  0  0  0  0  0
    4.1211    1.2063    0.0463 N   0  0  0  0  0  0  0  0  0  0  0  0
    3.4402    0.1423   -0.4002 C   0  0  0  0  0  0  0  0  0  0  0  0
    2.0619    0.2087   -0.6522 N   0  0  0  0  0  0  0  0  0  0  0  0
    1.2782   -0.9107   -1.1417 C   0  0  0  0  0  0  0  0  0  0  0  0
    0.0910   -1.2085   -0.2798 C   0  0  0  0  0  0  0  0  0  0  0  0
   -0.1769   -0.0936    0.7206 C   0  0  0  0  0  0  0  0  0  0  0  0
   -1.5096   -0.2421    1.3559 C   0  0  0  0  0  0  0  0  0  0  0  0
   -1.5823   -0.3859    2.6080 O   0  0  0  0  0  0  0  0  0  0  0  0
   -2.7171   -0.2268    0.5905 N   0  0  0  0  0  0  0  0  0  0  0  0
   -3.9508   -0.3765    1.2965 C   0  0  0  0  0  0  0  0  0  0  0  0
   -5.1649   -0.3211    0.5004 C   0  0  0  0  0  0  0  0  0  0  0  0
   -5.8201   -1.4907    0.1285 C   0  0  0  0  0  0  0  0  0  0  0  0
   -6.9653   -1.4594   -0.6387 C   0  0  0  0  0  0  0  0  0  0  0  0
   -7.5015   -0.2634   -1.0648 C   0  0  0  0  0  0  0  0  0  0  0  0
   -6.8651    0.9013   -0.7049 C   0  0  0  0  0  0  0  0  0  0  0  0
   -5.7022    0.8623    0.0750 C   0  0  0  0  0  0  0  0  0  0  0  0
   -5.0670    2.1389    0.4484 C   0  0  0  0  0  0  0  0  0  0  0  0
   -5.7970    3.2068   -0.0865 F   0  0  0  0  0  0  0  0  0  0  0  0
   -5.0473    2.3524    1.8133 F   0  0  0  0  0  0  0  0  0  0  0  0
   -3.8192    2.2357   -0.1124 F   0  0  0  0  0  0  0  0  0  0  0  0
   -0.0510    1.2620    0.0594 C   0  0  0  0  0  0  0  0  0  0  0  0
    1.3508    1.4517   -0.4215 C   0  0  0  0  0  0  0  0  0  0  0  0
    4.1015   -1.0019   -0.6057 N   0  0  0  0  0  0  0  0  0  0  0  0
    7.9582   -1.4104   -0.0961 H   0  0  0  0  0  0  0  0  0  0  0  0
    7.7152   -3.1210    0.4500 H   0  0  0  0  0  0  0  0  0  0  0  0
    7.9751   -2.7841   -1.2811 H   0  0  0  0  0  0  0  0  0  0  0  0
    5.5898   -3.1420   -0.9408 H   0  0  0  0  0  0  0  0  0  0  0  0
    6.4191    2.2964    1.8576 H   0  0  0  0  0  0  0  0  0  0  0  0
    7.1770    2.3342    0.2425 H   0  0  0  0  0  0  0  0  0  0  0  0
    5.6286    3.2496    0.4949 H   0  0  0  0  0  0  0  0  0  0  0  0
    1.9123   -1.8235   -1.2177 H   0  0  0  0  0  0  0  0  0  0  0  0
    0.9360   -0.6346   -2.1500 H   0  0  0  0  0  0  0  0  0  0  0  0
   -0.7964   -1.3419   -0.9141 H   0  0  0  0  0  0  0  0  0  0  0  0
    0.2429   -2.1785    0.2437 H   0  0  0  0  0  0  0  0  0  0  0  0
    0.6161   -0.1568    1.4909 H   0  0  0  0  0  0  0  0  0  0  0  0
   -2.6613   -0.1185   -0.4338 H   0  0  0  0  0  0  0  0  0  0  0  0
   -3.8801   -1.3660    1.8405 H   0  0  0  0  0  0  0  0  0  0  0  0
   -3.9468    0.3706    2.1443 H   0  0  0  0  0  0  0  0  0  0  0  0
   -5.4238   -2.4592    0.4484 H   0  0  0  0  0  0  0  0  0  0  0  0
   -7.4634   -2.3831   -0.9194 H   0  0  0  0  0  0  0  0  0  0  0  0
   -8.4164   -0.2326   -1.6781 H   0  0  0  0  0  0  0  0  0  0  0  0
   -7.2636    1.8560   -1.0254 H   0  0  0  0  0  0  0  0  0  0  0  0
   -0.2619    2.0144    0.8514 H   0  0  0  0  0  0  0  0  0  0  0  0
   -0.7727    1.3255   -0.7800 H   0  0  0  0  0  0  0  0  0  0  0  0
    1.2983    1.9644   -1.4098 H   0  0  0  0  0  0  0  0  0  0  0  0
    1.9380    2.0474    0.3127 H   0  0  0  0  0  0  0  0  0  0  0  0
  1  2  1  0
  2  3  1  0
  3  4  2  0
  4  5  1  0
  5  6  1  0
  5  7  2  0
  7  8  1  0
  8  9  1  0
  9 10  1  0
 10 11  1  0
 11 12  1  0
 12 13  1  0
 13 14  2  0
 13 15  1  0
 15 16  1  0
 16 17  1  0
 17 18  2  0
 18 19  1  0
 19 20  2  0
 20 21  1  0
 21 22  2  0
 22 23  1  0
 23 24  1  0
 23 25  1  0
 23 26  1  0
 12 27  1  0
 27 28  1  0
  8 29  2  0
 29  3  1  0
 28  9  1  0
 22 17  1  0
  1 30  1  0
  1 31  1  0
  1 32  1  0
  2 33  1  0
  6 34  1  0
  6 35  1  0
  6 36  1  0
 10 37  1  0
 10 38  1  0
 11 39  1  0
 11 40  1  0
 12 41  1  0
 15 42  1  0
 16 43  1  0
 16 44  1  0
 18 45  1  0
 19 46  1  0
 20 47  1  0
 21 48  1  0
 27 49  1  0
 27 50  1  0
 28 51  1  0
 28 52  1  0
M  END
$$$$
