@<TRIPOS>MOLECULE
*****
 59 64 0 0 0
SMALL
GASTEIGER

@<TRIPOS>ATOM
      1 N          -3.4008    1.6196   -1.8788 N.ar    1  UNL1       -0.3600
      2 C          -3.0319    0.3822   -1.4430 C.ar    1  UNL1        0.0106
      3 C          -3.3921    0.2801   -0.0908 C.ar    1  UNL1        0.0129
      4 C          -3.9672    1.4934    0.2045 C.ar    1  UNL1        0.0075
      5 C          -4.4855    1.8998    1.4086 C.ar    1  UNL1       -0.0520
      6 C          -5.0373    3.1488    1.5739 C.ar    1  UNL1       -0.0611
      7 C          -5.0180    3.9427    0.4236 C.ar    1  UNL1       -0.0598
      8 C          -4.5090    3.5978   -0.8301 C.ar    1  UNL1       -0.0378
      9 C          -3.9799    2.3268   -0.8857 C.ar    1  UNL1        0.0471
     10 C          -3.1167   -0.9489    0.6317 C.2     1  UNL1        0.0589
     11 C          -1.9953   -1.6366    0.5269 C.2     1  UNL1        0.0590
     12 C          -2.1043   -2.8184    1.4135 C.2     1  UNL1        0.2519
     13 O          -1.1863   -3.6961    1.5500 O.2     1  UNL1       -0.2697
     14 N          -3.3710   -2.7776    2.0471 N.am    1  UNL1       -0.2483
     15 C          -4.0400   -1.6148    1.5804 C.2     1  UNL1        0.2519
     16 O          -5.1933   -1.3090    1.9643 O.2     1  UNL1       -0.2697
     17 C          -0.7883   -1.3601   -0.2439 C.ar    1  UNL1        0.0131
     18 C           0.0518   -0.2624   -0.3390 C.ar    1  UNL1        0.0136
     19 N           1.0162   -0.5331   -1.2527 N.ar    1  UNL1       -0.3460
     20 C           2.0918    0.3680   -1.6442 C.3     1  UNL1        0.0247
     21 C           3.3254    0.1406   -0.8406 C.3     1  UNL1       -0.0193
     22 C           3.1390    0.3378    0.6626 C.3     1  UNL1        0.0118
     23 C           2.7145    1.7062    1.0149 C.3     1  UNL1       -0.0361
     24 C           3.6726    2.1721    2.0935 C.3     1  UNL1       -0.0388
     25 C           4.3164    0.8633    2.5508 C.3     1  UNL1       -0.0011
     26 N           4.3212    0.0292    1.3786 N.3     1  UNL1       -0.3023
     27 C           5.5395    0.3182    0.6442 C.3     1  UNL1       -0.0125
     28 C           0.7952   -1.7589   -1.7212 C.ar    1  UNL1        0.0497
     29 C           1.5152   -2.4508   -2.6697 C.ar    1  UNL1       -0.0376
     30 C           1.1723   -3.7328   -3.0789 C.ar    1  UNL1       -0.0598
     31 C           0.0640   -4.2902   -2.4848 C.ar    1  UNL1       -0.0611
     32 C          -0.6415   -3.5727   -1.5338 C.ar    1  UNL1       -0.0520
     33 C          -0.3049   -2.3016   -1.1258 C.ar    1  UNL1        0.0077
     34 H          -3.2688    2.0121   -2.8604 H       1  UNL1        0.1654
     35 H          -2.5444   -0.3658   -2.0655 H       1  UNL1        0.0813
     36 H          -4.4782    1.2588    2.2763 H       1  UNL1        0.0624
     37 H          -5.4695    3.5635    2.4706 H       1  UNL1        0.0618
     38 H          -5.4428    4.9427    0.4978 H       1  UNL1        0.0618
     39 H          -4.5331    4.2622   -1.6537 H       1  UNL1        0.0638
     40 H          -3.7418   -3.4855    2.7373 H       1  UNL1        0.1581
     41 H          -0.1082    0.6264    0.2566 H       1  UNL1        0.0815
     42 H           2.3362    0.1222   -2.6936 H       1  UNL1        0.0492
     43 H           1.7681    1.4299   -1.6486 H       1  UNL1        0.0492
     44 H           3.6501   -0.9165   -0.9517 H       1  UNL1        0.0297
     45 H           4.1404    0.8557   -1.1015 H       1  UNL1        0.0297
     46 H           2.3514   -0.3746    1.0005 H       1  UNL1        0.0463
     47 H           2.6914    2.4283    0.1693 H       1  UNL1        0.0281
     48 H           1.6845    1.7311    1.4773 H       1  UNL1        0.0281
     49 H           3.1847    2.6407    2.9487 H       1  UNL1        0.0278
     50 H           4.4670    2.8250    1.6252 H       1  UNL1        0.0278
     51 H           5.3483    1.0672    2.8919 H       1  UNL1        0.0426
     52 H           3.7477    0.3764    3.3561 H       1  UNL1        0.0426
     53 H           6.4015    0.1115    1.3116 H       1  UNL1        0.0391
     54 H           5.5925    1.3667    0.3230 H       1  UNL1        0.0391
     55 H           5.6613   -0.3789   -0.2244 H       1  UNL1        0.0391
     56 H           2.3865   -2.0365   -3.1481 H       1  UNL1        0.0638
     57 H           1.7416   -4.2650   -3.8199 H       1  UNL1        0.0618
     58 H          -0.2355   -5.2911   -2.7788 H       1  UNL1        0.0618
     59 H          -1.5025   -4.0688   -1.1150 H       1  UNL1        0.0624
@<TRIPOS>BOND
     1     1     2   ar
     2     2     3   ar
     3     3     4   ar
     4     4     5   ar
     5     5     6   ar
     6     6     7   ar
     7     7     8   ar
     8     8     9   ar
     9     3    10    1
    10    10    11    2
    11    11    12    1
    12    12    13    2
    13    12    14   am
    14    14    15   am
    15    15    16    2
    16    11    17    1
    17    17    18   ar
    18    18    19   ar
    19    19    20    1
    20    20    21    1
    21    21    22    1
    22    22    23    1
    23    23    24    1
    24    24    25    1
    25    25    26    1
    26    26    27    1
    27    19    28   ar
    28    28    29   ar
    29    29    30   ar
    30    30    31   ar
    31    31    32   ar
    32    32    33   ar
    33     9     1   ar
    34    15    10    1
    35    33    17   ar
    36     9     4   ar
    37    26    22    1
    38    33    28   ar
    39     1    34    1
    40     2    35    1
    41     5    36    1
    42     6    37    1
    43     7    38    1
    44     8    39    1
    45    14    40    1
    46    18    41    1
    47    20    42    1
    48    20    43    1
    49    21    44    1
    50    21    45    1
    51    22    46    1
    52    23    47    1
    53    23    48    1
    54    24    49    1
    55    24    50    1
    56    25    51    1
    57    25    52    1
    58    27    53    1
    59    27    54    1
    60    27    55    1
    61    29    56    1
    62    30    57    1
    63    31    58    1
    64    32    59    1
