
     RDKit          3D

 59 64  0  0  0  0  0  0  0  0999 V2000
   -3.4008    1.6196   -1.8788 N   0  0  0  0  0  0  0  0  0  0  0  0
   -3.0319    0.3822   -1.4430 C   0  0  0  0  0  0  0  0  0  0  0  0
   -3.3921    0.2801   -0.0908 C   0  0  0  0  0  0  0  0  0  0  0  0
   -3.9672    1.4934    0.2045 C   0  0  0  0  0  0  0  0  0  0  0  0
   -4.4855    1.8998    1.4086 C   0  0  0  0  0  0  0  0  0  0  0  0
   -5.0373    3.1488    1.5739 C   0  0  0  0  0  0  0  0  0  0  0  0
   -5.0180    3.9427    0.4236 C   0  0  0  0  0  0  0  0  0  0  0  0
   -4.5090    3.5978   -0.8301 C   0  0  0  0  0  0  0  0  0  0  0  0
   -3.9799    2.3268   -0.8857 C   0  0  0  0  0  0  0  0  0  0  0  0
   -3.1167   -0.9489    0.6317 C   0  0  0  0  0  0  0  0  0  0  0  0
   -1.9953   -1.6366    0.5269 C   0  0  0  0  0  0  0  0  0  0  0  0
   -2.1043   -2.8184    1.4135 C   0  0  0  0  0  0  0  0  0  0  0  0
   -1.1863   -3.6961    1.5500 O   0  0  0  0  0  0  0  0  0  0  0  0
   -3.3710   -2.7776    2.0471 N   0  0  0  0  0  0  0  0  0  0  0  0
   -4.0400   -1.6148    1.5804 C   0  0  0  0  0  0  0  0  0  0  0  0
   -5.1933   -1.3090    1.9643 O   0  0  0  0  0  0  0  0  0  0  0  0
   -0.7883   -1.3601   -0.2439 C   0  0  0  0  0  0  0  0  0  0  0  0
    0.0518   -0.2624   -0.3390 C   0  0  0  0  0  0  0  0  0  0  0  0
    1.0162   -0.5331   -1.2527 N   0  0  0  0  0  0  0  0  0  0  0  0
    2.0918    0.3680   -1.6442 C   0  0  0  0  0  0  0  0  0  0  0  0
    3.3254    0.1406   -0.8406 C   0  0  0  0  0  0  0  0  0  0  0  0
    3.1390    0.3378    0.6626 C   0  0  2  0  0  0  0  0  0  0  0  0
    2.7145    1.7062    1.0149 C   0  0  0  0  0  0  0  0  0  0  0  0
    3.6726    2.1721    2.0935 C   0  0  0  0  0  0  0  0  0  0  0  0
    4.3164    0.8633    2.5508 C   0  0  0  0  0  0  0  0  0  0  0  0
    4.3212    0.0292    1.3786 N   0  0  0  0  0  0  0  0  0  0  0  0
    5.5395    0.3182    0.6442 C   0  0  0  0  0  0  0  0  0  0  0  0
    0.7952   -1.7589   -1.7212 C   0  0  0  0  0  0  0  0  0  0  0  0
    1.5152   -2.4508   -2.6697 C   0  0  0  0  0  0  0  0  0  0  0  0
    1.1723   -3.7328   -3.0789 C   0  0  0  0  0  0  0  0  0  0  0  0
    0.0640   -4.2902   -2.4848 C   0  0  0  0  0  0  0  0  0  0  0  0
   -0.6415   -3.5727   -1.5338 C   0  0  0  0  0  0  0  0  0  0  0  0
   -0.3049   -2.3016   -1.1258 C   0  0  0  0  0  0  0  0  0  0  0  0
   -3.2688    2.0121   -2.8604 H   0  0  0  0  0  0  0  0  0  0  0  0
   -2.5444   -0.3658   -2.0655 H   0  0  0  0  0  0  0  0  0  0  0  0
   -4.4782    1.2588    2.2763 H   0  0  0  0  0  0  0  0  0  0  0  0
   -5.4695    3.5635    2.4706 H   0  0  0  0  0  0  0  0  0  0  0  0
   -5.4428    4.9427    0.4978 H   0  0  0  0  0  0  0  0  0  0  0  0
   -4.5331    4.2622   -1.6537 H   0  0  0  0  0  0  0  0  0  0  0  0
   -3.7418   -3.4855    2.7373 H   0  0  0  0  0  0  0  0  0  0  0  0
   -0.1082    0.6264    0.2566 H   0  0  0  0  0  0  0  0  0  0  0  0
    2.3362    0.1222   -2.6936 H   0  0  0  0  0  0  0  0  0  0  0  0
    1.7681    1.4299   -1.6486 H   0  0  0  0  0  0  0  0  0  0  0  0
    3.6501   -0.9165   -0.9517 H   0  0  0  0  0  0  0  0  0  0  0  0
    4.1404    0.8557   -1.1015 H   0  0  0  0  0  0  0  0  0  0  0  0
    2.3514   -0.3746    1.0005 H   0  0  0  0  0  0  0  0  0  0  0  0
    2.6914    2.4283    0.1693 H   0  0  0  0  0  0  0  0  0  0  0  0
    1.6845    1.7311    1.4773 H   0  0  0  0  0  0  0  0  0  0  0  0
    3.1847    2.6407    2.9487 H   0  0  0  0  0  0  0  0  0  0  0  0
    4.4670    2.8250    1.6252 H   0  0  0  0  0  0  0  0  0  0  0  0
    5.3483    1.0672    2.8919 H   0  0  0  0  0  0  0  0  0  0  0  0
    3.7477    0.3764    3.3561 H   0  0  0  0  0  0  0  0  0  0  0  0
    6.4015    0.1115    1.3116 H   0  0  0  0  0  0  0  0  0  0  0  0
    5.5925    1.3667    0.3230 H   0  0  0  0  0  0  0  0  0  0  0  0
    5.6613   -0.3789   -0.2244 H   0  0  0  0  0  0  0  0  0  0  0  0
    2.3865   -2.0365   -3.1481 H   0  0  0  0  0  0  0  0  0  0  0  0
    1.7416   -4.2650   -3.8199 H   0  0  0  0  0  0  0  0  0  0  0  0
   -0.2355   -5.2911   -2.7788 H   0  0  0  0  0  0  0  0  0  0  0  0
   -1.5025   -4.0688   -1.1150 H   0  0  0  0  0  0  0  0  0  0  0  0
  1  2  1  0
  2  3  2  0
  3  4  1  0
  4  5  2  0
  5  6  1  0
  6  7  2  0
  7  8  1  0
  8  9  2  0
  3 10  1  0
 10 11  2  0
 11 12  1  0
 12 13  2  0
 12 14  1  0
 14 15  1  0
 15 16  2  0
 11 17  1  0
 17 18  2  0
 18 19  1  0
 19 20  1  0
 20 21  1  0
 21 22  1  0
 22 23  1  0
 23 24  1  0
 24 25  1  0
 25 26  1  0
 26 27  1  0
 19 28  1  0
 28 29  2  0
 29 30  1  0
 30 31  2  0
 31 32  1  0
 32 33  2  0
  9  1  1  0
 15 10  1  0
 33 17  1  0
  9  4  1  0
 26 22  1  0
 33 28  1  0
  1 34  1  0
  2 35  1  0
  5 36  1  0
  6 37  1  0
  7 38  1  0
  8 39  1  0
 14 40  1  0
 18 41  1  0
 20 42  1  0
 20 43  1  0
 21 44  1  0
 21 45  1  0
 22 46  1  1
 23 47  1  0
 23 48  1  0
 24 49  1  0
 24 50  1  0
 25 51  1  0
 25 52  1  0
 27 53  1  0
 27 54  1  0
 27 55  1  0
 29 56  1  0
 30 57  1  0
 31 58  1  0
 32 59  1  0
M  END
$$$$
