@<TRIPOS>MOLECULE
*****
 127 132 0 0 0
SMALL
GASTEIGER

@<TRIPOS>ATOM
      1 C          -5.5321    2.6215   -1.9450 C.3     1  UNL1        0.0372
      2 O          -6.2837    2.5997   -0.7591 O.3     1  UNL1       -0.3753
      3 C          -5.7822    1.3513   -0.1365 C.3     1  UNL1        0.0854
      4 C          -4.8539    1.9899    0.8809 C.2     1  UNL1       -0.0208
      5 C          -3.8274    1.7473    1.6805 C.2     1  UNL1        0.0882
      6 O          -2.9876    2.4492    2.6299 O.2     1  UNL1       -0.4528
      7 C          -1.7543    2.7104    1.9838 C.3     1  UNL1        0.3143
      8 C          -2.0987    2.9025    0.4866 C.3     1  UNL1        0.0210
      9 O          -0.9421    3.7749    2.3479 O.3     1  UNL1       -0.4436
     10 C           0.0567    3.7481    1.3118 C.ar    1  UNL1        0.1435
     11 C           0.0990    2.3817    1.1864 C.ar    1  UNL1        0.0788
     12 C          -0.7816    1.5901    2.0443 C.2     1  UNL1        0.2505
     13 O          -0.4807    0.4480    2.4649 O.2     1  UNL1       -0.2836
     14 C           0.8658    1.7814    0.3330 C.ar    1  UNL1        0.0456
     15 C           1.7645    2.2839   -0.5895 C.ar    1  UNL1        0.0714
     16 C           1.7554    3.6959   -0.4810 C.ar    1  UNL1        0.1346
     17 O           2.5023    4.6327   -1.1957 O.3     1  UNL1       -0.5057
     18 C           0.9480    4.3610    0.4165 C.ar    1  UNL1        0.0342
     19 C           0.8695    5.8468    0.5944 C.3     1  UNL1       -0.0327
     20 C           2.6590    1.9231   -1.5672 C.ar    1  UNL1        0.1500
     21 O           3.4171    2.8598   -2.3091 O.3     1  UNL1       -0.5042
     22 C           3.3255    0.8897   -2.3461 C.ar    1  UNL1        0.0886
     23 N           2.7517   -0.4764   -2.2778 N.am    1  UNL1       -0.2782
     24 C           2.7060   -1.8513   -2.2217 C.2     1  UNL1        0.2441
     25 O           3.9683   -1.8335   -2.3130 O.2     1  UNL1       -0.2702
     26 C           2.2110   -3.1757   -2.1250 C.2     1  UNL1        0.0115
     27 C           3.0119   -4.3837   -2.2364 C.3     1  UNL1       -0.0348
     28 C           0.9220   -3.4275   -1.9431 C.2     1  UNL1       -0.0542
     29 C          -0.1382   -2.3851   -1.8467 C.2     1  UNL1       -0.0649
     30 C          -1.4000   -2.7624   -1.5810 C.2     1  UNL1       -0.0787
     31 C          -2.5611   -1.8371   -1.4753 C.3     1  UNL1        0.0009
     32 C          -2.5652   -1.1042   -0.2197 C.3     1  UNL1       -0.0566
     33 C          -3.7271   -2.3534   -2.1880 C.3     1  UNL1        0.0661
     34 O          -3.5066   -2.4357   -3.5386 O.3     1  UNL1       -0.3909
     35 C          -5.0705   -1.7468   -1.8064 C.3     1  UNL1        0.0091
     36 C          -6.0025   -2.3558   -2.9608 C.3     1  UNL1       -0.0577
     37 C          -5.5905   -2.3956   -0.5940 C.3     1  UNL1        0.0661
     38 O          -4.6824   -2.5931    0.4743 O.3     1  UNL1       -0.3910
     39 C          -6.8660   -1.9432    0.0188 C.3     1  UNL1        0.0200
     40 C          -7.1126   -3.0724    1.1071 C.3     1  UNL1       -0.0567
     41 C          -7.0885   -0.7258    0.7805 C.3     1  UNL1        0.1131
     42 O          -8.4225   -0.7934    1.2301 O.3     1  UNL1       -0.4608
     43 C          -9.2509   -0.7901    2.1667 C.2     1  UNL1        0.3042
     44 C         -10.3055   -0.7972    3.2153 C.3     1  UNL1        0.0332
     45 O          -8.2898   -0.6415    3.0377 O.2     1  UNL1       -0.2512
     46 C          -6.9550    0.6616    0.2581 C.3     1  UNL1        0.0236
     47 C          -8.0328    0.9206   -0.8196 C.3     1  UNL1       -0.0564
     48 C           2.3959    0.8080   -1.3542 C.ar    1  UNL1        0.0613
     49 C           4.0386    0.7239   -1.1941 C.2     1  UNL1        0.0580
     50 N           5.2893    0.7068   -1.3113 N.2     1  UNL1       -0.1917
     51 N           6.3891    0.5198   -0.5332 N.pl3   1  UNL1       -0.2531
     52 C           6.9643   -0.7752   -0.3102 C.3     1  UNL1        0.0425
     53 C           7.4887   -0.8712    1.0952 C.3     1  UNL1        0.0165
     54 N           8.4856    0.1021    1.3730 N.3     1  UNL1       -0.2963
     55 C           8.4173    1.2133    0.4057 C.3     1  UNL1        0.0165
     56 C           7.0281    1.6660    0.0984 C.3     1  UNL1        0.0425
     57 C           9.8602   -0.3767    1.2655 C.3     1  UNL1        0.0105
     58 C          10.0201   -1.6938    1.9333 C.3     1  UNL1       -0.0373
     59 C          11.5514   -1.6760    2.1484 C.3     1  UNL1       -0.0516
     60 C          11.7484   -0.2883    2.7227 C.3     1  UNL1       -0.0516
     61 C          10.6186    0.5650    2.2569 C.3     1  UNL1       -0.0373
     62 C           1.5225    0.9242   -0.4117 C.ar    1  UNL1        0.1361
     63 O           0.8938   -0.1704    0.2258 O.3     1  UNL1       -0.5054
     64 H          -4.4533    2.6640   -1.5932 H       1  UNL1        0.0524
     65 H          -5.6159    1.6977   -2.5335 H       1  UNL1        0.0524
     66 H          -5.7489    3.5389   -2.5264 H       1  UNL1        0.0524
     67 H          -5.1306    1.0191   -0.9744 H       1  UNL1        0.0645
     68 H          -4.9496    3.0471    1.1892 H       1  UNL1        0.0628
     69 H          -3.2932    0.7828    1.8327 H       1  UNL1        0.1022
     70 H          -2.7830    3.7745    0.4522 H       1  UNL1        0.0309
     71 H          -2.5710    1.9750    0.0981 H       1  UNL1        0.0309
     72 H          -1.1890    3.1706   -0.0562 H       1  UNL1        0.0309
     73 H           2.0896    5.4074   -1.6558 H       1  UNL1        0.2922
     74 H           1.9216    6.1976    0.3573 H       1  UNL1        0.0280
     75 H           0.1261    6.3100   -0.0699 H       1  UNL1        0.0280
     76 H           0.7435    6.1134    1.6590 H       1  UNL1        0.0280
     77 H           3.0522    3.2239   -3.1939 H       1  UNL1        0.2923
     78 H           1.7450   -0.8415   -2.3848 H       1  UNL1        0.1552
     79 H           2.7731   -5.0256   -1.3352 H       1  UNL1        0.0279
     80 H           2.5322   -4.9998   -3.0720 H       1  UNL1        0.0279
     81 H           4.0660   -4.2239   -2.4079 H       1  UNL1        0.0279
     82 H           0.5298   -4.4211   -1.8306 H       1  UNL1        0.0622
     83 H          -0.2489   -1.3289   -1.9560 H       1  UNL1        0.0615
     84 H          -1.7423   -3.7965   -1.4036 H       1  UNL1        0.0576
     85 H          -2.2487   -0.9429   -2.2532 H       1  UNL1        0.0365
     86 H          -1.7304   -0.3066   -0.2950 H       1  UNL1        0.0236
     87 H          -3.4547   -0.4419   -0.0721 H       1  UNL1        0.0236
     88 H          -2.2473   -1.6547    0.6870 H       1  UNL1        0.0236
     89 H          -3.8345   -3.4709   -1.8756 H       1  UNL1        0.0602
     90 H          -2.5927   -2.1988   -3.8440 H       1  UNL1        0.2098
     91 H          -5.1350   -0.7242   -2.0130 H       1  UNL1        0.0348
     92 H          -5.4740   -2.3204   -3.8994 H       1  UNL1        0.0234
     93 H          -6.9029   -1.7390   -2.9909 H       1  UNL1        0.0234
     94 H          -6.2502   -3.3919   -2.6743 H       1  UNL1        0.0234
     95 H          -5.7510   -3.5045   -0.9198 H       1  UNL1        0.0600
     96 H          -4.1222   -3.3927    0.2424 H       1  UNL1        0.2098
     97 H          -7.6661   -2.1995   -0.7226 H       1  UNL1        0.0359
     98 H          -6.8351   -2.6933    2.1059 H       1  UNL1        0.0234
     99 H          -6.4891   -3.9439    0.8887 H       1  UNL1        0.0234
    100 H          -8.1955   -3.3066    1.1567 H       1  UNL1        0.0234
    101 H          -6.4804   -0.7326    1.7235 H       1  UNL1        0.0741
    102 H         -10.1186   -1.4730    4.0456 H       1  UNL1        0.0342
    103 H         -10.4861    0.2319    3.5908 H       1  UNL1        0.0342
    104 H         -11.2869   -1.1106    2.7351 H       1  UNL1        0.0342
    105 H          -7.4064    1.2897    1.1299 H       1  UNL1        0.0362
    106 H          -8.8794    0.2127   -0.6239 H       1  UNL1        0.0234
    107 H          -8.4718    1.9166   -0.6470 H       1  UNL1        0.0234
    108 H          -7.6699    0.8730   -1.8313 H       1  UNL1        0.0234
    109 H           4.0970    0.4911   -0.0916 H       1  UNL1        0.0853
    110 H           6.2048   -1.5933   -0.4953 H       1  UNL1        0.0492
    111 H           7.7996   -0.9715   -1.0494 H       1  UNL1        0.0492
    112 H           7.9061   -1.8788    1.2932 H       1  UNL1        0.0443
    113 H           6.6055   -0.6926    1.7715 H       1  UNL1        0.0443
    114 H           9.1351    1.9829    0.6492 H       1  UNL1        0.0443
    115 H           8.7931    0.7389   -0.5506 H       1  UNL1        0.0443
    116 H           6.4545    1.9552    0.9713 H       1  UNL1        0.0492
    117 H           7.0861    2.4344   -0.7199 H       1  UNL1        0.0492
    118 H          10.3016   -0.3113    0.2777 H       1  UNL1        0.0462
    119 H           9.4743   -1.7463    2.8676 H       1  UNL1        0.0280
    120 H           9.7641   -2.5651    1.2728 H       1  UNL1        0.0280
    121 H          12.0013   -1.6879    1.1177 H       1  UNL1        0.0266
    122 H          11.8210   -2.5036    2.7794 H       1  UNL1        0.0266
    123 H          11.7505   -0.3229    3.8383 H       1  UNL1        0.0266
    124 H          12.6925    0.1518    2.3232 H       1  UNL1        0.0266
    125 H          10.8678    1.4934    1.7500 H       1  UNL1        0.0280
    126 H           9.9196    0.8297    3.0935 H       1  UNL1        0.0280
    127 H           1.5470   -0.7316    0.7951 H       1  UNL1        0.2922
@<TRIPOS>BOND
     1     1     2    1
     2     2     3    1
     3     3     4    1
     4     4     5    2
     5     5     6    1
     6     6     7    1
     7     7     8    1
     8     7     9    1
     9     9    10    1
    10    10    11   ar
    11    11    12    1
    12    12    13    2
    13    11    14   ar
    14    14    15   ar
    15    15    16   ar
    16    16    17    1
    17    16    18   ar
    18    18    19    1
    19    15    20   ar
    20    20    21    1
    21    20    22   ar
    22    22    23    1
    23    23    24   am
    24    24    25    2
    25    24    26    1
    26    26    27    1
    27    26    28    2
    28    28    29    1
    29    29    30    2
    30    30    31    1
    31    31    32    1
    32    31    33    1
    33    33    34    1
    34    33    35    1
    35    35    36    1
    36    35    37    1
    37    37    38    1
    38    37    39    1
    39    39    40    1
    40    39    41    1
    41    41    42    1
    42    42    43    1
    43    43    44    1
    44    43    45    2
    45    41    46    1
    46    46    47    1
    47    22    48   ar
    48    48    49    1
    49    49    50    2
    50    50    51    1
    51    51    52    1
    52    52    53    1
    53    53    54    1
    54    54    55    1
    55    55    56    1
    56    54    57    1
    57    57    58    1
    58    58    59    1
    59    59    60    1
    60    60    61    1
    61    48    62   ar
    62    62    63    1
    63    46     3    1
    64    56    51    1
    65    61    57    1
    66    12     7    1
    67    62    14   ar
    68    18    10   ar
    69     1    64    1
    70     1    65    1
    71     1    66    1
    72     3    67    1
    73     4    68    1
    74     5    69    1
    75     8    70    1
    76     8    71    1
    77     8    72    1
    78    17    73    1
    79    19    74    1
    80    19    75    1
    81    19    76    1
    82    21    77    1
    83    23    78    1
    84    27    79    1
    85    27    80    1
    86    27    81    1
    87    28    82    1
    88    29    83    1
    89    30    84    1
    90    31    85    1
    91    32    86    1
    92    32    87    1
    93    32    88    1
    94    33    89    1
    95    34    90    1
    96    35    91    1
    97    36    92    1
    98    36    93    1
    99    36    94    1
   100    37    95    1
   101    38    96    1
   102    39    97    1
   103    40    98    1
   104    40    99    1
   105    40   100    1
   106    41   101    1
   107    44   102    1
   108    44   103    1
   109    44   104    1
   110    46   105    1
   111    47   106    1
   112    47   107    1
   113    47   108    1
   114    49   109    1
   115    52   110    1
   116    52   111    1
   117    53   112    1
   118    53   113    1
   119    55   114    1
   120    55   115    1
   121    56   116    1
   122    56   117    1
   123    57   118    1
   124    58   119    1
   125    58   120    1
   126    59   121    1
   127    59   122    1
   128    60   123    1
   129    60   124    1
   130    61   125    1
   131    61   126    1
   132    63   127    1
