
     RDKit          3D

 64 67  0  0  0  0  0  0  0  0999 V2000
   10.0087    1.9575    0.0532 C   0  0  0  0  0  0  0  0  0  0  0  0
    9.4879    0.5563   -0.1746 C   0  0  0  0  0  0  0  0  0  0  0  0
    8.0131    0.5943   -0.5063 C   0  0  0  0  0  0  0  0  0  0  0  0
    7.3080    0.6715   -1.3957 N   0  0  0  0  0  0  0  0  0  0  0  0
    5.9819    0.6812   -1.3958 C   0  0  0  0  0  0  0  0  0  0  0  0
    5.3891    0.5896   -0.2102 C   0  0  0  0  0  0  0  0  0  0  0  0
    3.9282    0.5673    0.2097 C   0  0  2  0  0  0  0  0  0  0  0  0
    3.8921    1.0455    1.5440 O   0  0  0  0  0  0  0  0  0  0  0  0
    3.4618   -0.8276    0.2250 C   0  0  0  0  0  0  0  0  0  0  0  0
    2.0307   -1.0728   -0.1139 C   0  0  0  0  0  0  0  0  0  0  0  0
    1.2795    0.1876    0.1769 C   0  0  2  0  0  0  0  0  0  0  0  0
   -0.1394    0.0404    0.2415 N   0  0  0  0  0  0  0  0  0  0  0  0
   -0.5021   -0.8941    1.2918 C   0  0  0  0  0  0  0  0  0  0  0  0
   -1.1380   -1.8478    0.3288 C   0  0  0  0  0  0  0  0  0  0  0  0
   -2.5595   -1.9565    0.6097 N   0  0  0  0  0  0  0  0  0  0  0  0
   -3.1806   -3.2084    0.7468 C   0  0  0  0  0  0  0  0  0  0  0  0
   -2.4155   -4.2263    0.6165 O   0  0  0  0  0  0  0  0  0  0  0  0
   -4.6074   -3.4665    1.0254 C   0  0  0  0  0  0  0  0  0  0  0  0
   -5.3624   -2.2378    1.0944 N   0  0  0  0  0  0  0  0  0  0  0  0
   -5.4598   -1.4209   -0.0569 C   0  0  0  0  0  0  0  0  0  0  0  0
   -4.8925   -1.8007   -1.1040 O   0  0  0  0  0  0  0  0  0  0  0  0
   -6.1935   -0.1702   -0.0472 C   0  0  0  0  0  0  0  0  0  0  0  0
   -6.2306    0.5507   -1.2459 C   0  0  0  0  0  0  0  0  0  0  0  0
   -6.9043    1.7463   -1.3216 C   0  0  0  0  0  0  0  0  0  0  0  0
   -7.5458    2.2342   -0.2071 C   0  0  0  0  0  0  0  0  0  0  0  0
   -7.5042    1.5251    0.9561 C   0  0  0  0  0  0  0  0  0  0  0  0
   -8.1907    2.0340    2.1732 C   0  0  0  0  0  0  0  0  0  0  0  0
   -7.3347    1.9226    3.2623 F   0  0  0  0  0  0  0  0  0  0  0  0
   -9.3118    1.2988    2.4152 F   0  0  0  0  0  0  0  0  0  0  0  0
   -8.5115    3.3421    1.9821 F   0  0  0  0  0  0  0  0  0  0  0  0
   -6.8324    0.3129    1.0680 C   0  0  0  0  0  0  0  0  0  0  0  0
   -0.7532   -0.8470   -0.7090 C   0  0  0  0  0  0  0  0  0  0  0  0
    1.7331    1.1793   -0.8740 C   0  0  0  0  0  0  0  0  0  0  0  0
    3.1435    1.5384   -0.6014 C   0  0  0  0  0  0  0  0  0  0  0  0
    6.7796    0.4875    0.9254 S   0  0  0  0  0  0  0  0  0  0  0  0
   10.2915    2.4784   -0.8661 H   0  0  0  0  0  0  0  0  0  0  0  0
   10.9149    1.9150    0.7152 H   0  0  0  0  0  0  0  0  0  0  0  0
    9.2424    2.5383    0.6167 H   0  0  0  0  0  0  0  0  0  0  0  0
    9.9570    0.0408   -1.0173 H   0  0  0  0  0  0  0  0  0  0  0  0
    9.6475   -0.0323    0.7599 H   0  0  0  0  0  0  0  0  0  0  0  0
    5.4231    0.7622   -2.3458 H   0  0  0  0  0  0  0  0  0  0  0  0
    4.6982    1.5655    1.7522 H   0  0  0  0  0  0  0  0  0  0  0  0
    3.6443   -1.2870    1.2402 H   0  0  0  0  0  0  0  0  0  0  0  0
    4.1129   -1.4460   -0.4604 H   0  0  0  0  0  0  0  0  0  0  0  0
    1.6643   -1.9566    0.4094 H   0  0  0  0  0  0  0  0  0  0  0  0
    1.9347   -1.3124   -1.2137 H   0  0  0  0  0  0  0  0  0  0  0  0
    1.6323    0.6004    1.1577 H   0  0  0  0  0  0  0  0  0  0  0  0
   -1.2184   -0.3676    1.9836 H   0  0  0  0  0  0  0  0  0  0  0  0
    0.3472   -1.3470    1.8403 H   0  0  0  0  0  0  0  0  0  0  0  0
   -0.6644   -2.8455    0.2487 H   0  0  0  0  0  0  0  0  0  0  0  0
   -3.1066   -1.0825    0.7217 H   0  0  0  0  0  0  0  0  0  0  0  0
   -4.9787   -4.1081    0.1767 H   0  0  0  0  0  0  0  0  0  0  0  0
   -4.7658   -4.0777    1.9350 H   0  0  0  0  0  0  0  0  0  0  0  0
   -5.8366   -1.9374    1.9671 H   0  0  0  0  0  0  0  0  0  0  0  0
   -5.7137    0.1470   -2.1244 H   0  0  0  0  0  0  0  0  0  0  0  0
   -6.9267    2.3014   -2.2638 H   0  0  0  0  0  0  0  0  0  0  0  0
   -8.0966    3.1868   -0.2235 H   0  0  0  0  0  0  0  0  0  0  0  0
   -6.8067   -0.2357    1.9892 H   0  0  0  0  0  0  0  0  0  0  0  0
   -1.6646   -0.3425   -1.1436 H   0  0  0  0  0  0  0  0  0  0  0  0
   -0.1255   -1.1969   -1.5420 H   0  0  0  0  0  0  0  0  0  0  0  0
    1.0836    2.0646   -0.8314 H   0  0  0  0  0  0  0  0  0  0  0  0
    1.6068    0.6502   -1.8643 H   0  0  0  0  0  0  0  0  0  0  0  0
    3.6727    1.6718   -1.5780 H   0  0  0  0  0  0  0  0  0  0  0  0
    3.1638    2.5667   -0.1334 H   0  0  0  0  0  0  0  0  0  0  0  0
  1  2  1  0
  2  3  1  0
  3  4  2  0
  4  5  1  0
  5  6  2  0
  6  7  1  0
  7  8  1  1
  7  9  1  0
  9 10  1  0
 10 11  1  0
 11 12  1  0
 12 13  1  0
 13 14  1  0
 14 15  1  0
 15 16  1  0
 16 17  2  0
 16 18  1  0
 18 19  1  0
 19 20  1  0
 20 21  2  0
 20 22  1  0
 22 23  2  0
 23 24  1  0
 24 25  2  0
 25 26  1  0
 26 27  1  0
 27 28  1  0
 27 29  1  0
 27 30  1  0
 26 31  2  0
 14 32  1  0
 11 33  1  0
 33 34  1  0
  6 35  1  0
 35  3  1  0
 34  7  1  0
 32 12  1  0
 31 22  1  0
  1 36  1  0
  1 37  1  0
  1 38  1  0
  2 39  1  0
  2 40  1  0
  5 41  1  0
  8 42  1  0
  9 43  1  0
  9 44  1  0
 10 45  1  0
 10 46  1  0
 11 47  1  1
 13 48  1  0
 13 49  1  0
 14 50  1  0
 15 51  1  0
 18 52  1  0
 18 53  1  0
 19 54  1  0
 23 55  1  0
 24 56  1  0
 25 57  1  0
 31 58  1  0
 32 59  1  0
 32 60  1  0
 33 61  1  0
 33 62  1  0
 34 63  1  0
 34 64  1  0
M  END
$$$$
