@<TRIPOS>MOLECULE
*****
 64 67 0 0 0
SMALL
GASTEIGER

@<TRIPOS>ATOM
      1 C          10.0087    1.9575    0.0532 C.3     1  UNL1       -0.0593
      2 C           9.4879    0.5563   -0.1746 C.3     1  UNL1       -0.0068
      3 C           8.0131    0.5943   -0.5063 C.ar    1  UNL1        0.0783
      4 N           7.3080    0.6715   -1.3957 N.ar    1  UNL1       -0.2520
      5 C           5.9819    0.6812   -1.3958 C.ar    1  UNL1        0.0410
      6 C           5.3891    0.5896   -0.2102 C.ar    1  UNL1        0.0408
      7 C           3.9282    0.5673    0.2097 C.3     1  UNL1        0.0985
      8 O           3.8921    1.0455    1.5440 O.3     1  UNL1       -0.3834
      9 C           3.4618   -0.8276    0.2250 C.3     1  UNL1       -0.0179
     10 C           2.0307   -1.0728   -0.1139 C.3     1  UNL1       -0.0344
     11 C           1.2795    0.1876    0.1769 C.3     1  UNL1        0.0107
     12 N          -0.1394    0.0404    0.2415 N.3     1  UNL1       -0.2958
     13 C          -0.5021   -0.8941    1.2918 C.3     1  UNL1        0.0189
     14 C          -1.1380   -1.8478    0.3288 C.3     1  UNL1        0.0486
     15 N          -2.5595   -1.9565    0.6097 N.am    1  UNL1       -0.3087
     16 C          -3.1806   -3.2084    0.7468 C.2     1  UNL1        0.2305
     17 O          -2.4155   -4.2263    0.6165 O.2     1  UNL1       -0.2741
     18 C          -4.6074   -3.4665    1.0254 C.3     1  UNL1        0.0884
     19 N          -5.3624   -2.2378    1.0944 N.am    1  UNL1       -0.3028
     20 C          -5.4598   -1.4209   -0.0569 C.2     1  UNL1        0.2445
     21 O          -4.8925   -1.8007   -1.1040 O.2     1  UNL1       -0.2702
     22 C          -6.1935   -0.1702   -0.0472 C.ar    1  UNL1        0.0372
     23 C          -6.2306    0.5507   -1.2459 C.ar    1  UNL1       -0.0496
     24 C          -6.9043    1.7463   -1.3216 C.ar    1  UNL1       -0.0605
     25 C          -7.5458    2.2342   -0.2071 C.ar    1  UNL1       -0.0501
     26 C          -7.5042    1.5251    0.9561 C.ar    1  UNL1        0.0555
     27 C          -8.1907    2.0340    2.1732 C.3     1  UNL1        0.4174
     28 F          -7.3347    1.9226    3.2623 F       1  UNL1       -0.1659
     29 F          -9.3118    1.2988    2.4152 F       1  UNL1       -0.1659
     30 F          -8.5115    3.3421    1.9821 F       1  UNL1       -0.1659
     31 C          -6.8324    0.3129    1.0680 C.ar    1  UNL1       -0.0380
     32 C          -0.7532   -0.8470   -0.7090 C.3     1  UNL1        0.0189
     33 C           1.7331    1.1793   -0.8740 C.3     1  UNL1       -0.0344
     34 C           3.1435    1.5384   -0.6014 C.3     1  UNL1       -0.0179
     35 S           6.7796    0.4875    0.9254 S.2     1  UNL1       -0.0742
     36 H          10.2915    2.4784   -0.8661 H       1  UNL1        0.0233
     37 H          10.9149    1.9150    0.7152 H       1  UNL1        0.0233
     38 H           9.2424    2.5383    0.6167 H       1  UNL1        0.0233
     39 H           9.9570    0.0408   -1.0173 H       1  UNL1        0.0331
     40 H           9.6475   -0.0323    0.7599 H       1  UNL1        0.0331
     41 H           5.4231    0.7622   -2.3458 H       1  UNL1        0.0839
     42 H           4.6982    1.5655    1.7522 H       1  UNL1        0.2106
     43 H           3.6443   -1.2870    1.2402 H       1  UNL1        0.0297
     44 H           4.1129   -1.4460   -0.4604 H       1  UNL1        0.0297
     45 H           1.6643   -1.9566    0.4094 H       1  UNL1        0.0281
     46 H           1.9347   -1.3124   -1.2137 H       1  UNL1        0.0281
     47 H           1.6323    0.6004    1.1577 H       1  UNL1        0.0462
     48 H          -1.2184   -0.3676    1.9836 H       1  UNL1        0.0445
     49 H           0.3472   -1.3470    1.8403 H       1  UNL1        0.0445
     50 H          -0.6644   -2.8455    0.2487 H       1  UNL1        0.0523
     51 H          -3.1066   -1.0825    0.7217 H       1  UNL1        0.1491
     52 H          -4.9787   -4.1081    0.1767 H       1  UNL1        0.0558
     53 H          -4.7658   -4.0777    1.9350 H       1  UNL1        0.0558
     54 H          -5.8366   -1.9374    1.9671 H       1  UNL1        0.1495
     55 H          -5.7137    0.1470   -2.1244 H       1  UNL1        0.0625
     56 H          -6.9267    2.3014   -2.2638 H       1  UNL1        0.0618
     57 H          -8.0966    3.1868   -0.2235 H       1  UNL1        0.0623
     58 H          -6.8067   -0.2357    1.9892 H       1  UNL1        0.0631
     59 H          -1.6646   -0.3425   -1.1436 H       1  UNL1        0.0445
     60 H          -0.1255   -1.1969   -1.5420 H       1  UNL1        0.0445
     61 H           1.0836    2.0646   -0.8314 H       1  UNL1        0.0281
     62 H           1.6068    0.6502   -1.8643 H       1  UNL1        0.0281
     63 H           3.6727    1.6718   -1.5780 H       1  UNL1        0.0297
     64 H           3.1638    2.5667   -0.1334 H       1  UNL1        0.0297
@<TRIPOS>BOND
     1     1     2    1
     2     2     3    1
     3     3     4   ar
     4     4     5   ar
     5     5     6   ar
     6     6     7    1
     7     7     8    1
     8     7     9    1
     9     9    10    1
    10    10    11    1
    11    11    12    1
    12    12    13    1
    13    13    14    1
    14    14    15    1
    15    15    16   am
    16    16    17    2
    17    16    18    1
    18    18    19    1
    19    19    20   am
    20    20    21    2
    21    20    22    1
    22    22    23   ar
    23    23    24   ar
    24    24    25   ar
    25    25    26   ar
    26    26    27    1
    27    27    28    1
    28    27    29    1
    29    27    30    1
    30    26    31   ar
    31    14    32    1
    32    11    33    1
    33    33    34    1
    34     6    35   ar
    35    35     3   ar
    36    34     7    1
    37    32    12    1
    38    31    22   ar
    39     1    36    1
    40     1    37    1
    41     1    38    1
    42     2    39    1
    43     2    40    1
    44     5    41    1
    45     8    42    1
    46     9    43    1
    47     9    44    1
    48    10    45    1
    49    10    46    1
    50    11    47    1
    51    13    48    1
    52    13    49    1
    53    14    50    1
    54    15    51    1
    55    18    52    1
    56    18    53    1
    57    19    54    1
    58    23    55    1
    59    24    56    1
    60    25    57    1
    61    31    58    1
    62    32    59    1
    63    32    60    1
    64    33    61    1
    65    33    62    1
    66    34    63    1
    67    34    64    1
