@<TRIPOS>MOLECULE
*****
 56 59 0 0 0
SMALL
GASTEIGER

@<TRIPOS>ATOM
      1 C          -9.8745   -0.4300    2.3753 C.1     1  UNL1       -0.1158
      2 C          -9.7420    0.0503    1.2839 C.1     1  UNL1       -0.0647
      3 C          -9.5533    0.6518   -0.1222 C.3     1  UNL1        0.1513
      4 O          -8.3403    0.4047   -0.4873 O.3     1  UNL1       -0.4624
      5 C          -7.1199    0.1627   -0.8715 C.ar    1  UNL1        0.2344
      6 C          -6.3289   -0.4463    0.1392 C.ar    1  UNL1        0.0899
      7 N          -5.0931   -0.7574   -0.0767 N.ar    1  UNL1       -0.2459
      8 C          -4.4461   -0.5391   -1.2599 C.ar    1  UNL1        0.1172
      9 C          -3.0667   -0.9069   -1.3297 C.2     1  UNL1        0.1507
     10 F          -2.4562   -1.3668   -0.1730 F       1  UNL1       -0.2032
     11 C          -2.2609   -0.8945   -2.3695 C.2     1  UNL1       -0.0157
     12 C          -0.8688   -1.3146   -2.2106 C.ar    1  UNL1       -0.0036
     13 C          -0.2321   -2.1805   -3.0434 C.ar    1  UNL1        0.0379
     14 N           1.0546   -2.5757   -2.8136 N.ar    1  UNL1       -0.2267
     15 C           1.7750   -2.1460   -1.7670 C.ar    1  UNL1        0.2187
     16 F           3.0473   -2.6218   -1.5497 F       1  UNL1       -0.1835
     17 C           1.1707   -1.2595   -0.8929 C.ar    1  UNL1        0.0349
     18 C           1.9314   -0.7303    0.2714 C.3     1  UNL1        0.0950
     19 C           0.7757   -0.1581    1.2044 C.3     1  UNL1       -0.0351
     20 N           2.4074   -1.7829    1.1284 N.2     1  UNL1       -0.2520
     21 C           3.5688   -2.1143    1.4440 C.2     1  UNL1        0.1485
     22 N           3.8248   -3.2169    2.3334 N.pl3   1  UNL1       -0.3380
     23 S           4.9201   -1.1779    0.7517 S.3     1  UNL1       -0.0746
     24 C           4.2070    0.3807    0.1938 C.3     1  UNL1        0.1052
     25 C           4.8813    1.5664    0.8519 C.2     1  UNL1        0.2300
     26 O           4.3333    2.1116    1.8253 O.2     1  UNL1       -0.2743
     27 N           6.1249    2.0780    0.3906 N.am    1  UNL1       -0.3088
     28 C           6.8403    3.1848    0.9211 C.3     1  UNL1        0.0722
     29 C           7.2630    3.1144    2.3429 C.3     1  UNL1        0.2545
     30 F           7.9470    4.3130    2.6115 F       1  UNL1       -0.2076
     31 F           6.2028    3.1049    3.2136 F       1  UNL1       -0.2076
     32 C           3.6788    0.5070   -1.1881 C.3     1  UNL1       -0.0220
     33 C           2.7594    0.4300    0.0179 C.3     1  UNL1        0.0135
     34 C          -0.1369   -0.8489   -1.1139 C.ar    1  UNL1       -0.0433
     35 C          -5.2023    0.0457   -2.2359 C.ar    1  UNL1        0.0596
     36 N          -6.4879    0.3804   -2.0401 N.ar    1  UNL1       -0.2178
     37 H          -9.9826   -0.8315    3.3297 H       1  UNL1        0.1229
     38 H         -10.4185    0.2596   -0.7291 H       1  UNL1        0.0837
     39 H          -9.8059    1.7341    0.0853 H       1  UNL1        0.0837
     40 H          -6.7863   -0.6413    1.0944 H       1  UNL1        0.0884
     41 H          -2.6291   -0.5816   -3.3099 H       1  UNL1        0.0653
     42 H          -0.7816   -2.5592   -3.9176 H       1  UNL1        0.0836
     43 H           1.3061    0.0491    2.1814 H       1  UNL1        0.0256
     44 H           0.5146    0.8305    0.7946 H       1  UNL1        0.0256
     45 H          -0.0210   -0.8879    1.2805 H       1  UNL1        0.0256
     46 H           3.2270   -4.0653    2.2865 H       1  UNL1        0.1442
     47 H           4.6290   -3.1132    3.0145 H       1  UNL1        0.1442
     48 H           6.5110    1.5211   -0.4376 H       1  UNL1        0.1489
     49 H           6.3598    4.1870    0.7386 H       1  UNL1        0.0518
     50 H           7.7864    3.2698    0.2824 H       1  UNL1        0.0518
     51 H           7.9996    2.3141    2.5579 H       1  UNL1        0.1034
     52 H           3.8912    1.5230   -1.6369 H       1  UNL1        0.0287
     53 H           3.7563   -0.2621   -1.9359 H       1  UNL1        0.0287
     54 H           2.3185    1.4815    0.2316 H       1  UNL1        0.0346
     55 H          -0.6498   -0.1387   -0.4630 H       1  UNL1        0.0629
     56 H          -4.7282    0.2380   -3.2027 H       1  UNL1        0.0853
@<TRIPOS>BOND
     1     1     2    3
     2     2     3    1
     3     3     4    1
     4     4     5    1
     5     5     6   ar
     6     6     7   ar
     7     7     8   ar
     8     8     9    1
     9     9    10    1
    10     9    11    2
    11    11    12    1
    12    12    13   ar
    13    13    14   ar
    14    14    15   ar
    15    15    16    1
    16    15    17   ar
    17    17    18    1
    18    18    19    1
    19    18    20    1
    20    20    21    2
    21    21    22    1
    22    21    23    1
    23    23    24    1
    24    24    25    1
    25    25    26    2
    26    25    27   am
    27    27    28    1
    28    28    29    1
    29    29    30    1
    30    29    31    1
    31    24    32    1
    32    32    33    1
    33    17    34   ar
    34     8    35   ar
    35    35    36   ar
    36    36     5   ar
    37    34    12   ar
    38    33    18    1
    39    33    24    1
    40     1    37    1
    41     3    38    1
    42     3    39    1
    43     6    40    1
    44    11    41    1
    45    13    42    1
    46    19    43    1
    47    19    44    1
    48    19    45    1
    49    22    46    1
    50    22    47    1
    51    27    48    1
    52    28    49    1
    53    28    50    1
    54    29    51    1
    55    32    52    1
    56    32    53    1
    57    33    54    1
    58    34    55    1
    59    35    56    1
