@<TRIPOS>MOLECULE
*****
 57 61 0 0 0
SMALL
GASTEIGER

@<TRIPOS>ATOM
      1 C          -3.6134    2.8296    2.6864 C.3     1  UNL1       -0.0370
      2 C          -3.6234    1.9740    1.4696 C.ar    1  UNL1       -0.0144
      3 C          -4.1122    2.4626    0.2762 C.ar    1  UNL1       -0.0540
      4 C          -4.1198    1.6769   -0.8492 C.ar    1  UNL1       -0.0334
      5 C          -3.6490    0.3626   -0.8775 C.ar    1  UNL1        0.1010
      6 N          -3.6929   -0.3929   -2.0791 N.ar    1  UNL1       -0.1495
      7 N          -3.9354   -1.6634   -2.3126 N.ar    1  UNL1       -0.1556
      8 C          -3.8905   -1.9600   -3.6087 C.ar    1  UNL1        0.0697
      9 C          -3.5968   -0.7940   -4.2518 C.ar    1  UNL1        0.0697
     10 N          -3.4800    0.1607   -3.2786 N.ar    1  UNL1       -0.1556
     11 C          -3.1589   -0.1272    0.3198 C.ar    1  UNL1        0.0993
     12 C          -2.6540   -1.4812    0.3627 C.2     1  UNL1        0.2519
     13 O          -3.5338   -2.3883    0.1491 O.2     1  UNL1       -0.2698
     14 N          -1.3386   -1.9057    0.6053 N.am    1  UNL1       -0.2897
     15 C          -1.0644   -3.3506    0.5743 C.3     1  UNL1        0.0388
     16 C          -0.1742   -3.7782    1.7123 C.3     1  UNL1        0.0635
     17 O           0.9522   -3.0020    1.8358 O.3     1  UNL1       -0.3764
     18 C           1.0341   -1.9948    0.8746 C.3     1  UNL1        0.0666
     19 C          -0.2000   -1.0774    0.9093 C.3     1  UNL1        0.0537
     20 C           0.0158   -0.0410   -0.1673 C.3     1  UNL1       -0.0068
     21 C           1.2033    0.8038    0.2149 C.ar    1  UNL1       -0.0449
     22 C           0.9961    1.9071    1.0373 C.ar    1  UNL1       -0.0585
     23 C           2.0300    2.7065    1.4100 C.ar    1  UNL1       -0.0608
     24 C           3.3252    2.4197    0.9621 C.ar    1  UNL1       -0.0510
     25 C           3.5566    1.3343    0.1478 C.ar    1  UNL1        0.0194
     26 C           4.8867    1.0044   -0.3196 C.ar    1  UNL1        0.1597
     27 N           5.9542    1.7557   -0.0091 N.ar    1  UNL1       -0.2357
     28 C           7.1872    1.4480   -0.4289 C.ar    1  UNL1        0.0314
     29 C           7.4419    0.3380   -1.2083 C.ar    1  UNL1       -0.0254
     30 C           6.3360   -0.4403   -1.5295 C.ar    1  UNL1        0.0314
     31 N           5.1152   -0.0975   -1.0892 N.ar    1  UNL1       -0.2357
     32 C           2.4816    0.5508   -0.2065 C.ar    1  UNL1       -0.0478
     33 C          -3.1545    0.6825    1.4663 C.ar    1  UNL1        0.1405
     34 F          -2.6840    0.1932    2.6387 F       1  UNL1       -0.2044
     35 H          -3.2416    2.2345    3.5366 H       1  UNL1        0.0278
     36 H          -4.6397    3.1755    2.9581 H       1  UNL1        0.0278
     37 H          -3.0249    3.7555    2.5163 H       1  UNL1        0.0278
     38 H          -4.4886    3.4873    0.2694 H       1  UNL1        0.0622
     39 H          -4.5105    2.0642   -1.8062 H       1  UNL1        0.0640
     40 H          -4.0475   -2.9145   -4.1130 H       1  UNL1        0.0864
     41 H          -3.4773   -0.6289   -5.3149 H       1  UNL1        0.0864
     42 H          -2.0157   -3.9234    0.6761 H       1  UNL1        0.0487
     43 H          -0.5662   -3.5290   -0.3963 H       1  UNL1        0.0487
     44 H           0.0636   -4.8520    1.5762 H       1  UNL1        0.0575
     45 H          -0.7367   -3.6953    2.6754 H       1  UNL1        0.0575
     46 H           1.9626   -1.4402    1.0960 H       1  UNL1        0.0578
     47 H           1.1006   -2.3824   -0.1592 H       1  UNL1        0.0578
     48 H          -0.2471   -0.6043    1.9156 H       1  UNL1        0.0526
     49 H          -0.8522    0.6047   -0.2731 H       1  UNL1        0.0332
     50 H           0.2671   -0.6108   -1.0983 H       1  UNL1        0.0332
     51 H          -0.0417    2.0840    1.3603 H       1  UNL1        0.0620
     52 H           1.8666    3.5672    2.0549 H       1  UNL1        0.0618
     53 H           4.1782    3.0270    1.2331 H       1  UNL1        0.0625
     54 H           8.0513    2.0730   -0.1700 H       1  UNL1        0.0831
     55 H           8.4013    0.0372   -1.5757 H       1  UNL1        0.0648
     56 H           6.4950   -1.3321   -2.1480 H       1  UNL1        0.0831
     57 H           2.6634   -0.3131   -0.8646 H       1  UNL1        0.0627
@<TRIPOS>BOND
     1     1     2    1
     2     2     3   ar
     3     3     4   ar
     4     4     5   ar
     5     5     6    1
     6     6     7   ar
     7     7     8   ar
     8     8     9   ar
     9     9    10   ar
    10     5    11   ar
    11    11    12    1
    12    12    13    2
    13    12    14   am
    14    14    15    1
    15    15    16    1
    16    16    17    1
    17    17    18    1
    18    18    19    1
    19    19    20    1
    20    20    21    1
    21    21    22   ar
    22    22    23   ar
    23    23    24   ar
    24    24    25   ar
    25    25    26    1
    26    26    27   ar
    27    27    28   ar
    28    28    29   ar
    29    29    30   ar
    30    30    31   ar
    31    25    32   ar
    32    11    33   ar
    33    33    34    1
    34    33     2   ar
    35    10     6   ar
    36    19    14    1
    37    32    21   ar
    38    31    26   ar
    39     1    35    1
    40     1    36    1
    41     1    37    1
    42     3    38    1
    43     4    39    1
    44     8    40    1
    45     9    41    1
    46    15    42    1
    47    15    43    1
    48    16    44    1
    49    16    45    1
    50    18    46    1
    51    18    47    1
    52    19    48    1
    53    20    49    1
    54    20    50    1
    55    22    51    1
    56    23    52    1
    57    24    53    1
    58    28    54    1
    59    29    55    1
    60    30    56    1
    61    32    57    1
