@<TRIPOS>MOLECULE
*****
 37 39 0 0 0
SMALL
GASTEIGER

@<TRIPOS>ATOM
      1 C          -4.6842   -0.6525    0.9645 C.3     1  UNL1        0.0032
      2 N          -4.4943    0.4123   -0.0378 N.am    1  UNL1       -0.3024
      3 C          -5.8041    0.8990   -0.3953 C.3     1  UNL1        0.0032
      4 C          -3.2809    0.8635   -0.5456 C.2     1  UNL1        0.2624
      5 O          -3.5719    1.7997   -1.3984 O.2     1  UNL1       -0.2684
      6 C          -1.8511    0.8458   -0.6311 C.ar    1  UNL1        0.1026
      7 C          -1.3323   -0.4461   -0.7558 C.ar    1  UNL1       -0.0226
      8 C           0.0630   -0.3420   -0.8454 C.ar    1  UNL1        0.0207
      9 C           0.2637    1.0052   -0.7649 C.ar    1  UNL1        0.0116
     10 N          -0.8583    1.7344   -0.6371 N.ar    1  UNL1       -0.3565
     11 C           1.0746   -1.3816   -0.9609 C.ar    1  UNL1        0.1016
     12 N           0.9263   -2.5530   -1.6136 N.ar    1  UNL1       -0.1732
     13 N           2.0191   -3.2967   -1.4984 N.ar    1  UNL1       -0.2835
     14 C           2.9007   -2.5892   -0.7529 C.ar    1  UNL1        0.0306
     15 C           2.3173   -1.3700   -0.4038 C.ar    1  UNL1        0.0272
     16 C           3.0390   -0.3636    0.3764 C.ar    1  UNL1       -0.0143
     17 C           3.9560    0.2266   -0.5216 C.ar    1  UNL1       -0.0539
     18 C           4.8581    1.2451   -0.1913 C.ar    1  UNL1       -0.0612
     19 C           4.7877    1.6508    1.1227 C.ar    1  UNL1       -0.0617
     20 C           3.9138    1.1100    2.0300 C.ar    1  UNL1       -0.0612
     21 C           3.0355    0.1036    1.6698 C.ar    1  UNL1       -0.0539
     22 H          -3.7113   -1.0561    1.2420 H       1  UNL1        0.0428
     23 H          -5.4181   -1.4129    0.6086 H       1  UNL1        0.0428
     24 H          -5.1788   -0.1627    1.8296 H       1  UNL1        0.0428
     25 H          -6.3583    1.1946    0.5261 H       1  UNL1        0.0428
     26 H          -5.7426    1.7868   -1.0676 H       1  UNL1        0.0428
     27 H          -6.4019    0.1007   -0.8875 H       1  UNL1        0.0428
     28 H          -1.7300   -1.4636   -0.7961 H       1  UNL1        0.0647
     29 H           1.1916    1.5596   -0.7808 H       1  UNL1        0.0813
     30 H          -1.0559    2.7535   -0.5508 H       1  UNL1        0.1655
     31 H           2.0810   -4.2457   -1.9496 H       1  UNL1        0.1882
     32 H           3.8816   -2.9890   -0.5201 H       1  UNL1        0.0830
     33 H           4.0933   -0.0167   -1.5835 H       1  UNL1        0.0624
     34 H           5.5577    1.6975   -0.8689 H       1  UNL1        0.0618
     35 H           5.4352    2.4384    1.5288 H       1  UNL1        0.0618
     36 H           3.7980    1.3708    3.0731 H       1  UNL1        0.0618
     37 H           2.2803   -0.4565    2.2030 H       1  UNL1        0.0624
@<TRIPOS>BOND
     1     1     2    1
     2     2     3    1
     3     2     4   am
     4     4     5    2
     5     4     6    1
     6     6     7   ar
     7     7     8   ar
     8     8     9   ar
     9     9    10   ar
    10     8    11    1
    11    11    12   ar
    12    12    13   ar
    13    13    14   ar
    14    14    15   ar
    15    15    16    1
    16    16    17   ar
    17    17    18   ar
    18    18    19   ar
    19    19    20   ar
    20    20    21   ar
    21    10     6   ar
    22    15    11   ar
    23    21    16   ar
    24     1    22    1
    25     1    23    1
    26     1    24    1
    27     3    25    1
    28     3    26    1
    29     3    27    1
    30     7    28    1
    31     9    29    1
    32    10    30    1
    33    13    31    1
    34    14    32    1
    35    17    33    1
    36    18    34    1
    37    19    35    1
    38    20    36    1
    39    21    37    1
