
     RDKit          3D

 37 39  0  0  0  0  0  0  0  0999 V2000
   -4.6842   -0.6525    0.9645 C   0  0  0  0  0  0  0  0  0  0  0  0
   -4.4943    0.4123   -0.0378 N   0  0  0  0  0  0  0  0  0  0  0  0
   -5.8041    0.8990   -0.3953 C   0  0  0  0  0  0  0  0  0  0  0  0
   -3.2809    0.8635   -0.5456 C   0  0  0  0  0  0  0  0  0  0  0  0
   -3.5719    1.7997   -1.3984 O   0  0  0  0  0  0  0  0  0  0  0  0
   -1.8511    0.8458   -0.6311 C   0  0  0  0  0  0  0  0  0  0  0  0
   -1.3323   -0.4461   -0.7558 C   0  0  0  0  0  0  0  0  0  0  0  0
    0.0630   -0.3420   -0.8454 C   0  0  0  0  0  0  0  0  0  0  0  0
    0.2637    1.0052   -0.7649 C   0  0  0  0  0  0  0  0  0  0  0  0
   -0.8583    1.7344   -0.6371 N   0  0  0  0  0  0  0  0  0  0  0  0
    1.0746   -1.3816   -0.9609 C   0  0  0  0  0  0  0  0  0  0  0  0
    0.9263   -2.5530   -1.6136 N   0  0  0  0  0  0  0  0  0  0  0  0
    2.0191   -3.2967   -1.4984 N   0  0  0  0  0  0  0  0  0  0  0  0
    2.9007   -2.5892   -0.7529 C   0  0  0  0  0  0  0  0  0  0  0  0
    2.3173   -1.3700   -0.4038 C   0  0  0  0  0  0  0  0  0  0  0  0
    3.0390   -0.3636    0.3764 C   0  0  0  0  0  0  0  0  0  0  0  0
    3.9560    0.2266   -0.5216 C   0  0  0  0  0  0  0  0  0  0  0  0
    4.8581    1.2451   -0.1913 C   0  0  0  0  0  0  0  0  0  0  0  0
    4.7877    1.6508    1.1227 C   0  0  0  0  0  0  0  0  0  0  0  0
    3.9138    1.1100    2.0300 C   0  0  0  0  0  0  0  0  0  0  0  0
    3.0355    0.1036    1.6698 C   0  0  0  0  0  0  0  0  0  0  0  0
   -3.7113   -1.0561    1.2420 H   0  0  0  0  0  0  0  0  0  0  0  0
   -5.4181   -1.4129    0.6086 H   0  0  0  0  0  0  0  0  0  0  0  0
   -5.1788   -0.1627    1.8296 H   0  0  0  0  0  0  0  0  0  0  0  0
   -6.3583    1.1946    0.5261 H   0  0  0  0  0  0  0  0  0  0  0  0
   -5.7426    1.7868   -1.0676 H   0  0  0  0  0  0  0  0  0  0  0  0
   -6.4019    0.1007   -0.8875 H   0  0  0  0  0  0  0  0  0  0  0  0
   -1.7300   -1.4636   -0.7961 H   0  0  0  0  0  0  0  0  0  0  0  0
    1.1916    1.5596   -0.7808 H   0  0  0  0  0  0  0  0  0  0  0  0
   -1.0559    2.7535   -0.5508 H   0  0  0  0  0  0  0  0  0  0  0  0
    2.0810   -4.2457   -1.9496 H   0  0  0  0  0  0  0  0  0  0  0  0
    3.8816   -2.9890   -0.5201 H   0  0  0  0  0  0  0  0  0  0  0  0
    4.0933   -0.0167   -1.5835 H   0  0  0  0  0  0  0  0  0  0  0  0
    5.5577    1.6975   -0.8689 H   0  0  0  0  0  0  0  0  0  0  0  0
    5.4352    2.4384    1.5288 H   0  0  0  0  0  0  0  0  0  0  0  0
    3.7980    1.3708    3.0731 H   0  0  0  0  0  0  0  0  0  0  0  0
    2.2803   -0.4565    2.2030 H   0  0  0  0  0  0  0  0  0  0  0  0
  1  2  1  0
  2  3  1  0
  2  4  1  0
  4  5  2  0
  4  6  1  0
  6  7  2  0
  7  8  1  0
  8  9  2  0
  9 10  1  0
  8 11  1  0
 11 12  2  0
 12 13  1  0
 13 14  1  0
 14 15  2  0
 15 16  1  0
 16 17  2  0
 17 18  1  0
 18 19  2  0
 19 20  1  0
 20 21  2  0
 10  6  1  0
 15 11  1  0
 21 16  1  0
  1 22  1  0
  1 23  1  0
  1 24  1  0
  3 25  1  0
  3 26  1  0
  3 27  1  0
  7 28  1  0
  9 29  1  0
 10 30  1  0
 13 31  1  0
 14 32  1  0
 17 33  1  0
 18 34  1  0
 19 35  1  0
 20 36  1  0
 21 37  1  0
M  END
$$$$
