@<TRIPOS>MOLECULE
*****
 56 58 0 0 0
SMALL
GASTEIGER

@<TRIPOS>ATOM
      1 C          -2.0935   -1.8523    2.2377 C.3     1  UNL1       -0.0466
      2 C          -1.3939   -0.5442    1.9359 C.3     1  UNL1        0.0418
      3 C          -2.3686    0.5708    1.6612 C.3     1  UNL1        0.0160
      4 N          -2.9854    0.5292    0.3870 N.3     1  UNL1       -0.2986
      5 C          -4.3217    0.0195    0.4656 C.3     1  UNL1        0.0129
      6 C          -5.0214   -0.0431   -0.8760 C.3     1  UNL1        0.0594
      7 C          -5.1539    1.2704   -1.5585 C.2     1  UNL1        0.2179
      8 N          -4.6531    2.4592   -0.9625 N.am    1  UNL1       -0.3288
      9 O          -5.7108    1.3611   -2.6767 O.2     1  UNL1       -0.2754
     10 C          -6.3469   -0.7847   -0.8058 C.3     1  UNL1       -0.0369
     11 C          -5.1879   -1.3036   -1.6056 C.3     1  UNL1       -0.0369
     12 C          -2.2214    0.0011   -0.6735 C.3     1  UNL1        0.0134
     13 C          -0.7776   -0.2415   -0.3874 C.3     1  UNL1        0.0336
     14 N          -0.4326   -0.5937    0.9173 N.3     1  UNL1       -0.1714
     15 S           0.8650   -1.6556    1.1143 S.O2    1  UNL1        0.0612
     16 O           0.5603   -2.9225    0.3256 O.2     1  UNL1       -0.1528
     17 O           1.1237   -2.0675    2.5109 O.2     1  UNL1       -0.1528
     18 C           2.3068   -0.8889    0.4508 C.ar    1  UNL1        0.1055
     19 C           2.6482   -1.0621   -0.8718 C.ar    1  UNL1       -0.0350
     20 C           3.7648   -0.4773   -1.4181 C.ar    1  UNL1       -0.0537
     21 C           4.6221    0.3323   -0.6534 C.ar    1  UNL1       -0.0077
     22 C           5.8169    0.9423   -1.2882 C.3     1  UNL1        0.1828
     23 C           7.0301    0.0159   -1.1600 C.3     1  UNL1       -0.0233
     24 O           5.6253    1.0889   -2.6752 O.3     1  UNL1       -0.3758
     25 C           6.2097    2.2763   -0.7542 C.3     1  UNL1        0.4221
     26 F           5.1328    3.1537   -0.9405 F       1  UNL1       -0.1673
     27 F           7.2223    2.7444   -1.6230 F       1  UNL1       -0.1673
     28 F           6.6581    2.2639    0.5334 F       1  UNL1       -0.1673
     29 C           4.2658    0.4936    0.6636 C.ar    1  UNL1       -0.0537
     30 C           3.1277   -0.1025    1.2203 C.ar    1  UNL1       -0.0350
     31 H          -2.9498   -1.6541    2.9032 H       1  UNL1        0.0246
     32 H          -2.3481   -2.3993    1.3192 H       1  UNL1        0.0246
     33 H          -1.3709   -2.4729    2.8412 H       1  UNL1        0.0246
     34 H          -0.8734   -0.2585    2.8994 H       1  UNL1        0.0490
     35 H          -1.8212    1.5306    1.7524 H       1  UNL1        0.0442
     36 H          -3.1617    0.5486    2.4575 H       1  UNL1        0.0442
     37 H          -4.9700    0.6767    1.1121 H       1  UNL1        0.0437
     38 H          -4.2648   -1.0136    0.9131 H       1  UNL1        0.0437
     39 H          -4.8736    2.6503    0.0370 H       1  UNL1        0.1449
     40 H          -4.0740    3.1391   -1.5031 H       1  UNL1        0.1449
     41 H          -7.2309   -0.3867   -1.3398 H       1  UNL1        0.0276
     42 H          -6.6140   -1.3427    0.1087 H       1  UNL1        0.0276
     43 H          -5.3015   -1.2221   -2.7207 H       1  UNL1        0.0276
     44 H          -4.6900   -2.2329   -1.2837 H       1  UNL1        0.0276
     45 H          -2.6973   -0.9245   -1.0583 H       1  UNL1        0.0440
     46 H          -2.2706    0.7247   -1.5351 H       1  UNL1        0.0440
     47 H          -0.1775    0.6694   -0.6897 H       1  UNL1        0.0457
     48 H          -0.4293   -1.0385   -1.0958 H       1  UNL1        0.0457
     49 H           1.9745   -1.6946   -1.4606 H       1  UNL1        0.0637
     50 H           4.0266   -0.6170   -2.4552 H       1  UNL1        0.0622
     51 H           7.4754    0.1301   -0.1644 H       1  UNL1        0.0263
     52 H           7.7276    0.1727   -1.9992 H       1  UNL1        0.0263
     53 H           6.6304   -1.0174   -1.2263 H       1  UNL1        0.0263
     54 H           6.1644    1.8718   -3.0011 H       1  UNL1        0.2110
     55 H           4.9031    1.1157    1.3036 H       1  UNL1        0.0622
     56 H           2.9054    0.0619    2.2509 H       1  UNL1        0.0637
@<TRIPOS>BOND
     1     1     2    1
     2     2     3    1
     3     3     4    1
     4     4     5    1
     5     5     6    1
     6     6     7    1
     7     7     8   am
     8     7     9    2
     9     6    10    1
    10    10    11    1
    11     4    12    1
    12    12    13    1
    13    13    14    1
    14    14    15    1
    15    15    16    2
    16    15    17    2
    17    15    18    1
    18    18    19   ar
    19    19    20   ar
    20    20    21   ar
    21    21    22    1
    22    22    23    1
    23    22    24    1
    24    22    25    1
    25    25    26    1
    26    25    27    1
    27    25    28    1
    28    21    29   ar
    29    29    30   ar
    30    14     2    1
    31    30    18   ar
    32    11     6    1
    33     1    31    1
    34     1    32    1
    35     1    33    1
    36     2    34    1
    37     3    35    1
    38     3    36    1
    39     5    37    1
    40     5    38    1
    41     8    39    1
    42     8    40    1
    43    10    41    1
    44    10    42    1
    45    11    43    1
    46    11    44    1
    47    12    45    1
    48    12    46    1
    49    13    47    1
    50    13    48    1
    51    19    49    1
    52    20    50    1
    53    23    51    1
    54    23    52    1
    55    23    53    1
    56    24    54    1
    57    29    55    1
    58    30    56    1
