@<TRIPOS>MOLECULE
*****
 58 62 0 0 0
SMALL
GASTEIGER

@<TRIPOS>ATOM
      1 C          -5.5085   -1.1057    0.6916 C.3     1  UNL1        0.0381
      2 P          -4.9032    0.4425   -0.0314 P.3     1  UNL1        0.3298
      3 O          -6.1506    1.2398   -0.4478 O.2     1  UNL1       -0.2587
      4 O          -4.0760    1.3834    1.0339 O.3     1  UNL1       -0.3080
      5 C          -2.8633    1.0263    1.4559 C.3     1  UNL1        0.0575
      6 C          -2.1610   -0.1220    0.8135 C.3     1  UNL1       -0.0208
      7 C          -1.9293   -0.0176   -0.6336 C.3     1  UNL1        0.0050
      8 C          -1.9527    1.3863   -1.1840 C.3     1  UNL1       -0.0447
      9 C          -0.6373    2.0832   -1.1383 C.3     1  UNL1       -0.0501
     10 C           0.3949    1.4262   -0.2753 C.3     1  UNL1       -0.0227
     11 C           0.5976   -0.0208   -0.5733 C.3     1  UNL1        0.1302
     12 S           1.8611   -0.1293   -1.8458 S.O2    1  UNL1        0.0072
     13 O           1.3678    0.6890   -3.0082 O.2     1  UNL1       -0.1685
     14 O           2.0753   -1.5614   -2.2422 O.2     1  UNL1       -0.1685
     15 C           3.3615    0.5798   -1.3020 C.ar    1  UNL1        0.0893
     16 C           3.6852    1.8975   -1.5241 C.ar    1  UNL1       -0.0355
     17 C           4.8688    2.4589   -1.0933 C.ar    1  UNL1       -0.0416
     18 C           5.7758    1.6774   -0.4094 C.ar    1  UNL1        0.0411
     19 CL          7.2830    2.3753    0.1441 Cl      1  UNL1       -0.0835
     20 C           5.4441    0.3535   -0.1897 C.ar    1  UNL1       -0.0416
     21 C           4.2620   -0.2050   -0.6205 C.ar    1  UNL1       -0.0355
     22 C           1.1231   -0.7978    0.5722 C.ar    1  UNL1        0.0600
     23 C           1.9094   -0.2023    1.5328 C.ar    1  UNL1        0.1323
     24 F           2.2343    1.0899    1.4844 F       1  UNL1       -0.2050
     25 C           2.4068   -0.9376    2.6151 C.ar    1  UNL1       -0.0232
     26 C           2.1269   -2.2664    2.7500 C.ar    1  UNL1       -0.0201
     27 C           1.3499   -2.8744    1.8092 C.ar    1  UNL1        0.1653
     28 F           1.0701   -4.1984    1.9422 F       1  UNL1       -0.2016
     29 C           0.8569   -2.1338    0.7315 C.ar    1  UNL1        0.1635
     30 O           0.0838   -2.7922   -0.1813 O.3     1  UNL1       -0.4883
     31 C          -0.6532   -2.1371   -1.1473 C.3     1  UNL1        0.0955
     32 C          -0.6479   -0.6557   -1.1495 C.3     1  UNL1        0.0308
     33 C          -3.0668   -0.7698   -1.3360 C.3     1  UNL1        0.0631
     34 O          -4.0844    0.1681   -1.4864 O.3     1  UNL1       -0.3075
     35 H          -6.6097   -1.0844    0.8741 H       1  UNL1        0.0352
     36 H          -5.3423   -1.9787    0.0181 H       1  UNL1        0.0352
     37 H          -5.0627   -1.2863    1.7130 H       1  UNL1        0.0352
     38 H          -2.1764    1.9211    1.4051 H       1  UNL1        0.0565
     39 H          -2.9093    0.7982    2.5620 H       1  UNL1        0.0565
     40 H          -1.2166   -0.2617    1.3791 H       1  UNL1        0.0294
     41 H          -2.7684   -1.0453    1.0529 H       1  UNL1        0.0294
     42 H          -2.7153    2.0291   -0.7522 H       1  UNL1        0.0271
     43 H          -2.2185    1.2801   -2.2783 H       1  UNL1        0.0271
     44 H          -0.1749    2.2248   -2.1565 H       1  UNL1        0.0266
     45 H          -0.7520    3.1377   -0.7518 H       1  UNL1        0.0266
     46 H           0.1199    1.6316    0.7800 H       1  UNL1        0.0290
     47 H           1.3462    1.9770   -0.4342 H       1  UNL1        0.0290
     48 H           2.9873    2.5506   -2.0684 H       1  UNL1        0.0637
     49 H           5.0937    3.5155   -1.2887 H       1  UNL1        0.0633
     50 H           6.1922   -0.2326    0.3572 H       1  UNL1        0.0633
     51 H           4.0226   -1.2389   -0.4390 H       1  UNL1        0.0637
     52 H           3.0272   -0.4537    3.3671 H       1  UNL1        0.0647
     53 H           2.5308   -2.8010    3.6022 H       1  UNL1        0.0648
     54 H          -0.2891   -2.4993   -2.1621 H       1  UNL1        0.0700
     55 H          -1.7195   -2.4690   -1.1394 H       1  UNL1        0.0700
     56 H          -0.6367   -0.3312   -2.2410 H       1  UNL1        0.0365
     57 H          -3.4556   -1.5607   -0.6343 H       1  UNL1        0.0570
     58 H          -2.7768   -1.1731   -2.3036 H       1  UNL1        0.0570
@<TRIPOS>BOND
     1     1     2    1
     2     2     3    2
     3     2     4    1
     4     4     5    1
     5     5     6    1
     6     7     6    1
     7     7     8    1
     8     8     9    1
     9     9    10    1
    10    10    11    1
    11    11    12    1
    12    12    13    2
    13    12    14    2
    14    12    15    1
    15    15    16   ar
    16    16    17   ar
    17    17    18   ar
    18    18    19    1
    19    18    20   ar
    20    20    21   ar
    21    11    22    1
    22    22    23   ar
    23    23    24    1
    24    23    25   ar
    25    25    26   ar
    26    26    27   ar
    27    27    28    1
    28    27    29   ar
    29    29    30    1
    30    30    31    1
    31    31    32    1
    32     7    33    1
    33    33    34    1
    34    34     2    1
    35    32     7    1
    36    32    11    1
    37    21    15   ar
    38    29    22   ar
    39     1    35    1
    40     1    36    1
    41     1    37    1
    42     5    38    1
    43     5    39    1
    44     6    40    1
    45     6    41    1
    46     8    42    1
    47     8    43    1
    48     9    44    1
    49     9    45    1
    50    10    46    1
    51    10    47    1
    52    16    48    1
    53    17    49    1
    54    20    50    1
    55    21    51    1
    56    25    52    1
    57    26    53    1
    58    31    54    1
    59    31    55    1
    60    32    56    1
    61    33    57    1
    62    33    58    1
