@<TRIPOS>MOLECULE
*****
 60 62 0 0 0
SMALL
GASTEIGER

@<TRIPOS>ATOM
      1 C          -7.0338    3.6176   -2.8559 C.2     1  UNL1       -0.1026
      2 C          -6.7156    2.4280   -2.4054 C.2     1  UNL1       -0.0894
      3 C          -5.3306    2.1952   -1.8512 C.3     1  UNL1       -0.0169
      4 C          -4.7988    0.9164   -2.4924 C.3     1  UNL1        0.0296
      5 N          -3.4127    0.7170   -2.0766 N.ar    1  UNL1       -0.3120
      6 C          -3.1265    0.1653   -0.8956 C.ar    1  UNL1        0.0240
      7 C          -1.8249    0.0020   -0.4483 C.ar    1  UNL1        0.0513
      8 C          -1.5214   -0.5329    0.8231 C.1     1  UNL1       -0.0613
      9 C          -1.2457   -0.9940    1.9759 C.1     1  UNL1       -0.0629
     10 C          -0.9339   -1.5278    3.2752 C.3     1  UNL1        0.1212
     11 C          -0.0991   -0.5738    4.0601 C.3     1  UNL1       -0.0249
     12 C          -2.2368   -1.7367    4.0792 C.3     1  UNL1       -0.0249
     13 O          -0.3112   -2.7523    3.0734 O.3     1  UNL1       -0.3771
     14 C          -0.8165    0.4414   -1.2981 C.ar    1  UNL1        0.0360
     15 C           0.5417    0.4329   -1.1967 C.ar    1  UNL1        0.0883
     16 C           1.3915   -0.0663   -0.1024 C.2     1  UNL1        0.3419
     17 O           1.7325    0.7350    0.8206 O.2     1  UNL1       -0.2449
     18 O           1.8496   -1.3223   -0.0202 O.3     1  UNL1       -0.4563
     19 C           2.6633   -2.0369    0.7872 C.3     1  UNL1        0.1181
     20 C           4.1249   -1.6645    0.7403 C.ar    1  UNL1       -0.0074
     21 C           4.8011   -2.3937   -0.2733 C.ar    1  UNL1       -0.0551
     22 C           6.1293   -2.1603   -0.5416 C.ar    1  UNL1       -0.0614
     23 C           6.7365   -1.1977    0.2249 C.ar    1  UNL1       -0.0615
     24 C           6.1107   -0.5220    1.1716 C.ar    1  UNL1       -0.0585
     25 C           4.7380   -0.7294    1.4771 C.ar    1  UNL1       -0.0441
     26 C           4.1127    0.0286    2.5402 C.3     1  UNL1       -0.0393
     27 C           1.0899    1.0016   -2.3588 C.ar    1  UNL1        0.0281
     28 C           2.5472    1.1840   -2.6241 C.3     1  UNL1       -0.0236
     29 N           0.0485    1.3294   -3.1203 N.ar    1  UNL1       -0.3532
     30 C          -1.1273    1.0100   -2.5166 C.ar    1  UNL1        0.1141
     31 C          -2.4242    1.1383   -2.8866 C.ar    1  UNL1        0.2754
     32 O          -2.7414    1.6603   -4.0135 O.2     1  UNL1       -0.2654
     33 H          -8.0052    3.8432   -3.2631 H       1  UNL1        0.0532
     34 H          -6.3450    4.4811   -2.8452 H       1  UNL1        0.0532
     35 H          -7.4309    1.6218   -2.4542 H       1  UNL1        0.0567
     36 H          -4.6473    3.0146   -2.1159 H       1  UNL1        0.0324
     37 H          -5.4567    2.0863   -0.7741 H       1  UNL1        0.0324
     38 H          -4.8915    0.9409   -3.5925 H       1  UNL1        0.0496
     39 H          -5.3853    0.0807   -2.0757 H       1  UNL1        0.0496
     40 H          -3.8821   -0.2038   -0.1958 H       1  UNL1        0.0822
     41 H          -0.1925   -0.7640    5.1597 H       1  UNL1        0.0267
     42 H          -0.4716    0.4602    3.8486 H       1  UNL1        0.0267
     43 H           0.9346   -0.6124    3.6902 H       1  UNL1        0.0267
     44 H          -2.8478   -0.8156    3.8406 H       1  UNL1        0.0267
     45 H          -2.0009   -1.6486    5.1375 H       1  UNL1        0.0267
     46 H          -2.6927   -2.6572    3.7264 H       1  UNL1        0.0267
     47 H          -0.8447   -3.2877    2.4023 H       1  UNL1        0.2114
     48 H           2.5913   -3.1115    0.5328 H       1  UNL1        0.0749
     49 H           2.3352   -2.0110    1.8787 H       1  UNL1        0.0749
     50 H           4.2887   -3.1471   -0.8624 H       1  UNL1        0.0621
     51 H           6.6255   -2.7240   -1.3251 H       1  UNL1        0.0618
     52 H           7.7944   -1.0332   -0.0194 H       1  UNL1        0.0618
     53 H           6.5806    0.2536    1.7937 H       1  UNL1        0.0620
     54 H           4.0023    1.1188    2.2004 H       1  UNL1        0.0278
     55 H           4.8731    0.1367    3.3739 H       1  UNL1        0.0278
     56 H           3.2096   -0.3519    2.9956 H       1  UNL1        0.0278
     57 H           2.8168    1.0386   -3.6858 H       1  UNL1        0.0292
     58 H           3.1542    0.5086   -2.0064 H       1  UNL1        0.0292
     59 H           2.8960    2.2139   -2.3785 H       1  UNL1        0.0292
     60 H           0.0748    1.7766   -4.0577 H       1  UNL1        0.1658
@<TRIPOS>BOND
     1     1     2    2
     2     2     3    1
     3     3     4    1
     4     4     5    1
     5     5     6   ar
     6     6     7   ar
     7     7     8    1
     8     8     9    3
     9     9    10    1
    10    10    11    1
    11    10    12    1
    12    10    13    1
    13     7    14   ar
    14    14    15   ar
    15    15    16    1
    16    16    17    2
    17    16    18    1
    18    18    19    1
    19    19    20    1
    20    20    21   ar
    21    21    22   ar
    22    22    23   ar
    23    23    24   ar
    24    24    25   ar
    25    25    26    1
    26    15    27   ar
    27    27    28    1
    28    27    29   ar
    29    29    30   ar
    30    30    31   ar
    31    31    32    2
    32    31     5   ar
    33    30    14   ar
    34    25    20   ar
    35     1    33    1
    36     1    34    1
    37     2    35    1
    38     3    36    1
    39     3    37    1
    40     4    38    1
    41     4    39    1
    42     6    40    1
    43    11    41    1
    44    11    42    1
    45    11    43    1
    46    12    44    1
    47    12    45    1
    48    12    46    1
    49    13    47    1
    50    19    48    1
    51    19    49    1
    52    21    50    1
    53    22    51    1
    54    23    52    1
    55    24    53    1
    56    26    54    1
    57    26    55    1
    58    26    56    1
    59    28    57    1
    60    28    58    1
    61    28    59    1
    62    29    60    1
