@<TRIPOS>MOLECULE
*****
 62 65 0 0 0
SMALL
GASTEIGER

@<TRIPOS>ATOM
      1 O          -5.7321    0.7277   -0.7265 O.2     1  UNL1       -0.2702
      2 C          -4.7231    0.4273   -0.0293 C.2     1  UNL1        0.2444
      3 N          -3.6212    1.3231   -0.1420 N.am    1  UNL1       -0.3049
      4 C          -3.6640    2.4887   -1.0006 C.3     1  UNL1        0.0628
      5 C          -3.6082    3.7839   -0.2819 C.3     1  UNL1       -0.0048
      6 C          -2.6882    4.6660   -1.0323 C.3     1  UNL1        0.0605
      7 O          -1.4643    4.8602   -0.3778 O.3     1  UNL1       -0.3916
      8 C          -2.4431    3.9892   -2.3405 C.3     1  UNL1        0.0123
      9 C          -2.5679    2.5029   -2.0443 C.3     1  UNL1        0.1240
     10 O          -1.3439    2.0561   -1.5582 O.3     1  UNL1       -0.4559
     11 C          -0.5637    1.0435   -2.1358 C.2     1  UNL1        0.3397
     12 O          -1.0472    0.5223   -3.1751 O.2     1  UNL1       -0.2449
     13 C           0.7063    0.6426   -1.5551 C.ar    1  UNL1        0.0659
     14 C           1.1461    1.3222   -0.4358 C.ar    1  UNL1       -0.0053
     15 C           2.3075    1.0348    0.2068 C.ar    1  UNL1        0.1320
     16 O           2.7213    1.7398    1.3321 O.3     1  UNL1       -0.5059
     17 C           3.1356    0.0023   -0.2538 C.ar    1  UNL1        0.1050
     18 C           4.4130   -0.1868    0.4038 C.2     1  UNL1        0.2044
     19 O           4.9017    0.8521    1.0218 O.2     1  UNL1       -0.2863
     20 C           5.2454   -1.3591    0.4753 C.ar    1  UNL1        0.0778
     21 C           6.6247   -1.1204    0.3735 C.ar    1  UNL1        0.1285
     22 O           7.0491    0.2195    0.1840 O.3     1  UNL1       -0.5060
     23 C           7.5678   -2.1057    0.4473 C.ar    1  UNL1       -0.0194
     24 C           7.1332   -3.4011    0.6322 C.ar    1  UNL1       -0.0575
     25 C           5.7845   -3.6565    0.7382 C.ar    1  UNL1       -0.0468
     26 C           4.8162   -2.6450    0.6657 C.ar    1  UNL1        0.0731
     27 C           3.4305   -2.9791    0.9796 C.2     1  UNL1        0.3376
     28 O           3.1565   -4.2226    1.0373 O.2     1  UNL1       -0.2451
     29 O           2.4002   -2.1354    1.2257 O.3     1  UNL1       -0.4771
     30 C           2.7128   -0.6869   -1.3724 C.ar    1  UNL1        0.1320
     31 O           3.5076   -1.7120   -1.8635 O.3     1  UNL1       -0.5059
     32 C           1.5144   -0.3624   -2.0036 C.ar    1  UNL1       -0.0053
     33 C          -4.7474   -0.7563    0.8050 C.ar    1  UNL1        0.0369
     34 C          -3.6460   -1.1435    1.5220 C.ar    1  UNL1       -0.0462
     35 C          -3.6683   -2.2824    2.3280 C.ar    1  UNL1       -0.0195
     36 C          -4.7982   -3.0617    2.4346 C.ar    1  UNL1        0.1169
     37 O          -4.8165   -4.1934    3.2371 O.3     1  UNL1       -0.5068
     38 C          -5.9215   -2.6687    1.7053 C.ar    1  UNL1       -0.0195
     39 C          -5.8662   -1.5386    0.9186 C.ar    1  UNL1       -0.0462
     40 H          -2.7668    1.1153    0.4208 H       1  UNL1        0.1494
     41 H          -4.6319    2.4571   -1.5405 H       1  UNL1        0.0536
     42 H          -4.6286    4.2461   -0.1879 H       1  UNL1        0.0309
     43 H          -3.2450    3.7112    0.7640 H       1  UNL1        0.0309
     44 H          -3.1643    5.6532   -1.2284 H       1  UNL1        0.0595
     45 H          -1.3280    4.1214    0.2435 H       1  UNL1        0.2098
     46 H          -1.4250    4.2074   -2.7290 H       1  UNL1        0.0326
     47 H          -3.2234    4.3054   -3.0843 H       1  UNL1        0.0326
     48 H          -2.9126    2.0144   -2.9765 H       1  UNL1        0.0753
     49 H           0.5423    2.1366   -0.0326 H       1  UNL1        0.0662
     50 H           2.4741    2.7316    1.3705 H       1  UNL1        0.2922
     51 H           7.6531    0.3814   -0.6234 H       1  UNL1        0.2922
     52 H           8.6285   -1.8378    0.3588 H       1  UNL1        0.0654
     53 H           7.9023   -4.1562    0.6844 H       1  UNL1        0.0619
     54 H           5.4514   -4.6870    0.8829 H       1  UNL1        0.0626
     55 H           1.6828   -2.2805    1.9322 H       1  UNL1        0.2954
     56 H           3.1664   -2.6800   -1.8888 H       1  UNL1        0.2922
     57 H           1.1989   -0.9110   -2.8766 H       1  UNL1        0.0662
     58 H          -2.7341   -0.5802    1.4812 H       1  UNL1        0.0626
     59 H          -2.8037   -2.5899    2.8949 H       1  UNL1        0.0654
     60 H          -5.6213   -4.7979    3.2712 H       1  UNL1        0.2921
     61 H          -6.8100   -3.2816    1.7879 H       1  UNL1        0.0654
     62 H          -6.7488   -1.2654    0.3702 H       1  UNL1        0.0626
@<TRIPOS>BOND
     1     1     2    2
     2     2     3   am
     3     3     4    1
     4     4     5    1
     5     5     6    1
     6     6     7    1
     7     6     8    1
     8     8     9    1
     9     9    10    1
    10    10    11    1
    11    11    12    2
    12    11    13    1
    13    13    14   ar
    14    14    15   ar
    15    15    16    1
    16    15    17   ar
    17    17    18    1
    18    18    19    2
    19    18    20    1
    20    20    21   ar
    21    21    22    1
    22    21    23   ar
    23    23    24   ar
    24    24    25   ar
    25    25    26   ar
    26    26    27    1
    27    27    28    2
    28    27    29    1
    29    17    30   ar
    30    30    31    1
    31    30    32   ar
    32     2    33    1
    33    33    34   ar
    34    34    35   ar
    35    35    36   ar
    36    36    37    1
    37    36    38   ar
    38    38    39   ar
    39     9     4    1
    40    32    13   ar
    41    39    33   ar
    42    26    20   ar
    43     3    40    1
    44     4    41    1
    45     5    42    1
    46     5    43    1
    47     6    44    1
    48     7    45    1
    49     8    46    1
    50     8    47    1
    51     9    48    1
    52    14    49    1
    53    16    50    1
    54    22    51    1
    55    23    52    1
    56    24    53    1
    57    25    54    1
    58    29    55    1
    59    31    56    1
    60    32    57    1
    61    34    58    1
    62    35    59    1
    63    37    60    1
    64    38    61    1
    65    39    62    1
