@<TRIPOS>MOLECULE
*****
 45 48 0 0 0
SMALL
GASTEIGER

@<TRIPOS>ATOM
      1 O          -1.0354   -2.1122   -0.4884 O.2     1  UNL1       -0.2748
      2 C          -1.6569   -1.1349    0.0465 C.2     1  UNL1        0.2271
      3 C          -0.9724   -0.3507    1.0573 C.3     1  UNL1        0.0826
      4 C           0.4653   -0.8019    1.2067 C.ar    1  UNL1        0.1206
      5 N           1.4432   -0.2590    0.4798 N.ar    1  UNL1       -0.2186
      6 C           2.7556   -0.6521    0.5958 C.ar    1  UNL1        0.1285
      7 N           3.7424   -0.0352   -0.2024 N.pl3   1  UNL1       -0.3106
      8 C           5.1247   -0.3895   -0.2112 C.3     1  UNL1        0.0370
      9 C           5.9028    0.8533    0.2283 C.3     1  UNL1        0.0634
     10 O           5.4291    2.0206   -0.3334 O.3     1  UNL1       -0.3767
     11 C           4.6099    1.8730   -1.4212 C.3     1  UNL1        0.0634
     12 C           3.3643    1.0563   -1.1024 C.3     1  UNL1        0.0370
     13 C           3.0765   -1.6427    1.4945 C.ar    1  UNL1        0.0427
     14 C           2.0517   -2.1977    2.2427 C.ar    1  UNL1        0.2533
     15 O           2.3465   -3.1095    3.0700 O.2     1  UNL1       -0.2677
     16 N           0.7973   -1.7603    2.0718 N.ar    1  UNL1       -0.3104
     17 N          -2.9604   -0.8974   -0.3927 N.am    1  UNL1       -0.2705
     18 C          -3.7401   -1.6918   -1.3664 C.3     1  UNL1        0.0238
     19 C          -4.3752   -0.5644   -2.1494 C.3     1  UNL1       -0.0096
     20 C          -4.7401    0.3883   -1.0713 C.ar    1  UNL1       -0.0218
     21 C          -5.7086    1.3669   -0.9527 C.ar    1  UNL1       -0.0215
     22 C          -5.7809    2.0951    0.2053 C.ar    1  UNL1        0.1238
     23 F          -6.7215    3.0715    0.3659 F       1  UNL1       -0.2055
     24 C          -4.9186    1.8801    1.2511 C.ar    1  UNL1       -0.0247
     25 C          -3.9577    0.9055    1.1276 C.ar    1  UNL1       -0.0373
     26 C          -3.8418    0.1436   -0.0177 C.ar    1  UNL1        0.0397
     27 H          -1.0082    0.7292    0.9774 H       1  UNL1        0.0438
     28 H          -1.4777   -0.6248    2.0450 H       1  UNL1        0.0438
     29 H           5.4374   -1.2012    0.4397 H       1  UNL1        0.0487
     30 H           5.4522   -0.5504   -1.2757 H       1  UNL1        0.0487
     31 H           6.9789    0.7277   -0.0821 H       1  UNL1        0.0575
     32 H           5.8798    0.9763    1.3272 H       1  UNL1        0.0575
     33 H           4.2377    2.8968   -1.6846 H       1  UNL1        0.0575
     34 H           5.1830    1.4563   -2.2540 H       1  UNL1        0.0575
     35 H           2.9542    0.7025   -2.0524 H       1  UNL1        0.0487
     36 H           2.6867    1.7371   -0.5305 H       1  UNL1        0.0487
     37 H           4.1067   -2.0006    1.6348 H       1  UNL1        0.0706
     38 H           0.0321   -2.1934    2.6490 H       1  UNL1        0.1700
     39 H          -4.5249   -2.2399   -0.8206 H       1  UNL1        0.0472
     40 H          -3.0841   -2.3207   -1.9818 H       1  UNL1        0.0472
     41 H          -3.6093   -0.0486   -2.7721 H       1  UNL1        0.0329
     42 H          -5.2446   -0.8908   -2.7471 H       1  UNL1        0.0329
     43 H          -6.3995    1.5604   -1.7539 H       1  UNL1        0.0649
     44 H          -5.0090    2.4849    2.1618 H       1  UNL1        0.0647
     45 H          -3.2910    0.7444    1.9431 H       1  UNL1        0.0637
@<TRIPOS>BOND
     1     1     2    2
     2     2     3    1
     3     3     4    1
     4     4     5   ar
     5     5     6   ar
     6     6     7    1
     7     7     8    1
     8     8     9    1
     9     9    10    1
    10    10    11    1
    11    11    12    1
    12     6    13   ar
    13    13    14   ar
    14    14    15    2
    15    14    16   ar
    16     2    17   am
    17    17    18    1
    18    18    19    1
    19    19    20    1
    20    20    21   ar
    21    21    22   ar
    22    22    23    1
    23    22    24   ar
    24    24    25   ar
    25    25    26   ar
    26    16     4   ar
    27    26    17    1
    28    12     7    1
    29    26    20   ar
    30     3    27    1
    31     3    28    1
    32     8    29    1
    33     8    30    1
    34     9    31    1
    35     9    32    1
    36    11    33    1
    37    11    34    1
    38    12    35    1
    39    12    36    1
    40    13    37    1
    41    16    38    1
    42    18    39    1
    43    18    40    1
    44    19    41    1
    45    19    42    1
    46    21    43    1
    47    24    44    1
    48    25    45    1
