
     RDKit          3D

 45 48  0  0  0  0  0  0  0  0999 V2000
   -1.0354   -2.1122   -0.4884 O   0  0  0  0  0  0  0  0  0  0  0  0
   -1.6569   -1.1349    0.0465 C   0  0  0  0  0  0  0  0  0  0  0  0
   -0.9724   -0.3507    1.0573 C   0  0  0  0  0  0  0  0  0  0  0  0
    0.4653   -0.8019    1.2067 C   0  0  0  0  0  0  0  0  0  0  0  0
    1.4432   -0.2590    0.4798 N   0  0  0  0  0  0  0  0  0  0  0  0
    2.7556   -0.6521    0.5958 C   0  0  0  0  0  0  0  0  0  0  0  0
    3.7424   -0.0352   -0.2024 N   0  0  0  0  0  0  0  0  0  0  0  0
    5.1247   -0.3895   -0.2112 C   0  0  0  0  0  0  0  0  0  0  0  0
    5.9028    0.8533    0.2283 C   0  0  0  0  0  0  0  0  0  0  0  0
    5.4291    2.0206   -0.3334 O   0  0  0  0  0  0  0  0  0  0  0  0
    4.6099    1.8730   -1.4212 C   0  0  0  0  0  0  0  0  0  0  0  0
    3.3643    1.0563   -1.1024 C   0  0  0  0  0  0  0  0  0  0  0  0
    3.0765   -1.6427    1.4945 C   0  0  0  0  0  0  0  0  0  0  0  0
    2.0517   -2.1977    2.2427 C   0  0  0  0  0  0  0  0  0  0  0  0
    2.3465   -3.1095    3.0700 O   0  0  0  0  0  0  0  0  0  0  0  0
    0.7973   -1.7603    2.0718 N   0  0  0  0  0  0  0  0  0  0  0  0
   -2.9604   -0.8974   -0.3927 N   0  0  0  0  0  0  0  0  0  0  0  0
   -3.7401   -1.6918   -1.3664 C   0  0  0  0  0  0  0  0  0  0  0  0
   -4.3752   -0.5644   -2.1494 C   0  0  0  0  0  0  0  0  0  0  0  0
   -4.7401    0.3883   -1.0713 C   0  0  0  0  0  0  0  0  0  0  0  0
   -5.7086    1.3669   -0.9527 C   0  0  0  0  0  0  0  0  0  0  0  0
   -5.7809    2.0951    0.2053 C   0  0  0  0  0  0  0  0  0  0  0  0
   -6.7215    3.0715    0.3659 F   0  0  0  0  0  0  0  0  0  0  0  0
   -4.9186    1.8801    1.2511 C   0  0  0  0  0  0  0  0  0  0  0  0
   -3.9577    0.9055    1.1276 C   0  0  0  0  0  0  0  0  0  0  0  0
   -3.8418    0.1436   -0.0177 C   0  0  0  0  0  0  0  0  0  0  0  0
   -1.0082    0.7292    0.9774 H   0  0  0  0  0  0  0  0  0  0  0  0
   -1.4777   -0.6248    2.0450 H   0  0  0  0  0  0  0  0  0  0  0  0
    5.4374   -1.2012    0.4397 H   0  0  0  0  0  0  0  0  0  0  0  0
    5.4522   -0.5504   -1.2757 H   0  0  0  0  0  0  0  0  0  0  0  0
    6.9789    0.7277   -0.0821 H   0  0  0  0  0  0  0  0  0  0  0  0
    5.8798    0.9763    1.3272 H   0  0  0  0  0  0  0  0  0  0  0  0
    4.2377    2.8968   -1.6846 H   0  0  0  0  0  0  0  0  0  0  0  0
    5.1830    1.4563   -2.2540 H   0  0  0  0  0  0  0  0  0  0  0  0
    2.9542    0.7025   -2.0524 H   0  0  0  0  0  0  0  0  0  0  0  0
    2.6867    1.7371   -0.5305 H   0  0  0  0  0  0  0  0  0  0  0  0
    4.1067   -2.0006    1.6348 H   0  0  0  0  0  0  0  0  0  0  0  0
    0.0321   -2.1934    2.6490 H   0  0  0  0  0  0  0  0  0  0  0  0
   -4.5249   -2.2399   -0.8206 H   0  0  0  0  0  0  0  0  0  0  0  0
   -3.0841   -2.3207   -1.9818 H   0  0  0  0  0  0  0  0  0  0  0  0
   -3.6093   -0.0486   -2.7721 H   0  0  0  0  0  0  0  0  0  0  0  0
   -5.2446   -0.8908   -2.7471 H   0  0  0  0  0  0  0  0  0  0  0  0
   -6.3995    1.5604   -1.7539 H   0  0  0  0  0  0  0  0  0  0  0  0
   -5.0090    2.4849    2.1618 H   0  0  0  0  0  0  0  0  0  0  0  0
   -3.2910    0.7444    1.9431 H   0  0  0  0  0  0  0  0  0  0  0  0
  1  2  2  0
  2  3  1  0
  3  4  1  0
  4  5  2  0
  5  6  1  0
  6  7  1  0
  7  8  1  0
  8  9  1  0
  9 10  1  0
 10 11  1  0
 11 12  1  0
  6 13  2  0
 13 14  1  0
 14 15  2  0
 14 16  1  0
  2 17  1  0
 17 18  1  0
 18 19  1  0
 19 20  1  0
 20 21  2  0
 21 22  1  0
 22 23  1  0
 22 24  2  0
 24 25  1  0
 25 26  2  0
 16  4  1  0
 26 17  1  0
 12  7  1  0
 26 20  1  0
  3 27  1  0
  3 28  1  0
  8 29  1  0
  8 30  1  0
  9 31  1  0
  9 32  1  0
 11 33  1  0
 11 34  1  0
 12 35  1  0
 12 36  1  0
 13 37  1  0
 16 38  1  0
 18 39  1  0
 18 40  1  0
 19 41  1  0
 19 42  1  0
 21 43  1  0
 24 44  1  0
 25 45  1  0
M  END
$$$$
