
     RDKit          3D

 48 51  0  0  0  0  0  0  0  0999 V2000
   -2.8249   -0.9556   -1.5702 C   0  0  0  0  0  0  0  0  0  0  0  0
   -2.1484   -0.9442   -0.1914 C   0  0  1  0  0  0  0  0  0  0  0  0
   -0.7842   -1.5091   -0.3340 C   0  0  0  0  0  0  0  0  0  0  0  0
    0.3328   -0.7813   -0.0566 C   0  0  0  0  0  0  0  0  0  0  0  0
    1.6343   -1.3083   -0.1925 C   0  0  0  0  0  0  0  0  0  0  0  0
    2.7209   -0.4633    0.1233 N   0  0  0  0  0  0  0  0  0  0  0  0
    4.0763   -0.7717    0.0618 C   0  0  0  0  0  0  0  0  0  0  0  0
    4.4553   -1.9004   -0.3038 O   0  0  0  0  0  0  0  0  0  0  0  0
    5.1268    0.2033    0.4199 C   0  0  0  0  0  0  0  0  0  0  0  0
    4.7623    1.4385    0.8215 N   0  0  0  0  0  0  0  0  0  0  0  0
    5.7516    2.3034    1.1410 C   0  0  0  0  0  0  0  0  0  0  0  0
    7.0801    1.9945    1.0787 C   0  0  0  0  0  0  0  0  0  0  0  0
    8.2837    3.1689    1.5082 Cl  0  0  0  0  0  0  0  0  0  0  0  0
    7.4661    0.7285    0.6675 C   0  0  0  0  0  0  0  0  0  0  0  0
    6.4452   -0.1646    0.3376 C   0  0  0  0  0  0  0  0  0  0  0  0
    6.8267   -1.4050   -0.0651 F   0  0  0  0  0  0  0  0  0  0  0  0
    1.7563   -2.6052   -0.6220 C   0  0  0  0  0  0  0  0  0  0  0  0
    0.6225   -3.3637   -0.9103 C   0  0  0  0  0  0  0  0  0  0  0  0
   -0.6291   -2.8268   -0.7694 C   0  0  0  0  0  0  0  0  0  0  0  0
   -1.7682   -3.5232   -1.0364 F   0  0  0  0  0  0  0  0  0  0  0  0
   -2.0822    0.5213    0.2209 C   0  0  0  0  0  0  0  0  0  0  0  0
   -3.4711    1.0976    0.3891 C   0  0  0  0  0  0  0  0  0  0  0  0
   -3.5566    2.2322    1.3657 C   0  0  0  0  0  0  0  0  0  0  0  0
   -3.9893    3.1806    0.2663 C   0  0  0  0  0  0  0  0  0  0  0  0
   -3.8888    2.0360   -0.7185 C   0  0  0  0  0  0  0  0  0  0  0  0
   -4.4295    0.0763    0.6042 O   0  0  0  0  0  0  0  0  0  0  0  0
   -4.0761   -1.1707    1.1322 C   0  0  0  0  0  0  0  0  0  0  0  0
   -4.9596   -1.7876    2.0452 N   0  0  0  0  0  0  0  0  0  0  0  0
   -2.9670   -1.6775    0.7520 N   0  0  0  0  0  0  0  0  0  0  0  0
   -2.1188   -0.6810   -2.3653 H   0  0  0  0  0  0  0  0  0  0  0  0
   -3.2910   -1.9641   -1.7414 H   0  0  0  0  0  0  0  0  0  0  0  0
   -3.6707   -0.2437   -1.6138 H   0  0  0  0  0  0  0  0  0  0  0  0
    0.1949    0.2423    0.2789 H   0  0  0  0  0  0  0  0  0  0  0  0
    2.4881    0.5245    0.4463 H   0  0  0  0  0  0  0  0  0  0  0  0
    5.4873    3.3183    1.4720 H   0  0  0  0  0  0  0  0  0  0  0  0
    8.4935    0.4393    0.6025 H   0  0  0  0  0  0  0  0  0  0  0  0
    2.7366   -3.0579   -0.7430 H   0  0  0  0  0  0  0  0  0  0  0  0
    0.7200   -4.3872   -1.2492 H   0  0  0  0  0  0  0  0  0  0  0  0
   -1.5595    0.6898    1.1609 H   0  0  0  0  0  0  0  0  0  0  0  0
   -1.5676    1.0826   -0.5796 H   0  0  0  0  0  0  0  0  0  0  0  0
   -2.5638    2.5051    1.7811 H   0  0  0  0  0  0  0  0  0  0  0  0
   -4.2816    2.1299    2.1875 H   0  0  0  0  0  0  0  0  0  0  0  0
   -3.2888    4.0063    0.0470 H   0  0  0  0  0  0  0  0  0  0  0  0
   -5.0162    3.5922    0.3950 H   0  0  0  0  0  0  0  0  0  0  0  0
   -4.8617    1.7971   -1.1937 H   0  0  0  0  0  0  0  0  0  0  0  0
   -3.0977    2.2117   -1.4693 H   0  0  0  0  0  0  0  0  0  0  0  0
   -4.7880   -1.7292    3.0542 H   0  0  0  0  0  0  0  0  0  0  0  0
   -5.7810   -2.2988    1.6866 H   0  0  0  0  0  0  0  0  0  0  0  0
  2  1  1  6
  2  3  1  0
  3  4  2  0
  4  5  1  0
  5  6  1  0
  6  7  1  0
  7  8  2  0
  7  9  1  0
  9 10  2  0
 10 11  1  0
 11 12  2  0
 12 13  1  0
 12 14  1  0
 14 15  2  0
 15 16  1  0
  5 17  2  0
 17 18  1  0
 18 19  2  0
 19 20  1  0
  2 21  1  0
 21 22  1  0
 22 23  1  0
 23 24  1  0
 24 25  1  0
 22 26  1  0
 26 27  1  0
 27 28  1  0
 27 29  2  0
 29  2  1  0
 19  3  1  0
 25 22  1  0
 15  9  1  0
  1 30  1  0
  1 31  1  0
  1 32  1  0
  4 33  1  0
  6 34  1  0
 11 35  1  0
 14 36  1  0
 17 37  1  0
 18 38  1  0
 21 39  1  0
 21 40  1  0
 23 41  1  0
 23 42  1  0
 24 43  1  0
 24 44  1  0
 25 45  1  0
 25 46  1  0
 28 47  1  0
 28 48  1  0
M  END
$$$$
