@<TRIPOS>MOLECULE
*****
 48 51 0 0 0
SMALL
GASTEIGER

@<TRIPOS>ATOM
      1 C          -2.8249   -0.9556   -1.5702 C.3     1  UNL1       -0.0352
      2 C          -2.1484   -0.9442   -0.1914 C.3     1  UNL1        0.0950
      3 C          -0.7842   -1.5091   -0.3340 C.ar    1  UNL1        0.0168
      4 C           0.3328   -0.7813   -0.0566 C.ar    1  UNL1       -0.0323
      5 C           1.6343   -1.3083   -0.1925 C.ar    1  UNL1        0.0342
      6 N           2.7209   -0.4633    0.1233 N.am    1  UNL1       -0.2802
      7 C           4.0763   -0.7717    0.0618 C.2     1  UNL1        0.2694
      8 O           4.4553   -1.9004   -0.3038 O.2     1  UNL1       -0.2681
      9 C           5.1268    0.2033    0.4199 C.ar    1  UNL1        0.1608
     10 N           4.7623    1.4385    0.8215 N.ar    1  UNL1       -0.2461
     11 C           5.7516    2.3034    1.1410 C.ar    1  UNL1        0.0469
     12 C           7.0801    1.9945    1.0787 C.ar    1  UNL1        0.0618
     13 CL          8.2837    3.1689    1.5082 Cl      1  UNL1       -0.0819
     14 C           7.4661    0.7285    0.6675 C.ar    1  UNL1       -0.0044
     15 C           6.4452   -0.1646    0.3376 C.ar    1  UNL1        0.1551
     16 F           6.8267   -1.4050   -0.0651 F       1  UNL1       -0.2030
     17 C           1.7563   -2.6052   -0.6220 C.ar    1  UNL1       -0.0377
     18 C           0.6225   -3.3637   -0.9103 C.ar    1  UNL1       -0.0243
     19 C          -0.6291   -2.8268   -0.7694 C.ar    1  UNL1        0.1290
     20 F          -1.7682   -3.5232   -1.0364 F       1  UNL1       -0.2051
     21 C          -2.0822    0.5213    0.2209 C.3     1  UNL1        0.0166
     22 C          -3.4711    1.0976    0.3891 C.3     1  UNL1        0.1160
     23 C          -3.5566    2.2322    1.3657 C.3     1  UNL1       -0.0126
     24 C          -3.9893    3.1806    0.2663 C.3     1  UNL1       -0.0458
     25 C          -3.8888    2.0360   -0.7185 C.3     1  UNL1       -0.0126
     26 O          -4.4295    0.0763    0.6042 O.2     1  UNL1       -0.4592
     27 C          -4.0761   -1.1707    1.1322 C.2     1  UNL1        0.2765
     28 N          -4.9596   -1.7876    2.0452 N.pl3   1  UNL1       -0.3133
     29 N          -2.9670   -1.6775    0.7520 N.2     1  UNL1       -0.2257
     30 H          -2.1188   -0.6810   -2.3653 H       1  UNL1        0.0256
     31 H          -3.2910   -1.9641   -1.7414 H       1  UNL1        0.0256
     32 H          -3.6707   -0.2437   -1.6138 H       1  UNL1        0.0256
     33 H           0.1949    0.2423    0.2789 H       1  UNL1        0.0640
     34 H           2.4881    0.5245    0.4463 H       1  UNL1        0.1552
     35 H           5.4873    3.3183    1.4720 H       1  UNL1        0.0845
     36 H           8.4935    0.4393    0.6025 H       1  UNL1        0.0662
     37 H           2.7366   -3.0579   -0.7430 H       1  UNL1        0.0637
     38 H           0.7200   -4.3872   -1.2492 H       1  UNL1        0.0647
     39 H          -1.5595    0.6898    1.1609 H       1  UNL1        0.0330
     40 H          -1.5676    1.0826   -0.5796 H       1  UNL1        0.0330
     41 H          -2.5638    2.5051    1.7811 H       1  UNL1        0.0304
     42 H          -4.2816    2.1299    2.1875 H       1  UNL1        0.0304
     43 H          -3.2888    4.0063    0.0470 H       1  UNL1        0.0268
     44 H          -5.0162    3.5922    0.3950 H       1  UNL1        0.0268
     45 H          -4.8617    1.7971   -1.1937 H       1  UNL1        0.0304
     46 H          -3.0977    2.2117   -1.4693 H       1  UNL1        0.0304
     47 H          -4.7880   -1.7292    3.0542 H       1  UNL1        0.1466
     48 H          -5.7810   -2.2988    1.6866 H       1  UNL1        0.1466
@<TRIPOS>BOND
     1     2     1    1
     2     2     3    1
     3     3     4   ar
     4     4     5   ar
     5     5     6    1
     6     6     7   am
     7     7     8    2
     8     7     9    1
     9     9    10   ar
    10    10    11   ar
    11    11    12   ar
    12    12    13    1
    13    12    14   ar
    14    14    15   ar
    15    15    16    1
    16     5    17   ar
    17    17    18   ar
    18    18    19   ar
    19    19    20    1
    20     2    21    1
    21    21    22    1
    22    22    23    1
    23    23    24    1
    24    24    25    1
    25    22    26    1
    26    26    27    1
    27    27    28    1
    28    27    29    2
    29    29     2    1
    30    19     3   ar
    31    25    22    1
    32    15     9   ar
    33     1    30    1
    34     1    31    1
    35     1    32    1
    36     4    33    1
    37     6    34    1
    38    11    35    1
    39    14    36    1
    40    17    37    1
    41    18    38    1
    42    21    39    1
    43    21    40    1
    44    23    41    1
    45    23    42    1
    46    24    43    1
    47    24    44    1
    48    25    45    1
    49    25    46    1
    50    28    47    1
    51    28    48    1
