@<TRIPOS>MOLECULE
*****
 36 37 0 0 0
SMALL
GASTEIGER

@<TRIPOS>ATOM
      1 C           1.0335   -1.5229    0.8703 C.3     1  UNL1        0.0348
      2 S           1.8671   -2.5075    2.1271 S.3     1  UNL1       -0.1721
      3 C          -0.3985   -1.1870    1.2429 C.3     1  UNL1        0.0069
      4 C          -0.5677    0.1848    0.6395 C.3     1  UNL1        0.1408
      5 O           0.6191    0.5062    0.0114 O.3     1  UNL1       -0.3498
      6 C           1.6129   -0.1144    0.7668 C.3     1  UNL1        0.0966
      7 C           2.9371   -0.1122    0.0465 C.3     1  UNL1        0.0863
      8 O           3.2776    1.2011   -0.1751 O.3     1  UNL1       -0.2842
      9 P           4.7251    1.4246   -0.9679 P.3     1  UNL1        0.4724
     10 O           5.2316    0.0688   -1.8079 O.3     1  UNL1       -0.3026
     11 O           5.9738    1.9319    0.0458 O.3     1  UNL1       -0.3026
     12 O           4.5232    2.5472   -1.9862 O.2     1  UNL1       -0.2275
     13 N          -1.7156    0.1859   -0.2193 N.ar    1  UNL1       -0.2738
     14 C          -2.9054    0.4138    0.4003 C.ar    1  UNL1        0.0199
     15 C          -4.1006    0.4466   -0.2828 C.ar    1  UNL1        0.0302
     16 C          -5.3772    0.6988    0.4334 C.3     1  UNL1       -0.0332
     17 C          -4.0227    0.2341   -1.6396 C.ar    1  UNL1        0.2568
     18 O          -5.0767    0.2515   -2.3189 O.2     1  UNL1       -0.2674
     19 N          -2.8416    0.0047   -2.2760 N.ar    1  UNL1       -0.2747
     20 C          -1.6985   -0.0175   -1.5614 C.ar    1  UNL1        0.3313
     21 O          -0.5592   -0.2260   -2.0899 O.2     1  UNL1       -0.2464
     22 H           1.0124   -1.9964   -0.1190 H       1  UNL1        0.0437
     23 H           1.7217   -3.8596    1.8514 H       1  UNL1        0.1020
     24 H          -0.4950   -1.1141    2.3635 H       1  UNL1        0.0320
     25 H          -1.1101   -1.9256    0.8178 H       1  UNL1        0.0320
     26 H          -0.7053    0.9679    1.4401 H       1  UNL1        0.0840
     27 H           1.6677    0.2695    1.7834 H       1  UNL1        0.0631
     28 H           3.7001   -0.5802    0.6897 H       1  UNL1        0.0592
     29 H           2.8952   -0.6708   -0.8880 H       1  UNL1        0.0592
     30 H           5.9951   -0.3669   -1.3538 H       1  UNL1        0.2220
     31 H           5.6486    2.0742    0.9881 H       1  UNL1        0.2220
     32 H          -2.9653    0.5831    1.4833 H       1  UNL1        0.0816
     33 H          -6.2167    0.2784   -0.1798 H       1  UNL1        0.0280
     34 H          -5.3703    0.2886    1.4710 H       1  UNL1        0.0280
     35 H          -5.5202    1.7955    0.4807 H       1  UNL1        0.0280
     36 H          -2.7951   -0.1560   -3.3113 H       1  UNL1        0.1734
@<TRIPOS>BOND
     1     1     2    1
     2     1     3    1
     3     3     4    1
     4     4     5    1
     5     5     6    1
     6     6     7    1
     7     7     8    1
     8     8     9    1
     9     9    10    1
    10     9    11    1
    11     9    12    2
    12     4    13    1
    13    13    14   ar
    14    14    15   ar
    15    15    16    1
    16    15    17   ar
    17    17    18    2
    18    17    19   ar
    19    19    20   ar
    20    20    21    2
    21     6     1    1
    22    20    13   ar
    23     1    22    1
    24     2    23    1
    25     3    24    1
    26     3    25    1
    27     4    26    1
    28     6    27    1
    29     7    28    1
    30     7    29    1
    31    10    30    1
    32    11    31    1
    33    14    32    1
    34    16    33    1
    35    16    34    1
    36    16    35    1
    37    19    36    1
