
     RDKit          3D

 36 37  0  0  0  0  0  0  0  0999 V2000
    1.0335   -1.5229    0.8703 C   0  0  1  0  0  0  0  0  0  0  0  0
    1.8671   -2.5075    2.1271 S   0  0  0  0  0  0  0  0  0  0  0  0
   -0.3985   -1.1870    1.2429 C   0  0  0  0  0  0  0  0  0  0  0  0
   -0.5677    0.1848    0.6395 C   0  0  1  0  0  0  0  0  0  0  0  0
    0.6191    0.5062    0.0114 O   0  0  0  0  0  0  0  0  0  0  0  0
    1.6129   -0.1144    0.7668 C   0  0  2  0  0  0  0  0  0  0  0  0
    2.9371   -0.1122    0.0465 C   0  0  0  0  0  0  0  0  0  0  0  0
    3.2776    1.2011   -0.1751 O   0  0  0  0  0  0  0  0  0  0  0  0
    4.7251    1.4246   -0.9679 P   0  0  0  0  0  0  0  0  0  0  0  0
    5.2316    0.0688   -1.8079 O   0  0  0  0  0  0  0  0  0  0  0  0
    5.9738    1.9319    0.0458 O   0  0  0  0  0  0  0  0  0  0  0  0
    4.5232    2.5472   -1.9862 O   0  0  0  0  0  0  0  0  0  0  0  0
   -1.7156    0.1859   -0.2193 N   0  0  0  0  0  0  0  0  0  0  0  0
   -2.9054    0.4138    0.4003 C   0  0  0  0  0  0  0  0  0  0  0  0
   -4.1006    0.4466   -0.2828 C   0  0  0  0  0  0  0  0  0  0  0  0
   -5.3772    0.6988    0.4334 C   0  0  0  0  0  0  0  0  0  0  0  0
   -4.0227    0.2341   -1.6396 C   0  0  0  0  0  0  0  0  0  0  0  0
   -5.0767    0.2515   -2.3189 O   0  0  0  0  0  0  0  0  0  0  0  0
   -2.8416    0.0047   -2.2760 N   0  0  0  0  0  0  0  0  0  0  0  0
   -1.6985   -0.0175   -1.5614 C   0  0  0  0  0  0  0  0  0  0  0  0
   -0.5592   -0.2260   -2.0899 O   0  0  0  0  0  0  0  0  0  0  0  0
    1.0124   -1.9964   -0.1190 H   0  0  0  0  0  0  0  0  0  0  0  0
    1.7217   -3.8596    1.8514 H   0  0  0  0  0  0  0  0  0  0  0  0
   -0.4950   -1.1141    2.3635 H   0  0  0  0  0  0  0  0  0  0  0  0
   -1.1101   -1.9256    0.8178 H   0  0  0  0  0  0  0  0  0  0  0  0
   -0.7053    0.9679    1.4401 H   0  0  0  0  0  0  0  0  0  0  0  0
    1.6677    0.2695    1.7834 H   0  0  0  0  0  0  0  0  0  0  0  0
    3.7001   -0.5802    0.6897 H   0  0  0  0  0  0  0  0  0  0  0  0
    2.8952   -0.6708   -0.8880 H   0  0  0  0  0  0  0  0  0  0  0  0
    5.9951   -0.3669   -1.3538 H   0  0  0  0  0  0  0  0  0  0  0  0
    5.6486    2.0742    0.9881 H   0  0  0  0  0  0  0  0  0  0  0  0
   -2.9653    0.5831    1.4833 H   0  0  0  0  0  0  0  0  0  0  0  0
   -6.2167    0.2784   -0.1798 H   0  0  0  0  0  0  0  0  0  0  0  0
   -5.3703    0.2886    1.4710 H   0  0  0  0  0  0  0  0  0  0  0  0
   -5.5202    1.7955    0.4807 H   0  0  0  0  0  0  0  0  0  0  0  0
   -2.7951   -0.1560   -3.3113 H   0  0  0  0  0  0  0  0  0  0  0  0
  1  2  1  0
  1  3  1  0
  3  4  1  0
  4  5  1  0
  5  6  1  0
  6  7  1  0
  7  8  1  0
  8  9  1  0
  9 10  1  0
  9 11  1  0
  9 12  2  0
  4 13  1  0
 13 14  1  0
 14 15  2  0
 15 16  1  0
 15 17  1  0
 17 18  2  0
 17 19  1  0
 19 20  1  0
 20 21  2  0
  6  1  1  0
 20 13  1  0
  1 22  1  6
  2 23  1  0
  3 24  1  0
  3 25  1  0
  4 26  1  1
  6 27  1  1
  7 28  1  0
  7 29  1  0
 10 30  1  0
 11 31  1  0
 14 32  1  0
 16 33  1  0
 16 34  1  0
 16 35  1  0
 19 36  1  0
M  END
$$$$
