
     RDKit          3D

 50 54  0  0  0  0  0  0  0  0999 V2000
   -2.7253   -5.0284   -0.6778 N   0  0  0  0  0  0  0  0  0  0  0  0
   -2.2157   -4.1107   -1.6169 C   0  0  0  0  0  0  0  0  0  0  0  0
   -1.7863   -4.5729   -2.7103 O   0  0  0  0  0  0  0  0  0  0  0  0
   -2.1489   -2.6726   -1.4090 C   0  0  0  0  0  0  0  0  0  0  0  0
   -1.6302   -1.7351   -2.2276 N   0  0  0  0  0  0  0  0  0  0  0  0
   -1.7530   -0.5199   -1.6928 N   0  0  0  0  0  0  0  0  0  0  0  0
   -1.2856    0.7371   -2.2752 C   0  0  0  0  0  0  0  0  0  0  0  0
    0.1438    0.9853   -1.9487 C   0  0  0  0  0  0  0  0  0  0  0  0
    0.9336    0.0340   -2.3056 O   0  0  0  0  0  0  0  0  0  0  0  0
    0.6433    2.1497   -1.3056 N   0  0  0  0  0  0  0  0  0  0  0  0
    2.0621    2.3117   -1.0391 C   0  0  2  0  0  0  0  0  0  0  0  0
    2.5928    1.3677   -0.0597 C   0  0  0  0  0  0  0  0  0  0  0  0
    3.8356    1.4230    0.2287 O   0  0  0  0  0  0  0  0  0  0  0  0
    1.8551    0.3729    0.6186 N   0  0  0  0  0  0  0  0  0  0  0  0
    2.4167   -0.5439    1.5756 C   0  0  0  0  0  0  0  0  0  0  0  0
    2.4665   -0.3222    2.9029 C   0  0  0  0  0  0  0  0  0  0  0  0
    3.0309   -1.2829    3.7372 C   0  0  0  0  0  0  0  0  0  0  0  0
    3.5226   -2.4411    3.1322 C   0  0  0  0  0  0  0  0  0  0  0  0
    3.4604   -2.6405    1.7795 C   0  0  0  0  0  0  0  0  0  0  0  0
    4.1314   -4.2243    0.9342 Br  0  0  0  0  0  0  0  0  0  0  0  0
    2.9030   -1.6793    1.0173 N   0  0  0  0  0  0  0  0  0  0  0  0
    2.2435    3.7121   -0.5198 C   0  0  0  0  0  0  0  0  0  0  0  0
    0.8571    4.1979   -0.2361 C   0  0  1  0  0  0  0  0  0  0  0  0
    0.0696    4.6220   -1.4336 C   0  0  0  0  0  0  0  0  0  0  0  0
   -0.1092    3.2731   -0.8529 C   0  0  1  0  0  0  0  0  0  0  0  0
   -2.3594   -0.5919   -0.4991 C   0  0  0  0  0  0  0  0  0  0  0  0
   -2.7502    0.3178    0.4733 C   0  0  0  0  0  0  0  0  0  0  0  0
   -3.3805   -0.1511    1.6024 C   0  0  0  0  0  0  0  0  0  0  0  0
   -3.6366   -1.4897    1.7985 C   0  0  0  0  0  0  0  0  0  0  0  0
   -3.2484   -2.3848    0.8331 C   0  0  0  0  0  0  0  0  0  0  0  0
   -2.6159   -1.9612   -0.3093 C   0  0  0  0  0  0  0  0  0  0  0  0
   -2.1779   -5.3766    0.1596 H   0  0  0  0  0  0  0  0  0  0  0  0
   -3.6885   -5.3938   -0.7998 H   0  0  0  0  0  0  0  0  0  0  0  0
   -1.3840    0.6304   -3.3867 H   0  0  0  0  0  0  0  0  0  0  0  0
   -1.8811    1.6011   -1.9508 H   0  0  0  0  0  0  0  0  0  0  0  0
    2.5444    2.2486   -2.0380 H   0  0  0  0  0  0  0  0  0  0  0  0
    0.8354    0.3059    0.4090 H   0  0  0  0  0  0  0  0  0  0  0  0
    2.0689    0.6025    3.2961 H   0  0  0  0  0  0  0  0  0  0  0  0
    3.0771   -1.1177    4.8037 H   0  0  0  0  0  0  0  0  0  0  0  0
    3.9675   -3.1969    3.7553 H   0  0  0  0  0  0  0  0  0  0  0  0
    2.6810    4.3783   -1.3070 H   0  0  0  0  0  0  0  0  0  0  0  0
    2.8755    3.7890    0.3674 H   0  0  0  0  0  0  0  0  0  0  0  0
    0.6029    4.5790    0.7703 H   0  0  0  0  0  0  0  0  0  0  0  0
   -0.7206    5.3522   -1.2270 H   0  0  0  0  0  0  0  0  0  0  0  0
    0.5685    4.7723   -2.4141 H   0  0  0  0  0  0  0  0  0  0  0  0
   -1.0797    3.0606   -0.3666 H   0  0  0  0  0  0  0  0  0  0  0  0
   -2.5582    1.3703    0.3172 H   0  0  0  0  0  0  0  0  0  0  0  0
   -3.6895    0.5668    2.3612 H   0  0  0  0  0  0  0  0  0  0  0  0
   -4.1364   -1.8614    2.6874 H   0  0  0  0  0  0  0  0  0  0  0  0
   -3.4283   -3.4626    0.9383 H   0  0  0  0  0  0  0  0  0  0  0  0
  1  2  1  0
  2  3  2  0
  2  4  1  0
  4  5  2  0
  5  6  1  0
  6  7  1  0
  7  8  1  0
  8  9  2  0
  8 10  1  0
 10 11  1  0
 11 12  1  0
 12 13  2  0
 12 14  1  0
 14 15  1  0
 15 16  2  0
 16 17  1  0
 17 18  2  0
 18 19  1  0
 19 20  1  0
 19 21  2  0
 11 22  1  0
 22 23  1  0
 23 24  1  0
 24 25  1  0
  6 26  1  0
 26 27  2  0
 27 28  1  0
 28 29  2  0
 29 30  1  0
 30 31  2  0
 31  4  1  0
 25 10  1  0
 31 26  1  0
 21 15  1  0
 25 23  1  0
  1 32  1  0
  1 33  1  0
  7 34  1  0
  7 35  1  0
 11 36  1  6
 14 37  1  0
 16 38  1  0
 17 39  1  0
 18 40  1  0
 22 41  1  0
 22 42  1  0
 23 43  1  1
 24 44  1  0
 24 45  1  0
 25 46  1  1
 27 47  1  0
 28 48  1  0
 29 49  1  0
 30 50  1  0
M  END
$$$$
