@<TRIPOS>MOLECULE
*****
 50 54 0 0 0
SMALL
GASTEIGER

@<TRIPOS>ATOM
      1 N          -2.7253   -5.0284   -0.6778 N.am    1  UNL1       -0.3240
      2 C          -2.2157   -4.1107   -1.6169 C.2     1  UNL1        0.2622
      3 O          -1.7863   -4.5729   -2.7103 O.2     1  UNL1       -0.2687
      4 C          -2.1489   -2.6726   -1.4090 C.ar    1  UNL1        0.1545
      5 N          -1.6302   -1.7351   -2.2276 N.ar    1  UNL1       -0.1650
      6 N          -1.7530   -0.5199   -1.6928 N.ar    1  UNL1       -0.2541
      7 C          -1.2856    0.7371   -2.2752 C.3     1  UNL1        0.1185
      8 C           0.1438    0.9853   -1.9487 C.2     1  UNL1        0.2379
      9 O           0.9336    0.0340   -2.3056 O.2     1  UNL1       -0.2735
     10 N           0.6433    2.1497   -1.3056 N.am    1  UNL1       -0.2851
     11 C           2.0621    2.3117   -1.0391 C.3     1  UNL1        0.1032
     12 C           2.5928    1.3677   -0.0597 C.2     1  UNL1        0.2388
     13 O           3.8356    1.4230    0.2287 O.2     1  UNL1       -0.2734
     14 N           1.8551    0.3729    0.6186 N.am    1  UNL1       -0.2688
     15 C           2.4167   -0.5439    1.5756 C.ar    1  UNL1        0.1262
     16 C           2.4665   -0.3222    2.9029 C.ar    1  UNL1       -0.0214
     17 C           3.0309   -1.2829    3.7372 C.ar    1  UNL1       -0.0560
     18 C           3.5226   -2.4411    3.1322 C.ar    1  UNL1       -0.0291
     19 C           3.4604   -2.6405    1.7795 C.ar    1  UNL1        0.1084
     20 BR          4.1314   -4.2243    0.9342 Br      1  UNL1       -0.0286
     21 N           2.9030   -1.6793    1.0173 N.ar    1  UNL1       -0.2251
     22 C           2.2435    3.7121   -0.5198 C.3     1  UNL1       -0.0212
     23 C           0.8571    4.1979   -0.2361 C.3     1  UNL1       -0.0185
     24 C           0.0696    4.6220   -1.4336 C.3     1  UNL1       -0.0294
     25 C          -0.1092    3.2731   -0.8529 C.3     1  UNL1        0.0301
     26 C          -2.3594   -0.5919   -0.4991 C.ar    1  UNL1        0.0702
     27 C          -2.7502    0.3178    0.4733 C.ar    1  UNL1       -0.0360
     28 C          -3.3805   -0.1511    1.6024 C.ar    1  UNL1       -0.0597
     29 C          -3.6366   -1.4897    1.7985 C.ar    1  UNL1       -0.0610
     30 C          -3.2484   -2.3848    0.8331 C.ar    1  UNL1       -0.0503
     31 C          -2.6159   -1.9612   -0.3093 C.ar    1  UNL1        0.0322
     32 H          -2.1779   -5.3766    0.1596 H       1  UNL1        0.1453
     33 H          -3.6885   -5.3938   -0.7998 H       1  UNL1        0.1453
     34 H          -1.3840    0.6304   -3.3867 H       1  UNL1        0.0605
     35 H          -1.8811    1.6011   -1.9508 H       1  UNL1        0.0605
     36 H           2.5444    2.2486   -2.0380 H       1  UNL1        0.0597
     37 H           0.8354    0.3059    0.4090 H       1  UNL1        0.1563
     38 H           2.0689    0.6025    3.2961 H       1  UNL1        0.0652
     39 H           3.0771   -1.1177    4.8037 H       1  UNL1        0.0619
     40 H           3.9675   -3.1969    3.7553 H       1  UNL1        0.0644
     41 H           2.6810    4.3783   -1.3070 H       1  UNL1        0.0291
     42 H           2.8755    3.7890    0.3674 H       1  UNL1        0.0291
     43 H           0.6029    4.5790    0.7703 H       1  UNL1        0.0320
     44 H          -0.7206    5.3522   -1.2270 H       1  UNL1        0.0286
     45 H           0.5685    4.7723   -2.4141 H       1  UNL1        0.0286
     46 H          -1.0797    3.0606   -0.3666 H       1  UNL1        0.0503
     47 H          -2.5582    1.3703    0.3172 H       1  UNL1        0.0639
     48 H          -3.6895    0.5668    2.3612 H       1  UNL1        0.0618
     49 H          -4.1364   -1.8614    2.6874 H       1  UNL1        0.0618
     50 H          -3.4283   -3.4626    0.9383 H       1  UNL1        0.0625
@<TRIPOS>BOND
     1     1     2   am
     2     2     3    2
     3     2     4    1
     4     4     5   ar
     5     5     6   ar
     6     6     7    1
     7     7     8    1
     8     8     9    2
     9     8    10   am
    10    10    11    1
    11    11    12    1
    12    12    13    2
    13    12    14   am
    14    14    15    1
    15    15    16   ar
    16    16    17   ar
    17    17    18   ar
    18    18    19   ar
    19    19    20    1
    20    19    21   ar
    21    11    22    1
    22    22    23    1
    23    23    24    1
    24    24    25    1
    25     6    26   ar
    26    26    27   ar
    27    27    28   ar
    28    28    29   ar
    29    29    30   ar
    30    30    31   ar
    31    31     4   ar
    32    25    10    1
    33    31    26   ar
    34    21    15   ar
    35    25    23    1
    36     1    32    1
    37     1    33    1
    38     7    34    1
    39     7    35    1
    40    11    36    1
    41    14    37    1
    42    16    38    1
    43    17    39    1
    44    18    40    1
    45    22    41    1
    46    22    42    1
    47    23    43    1
    48    24    44    1
    49    24    45    1
    50    25    46    1
    51    27    47    1
    52    28    48    1
    53    29    49    1
    54    30    50    1
