@<TRIPOS>MOLECULE
*****
 53 54 0 0 0
SMALL
GASTEIGER

@<TRIPOS>ATOM
      1 O          -4.2646   -0.2230    2.2653 O.3     1  UNL1       -0.3868
      2 C          -3.1489   -0.4257    1.4917 C.3     1  UNL1        0.1097
      3 C          -1.8870    0.1994    2.0333 C.3     1  UNL1        0.0793
      4 O          -1.2880    1.0698    1.1388 O.3     1  UNL1       -0.3460
      5 C          -0.9345    0.5005   -0.0741 C.3     1  UNL1        0.1907
      6 O           0.2486   -0.1832   -0.0459 O.3     1  UNL1       -0.3403
      7 C           1.2550    0.3562   -0.8568 C.3     1  UNL1        0.1162
      8 C           1.6534   -0.6958   -1.8345 C.3     1  UNL1        0.0796
      9 O           2.9794   -0.9087   -2.0286 O.3     1  UNL1       -0.3461
     10 C           3.8303   -0.7774   -0.9783 C.3     1  UNL1        0.1877
     11 O           4.6292    0.3576   -1.2567 O.3     1  UNL1       -0.3648
     12 C           3.1701   -0.4931    0.3466 C.3     1  UNL1        0.1708
     13 O           2.3061   -1.4936    0.7556 O.3     1  UNL1       -0.2046
     14 S           2.7305   -2.1270    2.2499 S.O2    1  UNL1        0.2080
     15 O           2.8976   -0.8727    3.3488 O.3     1  UNL1       -0.2311
     16 O           1.6078   -3.0098    2.7161 O.2     1  UNL1       -0.1181
     17 O           3.9597   -2.9954    2.1732 O.2     1  UNL1       -0.1181
     18 C           2.3458    0.7582    0.1080 C.3     1  UNL1        0.1511
     19 O           3.1920    1.7332   -0.3407 O.3     1  UNL1       -0.2069
     20 S           3.3737    3.0448    0.6703 S.O2    1  UNL1        0.2079
     21 O           4.8560    2.8054    1.4654 O.3     1  UNL1       -0.2311
     22 O           2.3448    3.1313    1.7468 O.2     1  UNL1       -0.1181
     23 O           3.5451    4.3478   -0.0614 O.2     1  UNL1       -0.1181
     24 C          -2.0608   -0.3324   -0.6492 C.3     1  UNL1        0.1710
     25 O          -2.1417   -0.3336   -2.0097 O.3     1  UNL1       -0.2046
     26 S          -1.9587   -1.7802   -2.7806 S.O2    1  UNL1        0.2080
     27 O          -1.3289   -2.9951   -1.7953 O.3     1  UNL1       -0.2311
     28 O          -3.2180   -2.2776   -3.4257 O.2     1  UNL1       -0.1181
     29 O          -0.9772   -1.5939   -3.9061 O.2     1  UNL1       -0.1181
     30 C          -3.3120    0.1045    0.0630 C.3     1  UNL1        0.1507
     31 O          -4.4779   -0.4204   -0.4303 O.3     1  UNL1       -0.2070
     32 S          -5.6126    0.7749   -0.7136 S.O2    1  UNL1        0.2079
     33 O          -4.8927    2.0498   -1.5621 O.3     1  UNL1       -0.2311
     34 O          -6.2740    1.2493    0.5274 O.2     1  UNL1       -0.1181
     35 O          -6.6897    0.2244   -1.6250 O.2     1  UNL1       -0.1181
     36 H          -4.3504    0.7296    2.4968 H       1  UNL1        0.2100
     37 H          -3.0223   -1.5313    1.3552 H       1  UNL1        0.0644
     38 H          -2.1782    0.8193    2.9066 H       1  UNL1        0.0587
     39 H          -1.2429   -0.6006    2.4093 H       1  UNL1        0.0587
     40 H          -0.8055    1.3748   -0.7777 H       1  UNL1        0.0938
     41 H           0.7773    1.2539   -1.3313 H       1  UNL1        0.0648
     42 H           1.2361   -0.3654   -2.8316 H       1  UNL1        0.0587
     43 H           1.1451   -1.6887   -1.6631 H       1  UNL1        0.0587
     44 H           4.5793   -1.5999   -0.8691 H       1  UNL1        0.0936
     45 H           5.5434    0.2753   -0.9445 H       1  UNL1        0.2126
     46 H           3.9789   -0.3015    1.0862 H       1  UNL1        0.0700
     47 H           3.5190   -1.0978    4.0893 H       1  UNL1        0.2469
     48 H           1.9197    1.0334    1.1035 H       1  UNL1        0.0676
     49 H           5.1940    3.6465    1.8639 H       1  UNL1        0.2469
     50 H          -1.8759   -1.3801   -0.3316 H       1  UNL1        0.0700
     51 H          -1.9853   -3.3131   -1.1294 H       1  UNL1        0.2469
     52 H          -3.3400    1.2157    0.1807 H       1  UNL1        0.0676
     53 H          -5.5501    2.7612   -1.7134 H       1  UNL1        0.2469
@<TRIPOS>BOND
     1     1     2    1
     2     2     3    1
     3     3     4    1
     4     4     5    1
     5     5     6    1
     6     6     7    1
     7     7     8    1
     8     8     9    1
     9     9    10    1
    10    10    11    1
    11    10    12    1
    12    12    13    1
    13    13    14    1
    14    14    15    1
    15    14    16    2
    16    14    17    2
    17    12    18    1
    18    18    19    1
    19    19    20    1
    20    20    21    1
    21    20    22    2
    22    20    23    2
    23     5    24    1
    24    24    25    1
    25    25    26    1
    26    26    27    1
    27    26    28    2
    28    26    29    2
    29    24    30    1
    30    30    31    1
    31    31    32    1
    32    32    33    1
    33    32    34    2
    34    32    35    2
    35    30     2    1
    36    18     7    1
    37     1    36    1
    38     2    37    1
    39     3    38    1
    40     3    39    1
    41     5    40    1
    42     7    41    1
    43     8    42    1
    44     8    43    1
    45    10    44    1
    46    11    45    1
    47    12    46    1
    48    15    47    1
    49    18    48    1
    50    21    49    1
    51    24    50    1
    52    27    51    1
    53    30    52    1
    54    33    53    1
