
     RDKit          3D

 49 52  0  0  0  0  0  0  0  0999 V2000
    6.4722    0.2040   -0.3822 O   0  0  0  0  0  0  0  0  0  0  0  0
    5.4148   -0.5566   -0.8775 C   0  0  1  0  0  0  0  0  0  0  0  0
    4.6415   -1.2065    0.2541 C   0  0  0  0  0  0  0  0  0  0  0  0
    3.9053   -0.2032    1.1116 C   0  0  0  0  0  0  0  0  0  0  0  0
    3.3472    0.9052    0.2630 C   0  0  2  0  0  0  0  0  0  0  0  0
    2.2940    1.6233    0.9152 C   0  0  0  0  0  0  0  0  0  0  0  0
    2.5637    2.7748    1.6328 N   0  0  0  0  0  0  0  0  0  0  0  0
    1.4585    3.2908    2.0900 N   0  0  0  0  0  0  0  0  0  0  0  0
    0.4106    2.5742    1.7419 C   0  0  0  0  0  0  0  0  0  0  0  0
    0.9455    1.4831    0.9770 C   0  0  0  0  0  0  0  0  0  0  0  0
    0.0627    0.5052    0.3844 C   0  0  0  0  0  0  0  0  0  0  0  0
    0.3514   -0.7917    0.1984 C   0  0  0  0  0  0  0  0  0  0  0  0
   -0.5968   -1.6526   -0.3106 C   0  0  0  0  0  0  0  0  0  0  0  0
   -1.8118   -1.1779   -0.6165 N   0  0  0  0  0  0  0  0  0  0  0  0
   -2.1466    0.1177   -0.4448 C   0  0  0  0  0  0  0  0  0  0  0  0
   -3.4427    0.5956   -0.7774 N   0  0  0  0  0  0  0  0  0  0  0  0
   -4.4045   -0.3403   -1.3080 C   0  0  0  0  0  0  0  0  0  0  0  0
   -5.7250    0.2802   -1.6169 C   0  0  0  0  0  0  0  0  0  0  0  0
   -6.7872   -0.6070   -1.0009 C   0  0  0  0  0  0  0  0  0  0  0  0
   -6.0589   -1.2857    0.1389 C   0  0  0  0  0  0  0  0  0  0  0  0
   -4.6446   -1.4750   -0.3494 C   0  0  0  0  0  0  0  0  0  0  0  0
   -1.1857    0.9058    0.0520 N   0  0  0  0  0  0  0  0  0  0  0  0
    3.1299    0.4047   -1.1259 C   0  0  0  0  0  0  0  0  0  0  0  0
    4.5164    0.2283   -1.8019 C   0  0  0  0  0  0  0  0  0  0  0  0
    6.8776   -0.3400    0.3508 H   0  0  0  0  0  0  0  0  0  0  0  0
    5.8688   -1.3802   -1.4608 H   0  0  0  0  0  0  0  0  0  0  0  0
    5.4185   -1.6912    0.9064 H   0  0  0  0  0  0  0  0  0  0  0  0
    3.9325   -1.9666   -0.1270 H   0  0  0  0  0  0  0  0  0  0  0  0
    4.6739    0.1813    1.8343 H   0  0  0  0  0  0  0  0  0  0  0  0
    3.1082   -0.6471    1.7043 H   0  0  0  0  0  0  0  0  0  0  0  0
    4.2886    1.6128    0.1576 H   0  0  0  0  0  0  0  0  0  0  0  0
    3.4956    3.1784    1.7940 H   0  0  0  0  0  0  0  0  0  0  0  0
   -0.6338    2.7342    1.9609 H   0  0  0  0  0  0  0  0  0  0  0  0
    1.2899   -1.2148    0.4525 H   0  0  0  0  0  0  0  0  0  0  0  0
   -0.3329   -2.7020   -0.4521 H   0  0  0  0  0  0  0  0  0  0  0  0
   -3.7290    1.5831   -0.6570 H   0  0  0  0  0  0  0  0  0  0  0  0
   -3.9823   -0.8099   -2.2443 H   0  0  0  0  0  0  0  0  0  0  0  0
   -5.9268    0.3463   -2.7000 H   0  0  0  0  0  0  0  0  0  0  0  0
   -5.7896    1.2877   -1.1365 H   0  0  0  0  0  0  0  0  0  0  0  0
   -7.6421    0.0162   -0.6090 H   0  0  0  0  0  0  0  0  0  0  0  0
   -7.2199   -1.3112   -1.7229 H   0  0  0  0  0  0  0  0  0  0  0  0
   -6.5539   -2.2643    0.3922 H   0  0  0  0  0  0  0  0  0  0  0  0
   -6.0907   -0.6467    1.0541 H   0  0  0  0  0  0  0  0  0  0  0  0
   -4.6060   -2.4761   -0.8562 H   0  0  0  0  0  0  0  0  0  0  0  0
   -3.9126   -1.4627    0.4652 H   0  0  0  0  0  0  0  0  0  0  0  0
    2.7706   -0.6346   -1.1006 H   0  0  0  0  0  0  0  0  0  0  0  0
    2.5675    1.0990   -1.7543 H   0  0  0  0  0  0  0  0  0  0  0  0
    4.4416   -0.2982   -2.7586 H   0  0  0  0  0  0  0  0  0  0  0  0
    4.9766    1.2101   -1.9727 H   0  0  0  0  0  0  0  0  0  0  0  0
  1  2  1  0
  2  3  1  0
  3  4  1  0
  4  5  1  0
  5  6  1  0
  6  7  1  0
  7  8  1  0
  8  9  2  0
  9 10  1  0
 10 11  1  0
 11 12  2  0
 12 13  1  0
 13 14  2  0
 14 15  1  0
 15 16  1  0
 16 17  1  0
 17 18  1  0
 18 19  1  0
 19 20  1  0
 20 21  1  0
 15 22  2  0
  5 23  1  0
 23 24  1  0
 24  2  1  0
 10  6  2  0
 22 11  1  0
 21 17  1  0
  1 25  1  0
  2 26  1  6
  3 27  1  0
  3 28  1  0
  4 29  1  0
  4 30  1  0
  5 31  1  6
  7 32  1  0
  9 33  1  0
 12 34  1  0
 13 35  1  0
 16 36  1  0
 17 37  1  0
 18 38  1  0
 18 39  1  0
 19 40  1  0
 19 41  1  0
 20 42  1  0
 20 43  1  0
 21 44  1  0
 21 45  1  0
 23 46  1  0
 23 47  1  0
 24 48  1  0
 24 49  1  0
M  END
$$$$
