@<TRIPOS>MOLECULE
*****
 49 52 0 0 0
SMALL
GASTEIGER

@<TRIPOS>ATOM
      1 O           6.4722    0.2040   -0.3822 O.3     1  UNL1       -0.3918
      2 C           5.4148   -0.5566   -0.8775 C.3     1  UNL1        0.0553
      3 C           4.6415   -1.2065    0.2541 C.3     1  UNL1       -0.0263
      4 C           3.9053   -0.2032    1.1116 C.3     1  UNL1       -0.0424
      5 C           3.3472    0.9052    0.2630 C.3     1  UNL1        0.0016
      6 C           2.2940    1.6233    0.9152 C.ar    1  UNL1        0.0483
      7 N           2.5637    2.7748    1.6328 N.ar    1  UNL1       -0.2807
      8 N           1.4585    3.2908    2.0900 N.ar    1  UNL1       -0.1814
      9 C           0.4106    2.5742    1.7419 C.ar    1  UNL1        0.0586
     10 C           0.9455    1.4831    0.9770 C.ar    1  UNL1        0.0411
     11 C           0.0627    0.5052    0.3844 C.ar    1  UNL1        0.0792
     12 C           0.3514   -0.7917    0.1984 C.ar    1  UNL1       -0.0173
     13 C          -0.5968   -1.6526   -0.3106 C.ar    1  UNL1        0.0332
     14 N          -1.8118   -1.1779   -0.6165 N.ar    1  UNL1       -0.2229
     15 C          -2.1466    0.1177   -0.4448 C.ar    1  UNL1        0.2159
     16 N          -3.4427    0.5956   -0.7774 N.pl3   1  UNL1       -0.3106
     17 C          -4.4045   -0.3403   -1.3080 C.3     1  UNL1        0.0233
     18 C          -5.7250    0.2802   -1.6169 C.3     1  UNL1       -0.0345
     19 C          -6.7872   -0.6070   -1.0009 C.3     1  UNL1       -0.0513
     20 C          -6.0589   -1.2857    0.1389 C.3     1  UNL1       -0.0513
     21 C          -4.6446   -1.4750   -0.3494 C.3     1  UNL1       -0.0345
     22 N          -1.1857    0.9058    0.0520 N.ar    1  UNL1       -0.2144
     23 C           3.1299    0.4047   -1.1259 C.3     1  UNL1       -0.0424
     24 C           4.5164    0.2283   -1.8019 C.3     1  UNL1       -0.0263
     25 H           6.8776   -0.3400    0.3508 H       1  UNL1        0.2098
     26 H           5.8688   -1.3802   -1.4608 H       1  UNL1        0.0593
     27 H           5.4185   -1.6912    0.9064 H       1  UNL1        0.0290
     28 H           3.9325   -1.9666   -0.1270 H       1  UNL1        0.0290
     29 H           4.6739    0.1813    1.8343 H       1  UNL1        0.0272
     30 H           3.1082   -0.6471    1.7043 H       1  UNL1        0.0272
     31 H           4.2886    1.6128    0.1576 H       1  UNL1        0.0364
     32 H           3.4956    3.1784    1.7940 H       1  UNL1        0.1885
     33 H          -0.6338    2.7342    1.9609 H       1  UNL1        0.0854
     34 H           1.2899   -1.2148    0.4525 H       1  UNL1        0.0654
     35 H          -0.3329   -2.7020   -0.4521 H       1  UNL1        0.0831
     36 H          -3.7290    1.5831   -0.6570 H       1  UNL1        0.1492
     37 H          -3.9823   -0.8099   -2.2443 H       1  UNL1        0.0498
     38 H          -5.9268    0.3463   -2.7000 H       1  UNL1        0.0283
     39 H          -5.7896    1.2877   -1.1365 H       1  UNL1        0.0283
     40 H          -7.6421    0.0162   -0.6090 H       1  UNL1        0.0266
     41 H          -7.2199   -1.3112   -1.7229 H       1  UNL1        0.0266
     42 H          -6.5539   -2.2643    0.3922 H       1  UNL1        0.0266
     43 H          -6.0907   -0.6467    1.0541 H       1  UNL1        0.0266
     44 H          -4.6060   -2.4761   -0.8562 H       1  UNL1        0.0283
     45 H          -3.9126   -1.4627    0.4652 H       1  UNL1        0.0283
     46 H           2.7706   -0.6346   -1.1006 H       1  UNL1        0.0272
     47 H           2.5675    1.0990   -1.7543 H       1  UNL1        0.0272
     48 H           4.4416   -0.2982   -2.7586 H       1  UNL1        0.0290
     49 H           4.9766    1.2101   -1.9727 H       1  UNL1        0.0290
@<TRIPOS>BOND
     1     1     2    1
     2     2     3    1
     3     3     4    1
     4     4     5    1
     5     5     6    1
     6     6     7   ar
     7     7     8   ar
     8     8     9   ar
     9     9    10   ar
    10    10    11    1
    11    11    12   ar
    12    12    13   ar
    13    13    14   ar
    14    14    15   ar
    15    15    16    1
    16    16    17    1
    17    17    18    1
    18    18    19    1
    19    19    20    1
    20    20    21    1
    21    15    22   ar
    22     5    23    1
    23    23    24    1
    24    24     2    1
    25    10     6   ar
    26    22    11   ar
    27    21    17    1
    28     1    25    1
    29     2    26    1
    30     3    27    1
    31     3    28    1
    32     4    29    1
    33     4    30    1
    34     5    31    1
    35     7    32    1
    36     9    33    1
    37    12    34    1
    38    13    35    1
    39    16    36    1
    40    17    37    1
    41    18    38    1
    42    18    39    1
    43    19    40    1
    44    19    41    1
    45    20    42    1
    46    20    43    1
    47    21    44    1
    48    21    45    1
    49    23    46    1
    50    23    47    1
    51    24    48    1
    52    24    49    1
