@<TRIPOS>MOLECULE
*****
 26 27 0 0 0
SMALL
GASTEIGER

@<TRIPOS>ATOM
      1 C          -1.3465   -1.3640   -0.9527 C.3     1  UNL1        0.0291
      2 N          -1.3090   -0.2683   -0.0394 N.ar    1  UNL1       -0.2841
      3 N          -0.1914    0.3127    0.3528 N.ar    1  UNL1       -0.2172
      4 C          -0.5264    1.3137    1.2183 C.ar    1  UNL1        0.2720
      5 O           0.2010    2.1429    1.8509 O.2     1  UNL1       -0.2658
      6 C          -1.8973    1.3410    1.3564 C.ar    1  UNL1        0.0252
      7 C          -2.3679    0.3435    0.5615 C.ar    1  UNL1        0.0381
      8 C          -3.8042    0.0016    0.3962 C.3     1  UNL1       -0.0226
      9 C           1.1773    0.0765    0.0401 C.ar    1  UNL1        0.0673
     10 C           2.0316    1.1702   -0.1574 C.ar    1  UNL1       -0.0362
     11 C           3.3753    1.0701   -0.4647 C.ar    1  UNL1       -0.0598
     12 C           3.9216   -0.1769   -0.5873 C.ar    1  UNL1       -0.0616
     13 C           3.1170   -1.2698   -0.4011 C.ar    1  UNL1       -0.0598
     14 C           1.7773   -1.1586   -0.0948 C.ar    1  UNL1       -0.0362
     15 H          -2.4114   -1.4894   -1.3139 H       1  UNL1        0.0472
     16 H          -0.7805   -1.2196   -1.8929 H       1  UNL1        0.0472
     17 H          -1.1572   -2.3692   -0.4754 H       1  UNL1        0.0472
     18 H          -2.5059    2.0171    1.9732 H       1  UNL1        0.0690
     19 H          -3.9774   -0.9735   -0.0648 H       1  UNL1        0.0292
     20 H          -4.3624    0.0348    1.3496 H       1  UNL1        0.0292
     21 H          -4.2040    0.7690   -0.3097 H       1  UNL1        0.0292
     22 H           1.5922    2.1604   -0.0588 H       1  UNL1        0.0639
     23 H           3.9368    1.9887   -0.5949 H       1  UNL1        0.0618
     24 H           4.9739   -0.1950   -0.8280 H       1  UNL1        0.0618
     25 H           3.5795   -2.2431   -0.5051 H       1  UNL1        0.0618
     26 H           1.1580   -2.0149    0.0485 H       1  UNL1        0.0639
@<TRIPOS>BOND
     1     1     2    1
     2     2     3   ar
     3     3     4   ar
     4     4     5    2
     5     4     6   ar
     6     6     7   ar
     7     7     8    1
     8     3     9    1
     9     9    10   ar
    10    10    11   ar
    11    11    12   ar
    12    12    13   ar
    13    13    14   ar
    14     7     2   ar
    15    14     9   ar
    16     1    15    1
    17     1    16    1
    18     1    17    1
    19     6    18    1
    20     8    19    1
    21     8    20    1
    22     8    21    1
    23    10    22    1
    24    11    23    1
    25    12    24    1
    26    13    25    1
    27    14    26    1
