
     RDKit          3D

 52 56  0  0  0  0  0  0  0  0999 V2000
   -3.6105   -0.7128    2.2616 O   0  0  0  0  0  0  0  0  0  0  0  0
   -2.6304   -0.1932    1.6262 C   0  0  0  0  0  0  0  0  0  0  0  0
   -2.9050    1.1108    1.0285 C   0  0  0  0  0  0  0  0  0  0  0  0
   -2.6740    2.2600    1.7358 C   0  0  0  0  0  0  0  0  0  0  0  0
   -2.9380    3.4831    1.1586 C   0  0  0  0  0  0  0  0  0  0  0  0
   -2.6783    5.0012    1.9745 Cl  0  0  0  0  0  0  0  0  0  0  0  0
   -3.4336    3.4909   -0.1338 C   0  0  0  0  0  0  0  0  0  0  0  0
   -3.6695    2.3351   -0.8547 C   0  0  0  0  0  0  0  0  0  0  0  0
   -3.3988    1.1134   -0.2597 C   0  0  0  0  0  0  0  0  0  0  0  0
   -3.6373   -0.0727   -0.9899 N   0  0  0  0  0  0  0  0  0  0  0  0
   -3.2531   -0.3073   -2.2235 N   0  0  0  0  0  0  0  0  0  0  0  0
   -3.6373   -1.5243   -2.6203 C   0  0  0  0  0  0  0  0  0  0  0  0
   -4.3083   -2.0774   -1.5471 C   0  0  0  0  0  0  0  0  0  0  0  0
   -4.2781   -1.1482   -0.5796 N   0  0  0  0  0  0  0  0  0  0  0  0
   -1.3948   -0.8468    1.5255 N   0  0  0  0  0  0  0  0  0  0  0  0
   -1.1987   -2.1233    2.1371 C   0  0  0  0  0  0  0  0  0  0  0  0
    0.1606   -2.1530    2.8189 C   0  0  0  0  0  0  0  0  0  0  0  0
    1.1380   -1.5443    2.0752 O   0  0  0  0  0  0  0  0  0  0  0  0
    0.8704   -0.2253    1.7703 C   0  0  0  0  0  0  0  0  0  0  0  0
   -0.3212   -0.2296    0.8038 C   0  0  1  0  0  0  0  0  0  0  0  0
    0.0667   -0.9755   -0.4364 C   0  0  0  0  0  0  0  0  0  0  0  0
    1.1867   -0.2342   -1.0945 C   0  0  0  0  0  0  0  0  0  0  0  0
    0.9094    0.7582   -2.0107 C   0  0  0  0  0  0  0  0  0  0  0  0
    1.9087    1.4480   -2.6298 C   0  0  0  0  0  0  0  0  0  0  0  0
    3.2269    1.1597   -2.3453 C   0  0  0  0  0  0  0  0  0  0  0  0
    3.5529    0.1805   -1.4405 C   0  0  0  0  0  0  0  0  0  0  0  0
    4.9228   -0.1187   -1.1453 N   0  0  0  0  0  0  0  0  0  0  0  0
    5.9033   -0.1132   -2.0295 N   0  0  0  0  0  0  0  0  0  0  0  0
    7.0770   -0.4355   -1.4473 C   0  0  0  0  0  0  0  0  0  0  0  0
    6.7795   -0.6505   -0.1148 C   0  0  0  0  0  0  0  0  0  0  0  0
    5.4513   -0.4453    0.0225 N   0  0  0  0  0  0  0  0  0  0  0  0
    2.5142   -0.4992   -0.8315 C   0  0  0  0  0  0  0  0  0  0  0  0
   -2.2858    2.2722    2.7498 H   0  0  0  0  0  0  0  0  0  0  0  0
   -3.6612    4.4337   -0.6419 H   0  0  0  0  0  0  0  0  0  0  0  0
   -4.0548    2.3279   -1.8605 H   0  0  0  0  0  0  0  0  0  0  0  0
   -3.4578   -1.9905   -3.5974 H   0  0  0  0  0  0  0  0  0  0  0  0
   -4.7687   -3.0690   -1.4981 H   0  0  0  0  0  0  0  0  0  0  0  0
   -1.9599   -2.3221    2.9474 H   0  0  0  0  0  0  0  0  0  0  0  0
   -1.3090   -2.9720    1.4287 H   0  0  0  0  0  0  0  0  0  0  0  0
    0.0620   -1.7369    3.8504 H   0  0  0  0  0  0  0  0  0  0  0  0
    0.4334   -3.2228    2.9308 H   0  0  0  0  0  0  0  0  0  0  0  0
    0.4815    0.3331    2.6699 H   0  0  0  0  0  0  0  0  0  0  0  0
    1.7422    0.2843    1.3704 H   0  0  0  0  0  0  0  0  0  0  0  0
   -0.5585    0.8118    0.4853 H   0  0  0  0  0  0  0  0  0  0  0  0
   -0.7685   -1.0383   -1.1593 H   0  0  0  0  0  0  0  0  0  0  0  0
    0.4564   -1.9919   -0.2294 H   0  0  0  0  0  0  0  0  0  0  0  0
   -0.1235    0.9696   -2.2203 H   0  0  0  0  0  0  0  0  0  0  0  0
    1.7121    2.2331   -3.3542 H   0  0  0  0  0  0  0  0  0  0  0  0
    4.0043    1.7021   -2.8321 H   0  0  0  0  0  0  0  0  0  0  0  0
    8.0631   -0.5205   -1.8851 H   0  0  0  0  0  0  0  0  0  0  0  0
    7.5134   -0.9284    0.6304 H   0  0  0  0  0  0  0  0  0  0  0  0
    2.7778   -1.2864   -0.1075 H   0  0  0  0  0  0  0  0  0  0  0  0
  1  2  2  0
  2  3  1  0
  3  4  2  0
  4  5  1  0
  5  6  1  0
  5  7  2  0
  7  8  1  0
  8  9  2  0
  9 10  1  0
 10 11  1  0
 11 12  2  0
 12 13  1  0
 13 14  2  0
  2 15  1  0
 15 16  1  0
 16 17  1  0
 17 18  1  0
 18 19  1  0
 19 20  1  0
 20 21  1  0
 21 22  1  0
 22 23  2  0
 23 24  1  0
 24 25  2  0
 25 26  1  0
 26 27  1  0
 27 28  1  0
 28 29  2  0
 29 30  1  0
 30 31  2  0
 26 32  2  0
  9  3  1  0
 14 10  1  0
 20 15  1  0
 32 22  1  0
 31 27  1  0
  4 33  1  0
  7 34  1  0
  8 35  1  0
 12 36  1  0
 13 37  1  0
 16 38  1  0
 16 39  1  0
 17 40  1  0
 17 41  1  0
 19 42  1  0
 19 43  1  0
 20 44  1  6
 21 45  1  0
 21 46  1  0
 23 47  1  0
 24 48  1  0
 25 49  1  0
 29 50  1  0
 30 51  1  0
 32 52  1  0
M  END
$$$$
