@<TRIPOS>MOLECULE
*****
 52 56 0 0 0
SMALL
GASTEIGER

@<TRIPOS>ATOM
      1 O          -3.6105   -0.7128    2.2616 O.2     1  UNL1       -0.2699
      2 C          -2.6304   -0.1932    1.6262 C.2     1  UNL1        0.2491
      3 C          -2.9050    1.1108    1.0285 C.ar    1  UNL1        0.0653
      4 C          -2.6740    2.2600    1.7358 C.ar    1  UNL1       -0.0292
      5 C          -2.9380    3.4831    1.1586 C.ar    1  UNL1        0.0418
      6 CL         -2.6783    5.0012    1.9745 Cl      1  UNL1       -0.0835
      7 C          -3.4336    3.4909   -0.1338 C.ar    1  UNL1       -0.0413
      8 C          -3.6695    2.3351   -0.8547 C.ar    1  UNL1       -0.0324
      9 C          -3.3988    1.1134   -0.2597 C.ar    1  UNL1        0.0983
     10 N          -3.6373   -0.0727   -0.9899 N.ar    1  UNL1       -0.1496
     11 N          -3.2531   -0.3073   -2.2235 N.ar    1  UNL1       -0.1556
     12 C          -3.6373   -1.5243   -2.6203 C.ar    1  UNL1        0.0697
     13 C          -4.3083   -2.0774   -1.5471 C.ar    1  UNL1        0.0697
     14 N          -4.2781   -1.1482   -0.5796 N.ar    1  UNL1       -0.1556
     15 N          -1.3948   -0.8468    1.5255 N.am    1  UNL1       -0.2897
     16 C          -1.1987   -2.1233    2.1371 C.3     1  UNL1        0.0388
     17 C           0.1606   -2.1530    2.8189 C.3     1  UNL1        0.0635
     18 O           1.1380   -1.5443    2.0752 O.3     1  UNL1       -0.3764
     19 C           0.8704   -0.2253    1.7703 C.3     1  UNL1        0.0666
     20 C          -0.3212   -0.2296    0.8038 C.3     1  UNL1        0.0537
     21 C           0.0667   -0.9755   -0.4364 C.3     1  UNL1       -0.0068
     22 C           1.1867   -0.2342   -1.0945 C.ar    1  UNL1       -0.0435
     23 C           0.9094    0.7582   -2.0107 C.ar    1  UNL1       -0.0584
     24 C           1.9087    1.4480   -2.6298 C.ar    1  UNL1       -0.0594
     25 C           3.2269    1.1597   -2.3453 C.ar    1  UNL1       -0.0345
     26 C           3.5529    0.1805   -1.4405 C.ar    1  UNL1        0.0864
     27 N           4.9228   -0.1187   -1.1453 N.ar    1  UNL1       -0.1503
     28 N           5.9033   -0.1132   -2.0295 N.ar    1  UNL1       -0.1556
     29 C           7.0770   -0.4355   -1.4473 C.ar    1  UNL1        0.0697
     30 C           6.7795   -0.6505   -0.1148 C.ar    1  UNL1        0.0697
     31 N           5.4513   -0.4453    0.0225 N.ar    1  UNL1       -0.1556
     32 C           2.5142   -0.4992   -0.8315 C.ar    1  UNL1       -0.0313
     33 H          -2.2858    2.2722    2.7498 H       1  UNL1        0.0640
     34 H          -3.6612    4.4337   -0.6419 H       1  UNL1        0.0633
     35 H          -4.0548    2.3279   -1.8605 H       1  UNL1        0.0640
     36 H          -3.4578   -1.9905   -3.5974 H       1  UNL1        0.0864
     37 H          -4.7687   -3.0690   -1.4981 H       1  UNL1        0.0864
     38 H          -1.9599   -2.3221    2.9474 H       1  UNL1        0.0487
     39 H          -1.3090   -2.9720    1.4287 H       1  UNL1        0.0487
     40 H           0.0620   -1.7369    3.8504 H       1  UNL1        0.0575
     41 H           0.4334   -3.2228    2.9308 H       1  UNL1        0.0575
     42 H           0.4815    0.3331    2.6699 H       1  UNL1        0.0578
     43 H           1.7422    0.2843    1.3704 H       1  UNL1        0.0578
     44 H          -0.5585    0.8118    0.4853 H       1  UNL1        0.0526
     45 H          -0.7685   -1.0383   -1.1593 H       1  UNL1        0.0332
     46 H           0.4564   -1.9919   -0.2294 H       1  UNL1        0.0332
     47 H          -0.1235    0.9696   -2.2203 H       1  UNL1        0.0620
     48 H           1.7121    2.2331   -3.3542 H       1  UNL1        0.0618
     49 H           4.0043    1.7021   -2.8321 H       1  UNL1        0.0639
     50 H           8.0631   -0.5205   -1.8851 H       1  UNL1        0.0864
     51 H           7.5134   -0.9284    0.6304 H       1  UNL1        0.0864
     52 H           2.7778   -1.2864   -0.1075 H       1  UNL1        0.0642
@<TRIPOS>BOND
     1     1     2    2
     2     2     3    1
     3     3     4   ar
     4     4     5   ar
     5     5     6    1
     6     5     7   ar
     7     7     8   ar
     8     8     9   ar
     9     9    10    1
    10    10    11   ar
    11    11    12   ar
    12    12    13   ar
    13    13    14   ar
    14     2    15   am
    15    15    16    1
    16    16    17    1
    17    17    18    1
    18    18    19    1
    19    19    20    1
    20    20    21    1
    21    21    22    1
    22    22    23   ar
    23    23    24   ar
    24    24    25   ar
    25    25    26   ar
    26    26    27    1
    27    27    28   ar
    28    28    29   ar
    29    29    30   ar
    30    30    31   ar
    31    26    32   ar
    32     9     3   ar
    33    14    10   ar
    34    20    15    1
    35    32    22   ar
    36    31    27   ar
    37     4    33    1
    38     7    34    1
    39     8    35    1
    40    12    36    1
    41    13    37    1
    42    16    38    1
    43    16    39    1
    44    17    40    1
    45    17    41    1
    46    19    42    1
    47    19    43    1
    48    20    44    1
    49    21    45    1
    50    21    46    1
    51    23    47    1
    52    24    48    1
    53    25    49    1
    54    29    50    1
    55    30    51    1
    56    32    52    1
