@<TRIPOS>MOLECULE
*****
 43 46 0 0 0
SMALL
GASTEIGER

@<TRIPOS>ATOM
      1 C          -5.8089    0.5105   -0.4181 C.3     1  UNL1        0.0309
      2 N          -4.9896   -0.0669    0.6757 N.ar    1  UNL1       -0.2667
      3 N          -5.3833   -0.9881    1.5262 N.ar    1  UNL1       -0.1793
      4 C          -4.4029   -1.2872    2.3853 C.ar    1  UNL1        0.0500
      5 C          -3.3326   -0.4976    2.0418 C.ar    1  UNL1       -0.0162
      6 C          -3.7299    0.2515    0.9729 C.ar    1  UNL1        0.0721
      7 C          -2.9221    1.2331    0.2709 C.ar    1  UNL1        0.0436
      8 C          -3.4441    2.4578   -0.0641 C.ar    1  UNL1       -0.0307
      9 C          -2.6919    3.4029   -0.7310 C.ar    1  UNL1        0.0418
     10 CL         -3.3609    4.9797   -1.1631 Cl      1  UNL1       -0.0835
     11 C          -1.3896    3.0840   -1.0564 C.ar    1  UNL1       -0.0399
     12 C          -0.8183    1.8557   -0.7375 C.ar    1  UNL1       -0.0173
     13 C          -1.5999    0.9476   -0.0754 C.ar    1  UNL1        0.1377
     14 O          -1.1426   -0.2911    0.2909 O.3     1  UNL1       -0.4538
     15 C           0.1304   -0.7932    0.1097 C.ar    1  UNL1        0.1495
     16 C           0.3670   -1.9116   -0.6981 C.ar    1  UNL1        0.0193
     17 C           1.6239   -2.4375   -0.8983 C.ar    1  UNL1        0.1535
     18 F           1.7977   -3.5244   -1.6921 F       1  UNL1       -0.2033
     19 C           2.7174   -1.8613   -0.2915 C.ar    1  UNL1        0.1452
     20 S           4.3107   -2.5464   -0.5509 S.O2    1  UNL1        0.0767
     21 O           4.2773   -3.9689   -0.1044 O.2     1  UNL1       -0.1498
     22 O           4.6224   -2.5135   -2.0134 O.2     1  UNL1       -0.1498
     23 N           5.5339   -1.6496    0.2742 N.pl3   1  UNL1       -0.1923
     24 C           5.8002   -0.3213   -0.0035 C.ar    1  UNL1        0.2004
     25 N           6.6766    0.6192    0.4729 N.ar    1  UNL1       -0.1248
     26 N           6.6957    1.7573    0.0191 N.ar    1  UNL1       -0.1481
     27 C           5.9885    2.2645   -0.8914 C.ar    1  UNL1        0.0902
     28 S           4.9664    0.7271   -1.2640 S.2     1  UNL1       -0.0376
     29 C           2.4892   -0.7632    0.5031 C.ar    1  UNL1       -0.0103
     30 C           1.2333   -0.2335    0.7067 C.ar    1  UNL1        0.0852
     31 CL          1.0438    1.1506    1.7576 Cl      1  UNL1       -0.0797
     32 H          -5.1860    0.8920   -1.2262 H       1  UNL1        0.0473
     33 H          -6.3897   -0.3492   -0.8244 H       1  UNL1        0.0473
     34 H          -6.5219    1.2417   -0.0405 H       1  UNL1        0.0473
     35 H          -4.4726   -2.0181    3.1877 H       1  UNL1        0.0848
     36 H          -2.3876   -0.5151    2.5590 H       1  UNL1        0.0654
     37 H          -4.4857    2.6876    0.2066 H       1  UNL1        0.0640
     38 H          -0.7675    3.8066   -1.5829 H       1  UNL1        0.0633
     39 H           0.2140    1.6298   -1.0190 H       1  UNL1        0.0655
     40 H          -0.4626   -2.3786   -1.1810 H       1  UNL1        0.0684
     41 H           6.0804   -2.1654    1.0128 H       1  UNL1        0.1758
     42 H           5.8068    3.1693   -1.4470 H       1  UNL1        0.0927
     43 H           3.3145   -0.2821    1.0009 H       1  UNL1        0.0654
@<TRIPOS>BOND
     1     1     2    1
     2     2     3   ar
     3     3     4   ar
     4     4     5   ar
     5     5     6   ar
     6     6     7    1
     7     7     8   ar
     8     8     9   ar
     9     9    10    1
    10     9    11   ar
    11    11    12   ar
    12    12    13   ar
    13    13    14    1
    14    14    15    1
    15    15    16   ar
    16    16    17   ar
    17    17    18    1
    18    17    19   ar
    19    19    20    1
    20    20    21    2
    21    20    22    2
    22    20    23    1
    23    23    24    1
    24    24    25   ar
    25    25    26   ar
    26    26    27   ar
    27    27    28   ar
    28    19    29   ar
    29    29    30   ar
    30    30    31    1
    31     6     2   ar
    32    13     7   ar
    33    30    15   ar
    34    28    24   ar
    35     1    32    1
    36     1    33    1
    37     1    34    1
    38     4    35    1
    39     5    36    1
    40     8    37    1
    41    11    38    1
    42    12    39    1
    43    16    40    1
    44    23    41    1
    45    27    42    1
    46    29    43    1
