
     RDKit          3D

 43 46  0  0  0  0  0  0  0  0999 V2000
   -5.8089    0.5105   -0.4181 C   0  0  0  0  0  0  0  0  0  0  0  0
   -4.9896   -0.0669    0.6757 N   0  0  0  0  0  0  0  0  0  0  0  0
   -5.3833   -0.9881    1.5262 N   0  0  0  0  0  0  0  0  0  0  0  0
   -4.4029   -1.2872    2.3853 C   0  0  0  0  0  0  0  0  0  0  0  0
   -3.3326   -0.4976    2.0418 C   0  0  0  0  0  0  0  0  0  0  0  0
   -3.7299    0.2515    0.9729 C   0  0  0  0  0  0  0  0  0  0  0  0
   -2.9221    1.2331    0.2709 C   0  0  0  0  0  0  0  0  0  0  0  0
   -3.4441    2.4578   -0.0641 C   0  0  0  0  0  0  0  0  0  0  0  0
   -2.6919    3.4029   -0.7310 C   0  0  0  0  0  0  0  0  0  0  0  0
   -3.3609    4.9797   -1.1631 Cl  0  0  0  0  0  0  0  0  0  0  0  0
   -1.3896    3.0840   -1.0564 C   0  0  0  0  0  0  0  0  0  0  0  0
   -0.8183    1.8557   -0.7375 C   0  0  0  0  0  0  0  0  0  0  0  0
   -1.5999    0.9476   -0.0754 C   0  0  0  0  0  0  0  0  0  0  0  0
   -1.1426   -0.2911    0.2909 O   0  0  0  0  0  0  0  0  0  0  0  0
    0.1304   -0.7932    0.1097 C   0  0  0  0  0  0  0  0  0  0  0  0
    0.3670   -1.9116   -0.6981 C   0  0  0  0  0  0  0  0  0  0  0  0
    1.6239   -2.4375   -0.8983 C   0  0  0  0  0  0  0  0  0  0  0  0
    1.7977   -3.5244   -1.6921 F   0  0  0  0  0  0  0  0  0  0  0  0
    2.7174   -1.8613   -0.2915 C   0  0  0  0  0  0  0  0  0  0  0  0
    4.3107   -2.5464   -0.5509 S   0  0  0  0  0  6  0  0  0  0  0  0
    4.2773   -3.9689   -0.1044 O   0  0  0  0  0  0  0  0  0  0  0  0
    4.6224   -2.5135   -2.0134 O   0  0  0  0  0  0  0  0  0  0  0  0
    5.5339   -1.6496    0.2742 N   0  0  0  0  0  0  0  0  0  0  0  0
    5.8002   -0.3213   -0.0035 C   0  0  0  0  0  0  0  0  0  0  0  0
    6.6766    0.6192    0.4729 N   0  0  0  0  0  0  0  0  0  0  0  0
    6.6957    1.7573    0.0191 N   0  0  0  0  0  0  0  0  0  0  0  0
    5.9885    2.2645   -0.8914 C   0  0  0  0  0  0  0  0  0  0  0  0
    4.9664    0.7271   -1.2640 S   0  0  0  0  0  0  0  0  0  0  0  0
    2.4892   -0.7632    0.5031 C   0  0  0  0  0  0  0  0  0  0  0  0
    1.2333   -0.2335    0.7067 C   0  0  0  0  0  0  0  0  0  0  0  0
    1.0438    1.1506    1.7576 Cl  0  0  0  0  0  0  0  0  0  0  0  0
   -5.1860    0.8920   -1.2262 H   0  0  0  0  0  0  0  0  0  0  0  0
   -6.3897   -0.3492   -0.8244 H   0  0  0  0  0  0  0  0  0  0  0  0
   -6.5219    1.2417   -0.0405 H   0  0  0  0  0  0  0  0  0  0  0  0
   -4.4726   -2.0181    3.1877 H   0  0  0  0  0  0  0  0  0  0  0  0
   -2.3876   -0.5151    2.5590 H   0  0  0  0  0  0  0  0  0  0  0  0
   -4.4857    2.6876    0.2066 H   0  0  0  0  0  0  0  0  0  0  0  0
   -0.7675    3.8066   -1.5829 H   0  0  0  0  0  0  0  0  0  0  0  0
    0.2140    1.6298   -1.0190 H   0  0  0  0  0  0  0  0  0  0  0  0
   -0.4626   -2.3786   -1.1810 H   0  0  0  0  0  0  0  0  0  0  0  0
    6.0804   -2.1654    1.0128 H   0  0  0  0  0  0  0  0  0  0  0  0
    5.8068    3.1693   -1.4470 H   0  0  0  0  0  0  0  0  0  0  0  0
    3.3145   -0.2821    1.0009 H   0  0  0  0  0  0  0  0  0  0  0  0
  1  2  1  0
  2  3  1  0
  3  4  2  0
  4  5  1  0
  5  6  2  0
  6  7  1  0
  7  8  2  0
  8  9  1  0
  9 10  1  0
  9 11  2  0
 11 12  1  0
 12 13  2  0
 13 14  1  0
 14 15  1  0
 15 16  2  0
 16 17  1  0
 17 18  1  0
 17 19  2  0
 19 20  1  0
 20 21  2  0
 20 22  2  0
 20 23  1  0
 23 24  1  0
 24 25  2  0
 25 26  1  0
 26 27  2  0
 27 28  1  0
 19 29  1  0
 29 30  2  0
 30 31  1  0
  6  2  1  0
 13  7  1  0
 30 15  1  0
 28 24  1  0
  1 32  1  0
  1 33  1  0
  1 34  1  0
  4 35  1  0
  5 36  1  0
  8 37  1  0
 11 38  1  0
 12 39  1  0
 16 40  1  0
 23 41  1  0
 27 42  1  0
 29 43  1  0
M  END
$$$$
