@<TRIPOS>MOLECULE
*****
 58 60 0 0 0
SMALL
GASTEIGER

@<TRIPOS>ATOM
      1 C           0.2288    0.8566    1.9148 C.3     1  UNL1        0.1023
      2 C           0.7056   -0.4067    2.5321 C.3     1  UNL1       -0.0243
      3 C          -0.1466   -1.5241    2.0329 C.3     1  UNL1       -0.0350
      4 C          -1.2867   -0.8595    1.2956 C.3     1  UNL1        0.0156
      5 N          -0.9703    0.5452    1.1685 N.am    1  UNL1       -0.2880
      6 C          -1.8010    1.3647    0.3979 C.2     1  UNL1        0.2420
      7 O          -1.2843    2.5518    0.4503 O.2     1  UNL1       -0.2731
      8 C          -2.9661    1.5545   -0.4421 C.3     1  UNL1        0.1242
      9 O          -3.8106    0.5337   -0.7201 O.3     1  UNL1       -0.3674
     10 C          -4.4878   -0.0935    0.2791 C.3     1  UNL1        0.0593
     11 C          -4.5135   -1.5709    0.0265 C.3     1  UNL1       -0.0266
     12 C          -4.7138   -1.6913   -1.4973 C.3     1  UNL1       -0.0507
     13 C          -6.1453   -1.3143   -1.7499 C.3     1  UNL1       -0.0529
     14 C          -6.5065    0.0256   -1.2056 C.3     1  UNL1       -0.0507
     15 C          -6.0057    0.2832    0.1738 C.3     1  UNL1       -0.0266
     16 C           1.2560    1.4306    0.9887 C.2     1  UNL1        0.2338
     17 O           1.0464    1.5699   -0.2347 O.2     1  UNL1       -0.2738
     18 N           2.5255    1.8434    1.4784 N.am    1  UNL1       -0.3097
     19 C           3.6089    2.4084    0.7272 C.3     1  UNL1        0.0369
     20 C           4.3175    1.3755   -0.0458 C.ar    1  UNL1       -0.0303
     21 C           5.3745    0.7477    0.6226 C.ar    1  UNL1       -0.0563
     22 C           6.1472   -0.2341    0.0612 C.ar    1  UNL1       -0.0466
     23 C           5.8634   -0.6209   -1.2337 C.ar    1  UNL1        0.0647
     24 C           4.8434   -0.0392   -1.9273 C.ar    1  UNL1       -0.0466
     25 C           4.0880    0.9450   -1.3293 C.ar    1  UNL1       -0.0563
     26 C           6.6569   -1.6667   -1.8864 C.2     1  UNL1        0.3081
     27 N           7.2282   -2.6842   -1.0505 N.pl3   1  UNL1       -0.2466
     28 N           6.9259   -1.8084   -3.1572 N.2     1  UNL1       -0.0994
     29 H          -0.0436    1.6406    2.6799 H       1  UNL1        0.0597
     30 H           0.6127   -0.3624    3.6535 H       1  UNL1        0.0288
     31 H           1.7908   -0.5604    2.3205 H       1  UNL1        0.0288
     32 H           0.4788   -2.1726    1.3791 H       1  UNL1        0.0281
     33 H          -0.5265   -2.1573    2.8489 H       1  UNL1        0.0281
     34 H          -2.2152   -0.9580    1.8839 H       1  UNL1        0.0465
     35 H          -1.3298   -1.3580    0.3018 H       1  UNL1        0.0465
     36 H          -2.5617    1.8781   -1.4666 H       1  UNL1        0.0657
     37 H          -3.5353    2.4883   -0.1407 H       1  UNL1        0.0657
     38 H          -4.2430    0.1646    1.3047 H       1  UNL1        0.0596
     39 H          -5.4205   -2.0511    0.4991 H       1  UNL1        0.0290
     40 H          -3.5990   -2.0751    0.2893 H       1  UNL1        0.0290
     41 H          -4.5170   -2.7055   -1.8413 H       1  UNL1        0.0266
     42 H          -4.0307   -0.9392   -1.9426 H       1  UNL1        0.0266
     43 H          -6.8099   -2.1079   -1.3279 H       1  UNL1        0.0265
     44 H          -6.3224   -1.2987   -2.8572 H       1  UNL1        0.0265
     45 H          -6.2058    0.8476   -1.9111 H       1  UNL1        0.0266
     46 H          -7.6142    0.0761   -1.1653 H       1  UNL1        0.0266
     47 H          -6.5023   -0.4134    0.8745 H       1  UNL1        0.0290
     48 H          -6.1829    1.3066    0.4787 H       1  UNL1        0.0290
     49 H           2.6561    1.7057    2.5163 H       1  UNL1        0.1491
     50 H           3.2251    3.1927    0.0263 H       1  UNL1        0.0512
     51 H           4.3019    2.9285    1.4100 H       1  UNL1        0.0512
     52 H           5.6546    1.0038    1.6484 H       1  UNL1        0.0621
     53 H           6.9605   -0.7193    0.5713 H       1  UNL1        0.0626
     54 H           4.5793   -0.3047   -2.9432 H       1  UNL1        0.0626
     55 H           3.2691    1.4426   -1.8296 H       1  UNL1        0.0621
     56 H           8.0888   -2.6714   -0.4657 H       1  UNL1        0.2884
     57 H           7.2981   -3.6144   -0.5966 H       1  UNL1        0.2884
     58 H           6.5658   -1.1295   -3.8681 H       1  UNL1        0.3633
@<TRIPOS>BOND
     1     1     2    1
     2     2     3    1
     3     3     4    1
     4     4     5    1
     5     5     6   am
     6     6     7    2
     7     6     8    1
     8     8     9    1
     9     9    10    1
    10    10    11    1
    11    11    12    1
    12    12    13    1
    13    13    14    1
    14    14    15    1
    15     1    16    1
    16    16    17    2
    17    16    18   am
    18    18    19    1
    19    19    20    1
    20    20    21   ar
    21    21    22   ar
    22    22    23   ar
    23    23    24   ar
    24    24    25   ar
    25    23    26    1
    26    26    27    1
    27    26    28    2
    28     5     1    1
    29    15    10    1
    30    25    20   ar
    31     1    29    1
    32     2    30    1
    33     2    31    1
    34     3    32    1
    35     3    33    1
    36     4    34    1
    37     4    35    1
    38     8    36    1
    39     8    37    1
    40    10    38    1
    41    11    39    1
    42    11    40    1
    43    12    41    1
    44    12    42    1
    45    13    43    1
    46    13    44    1
    47    14    45    1
    48    14    46    1
    49    15    47    1
    50    15    48    1
    51    18    49    1
    52    19    50    1
    53    19    51    1
    54    21    52    1
    55    22    53    1
    56    24    54    1
    57    25    55    1
    58    27    56    1
    59    27    57    1
    60    28    58    1
