
     RDKit          3D

 58 62  0  0  0  0  0  0  0  0999 V2000
    2.6995    0.4564    2.7653 O   0  0  0  0  0  0  0  0  0  0  0  0
    2.0392    0.8198    1.4663 S   0  0  0  0  0  6  0  0  0  0  0  0
    1.2422    2.0783    1.8467 O   0  0  0  0  0  0  0  0  0  0  0  0
    3.1268    1.3439    0.2594 C   0  0  0  0  0  0  0  0  0  0  0  0
    3.0368    2.5002   -0.4720 C   0  0  0  0  0  0  0  0  0  0  0  0
    3.9618    2.8381   -1.4252 C   0  0  0  0  0  0  0  0  0  0  0  0
    5.0513    2.0165   -1.7024 C   0  0  0  0  0  0  0  0  0  0  0  0
    6.2328    2.4508   -2.9213 Cl  0  0  0  0  0  0  0  0  0  0  0  0
    5.1567    0.8561   -0.9801 C   0  0  0  0  0  0  0  0  0  0  0  0
    4.2259    0.5211   -0.0244 C   0  0  0  0  0  0  0  0  0  0  0  0
    0.7989   -0.3537    0.9699 C   0  0  0  0  0  0  0  0  0  0  0  0
    0.0176   -0.5943    2.2664 C   0  0  0  0  0  0  0  0  0  0  0  0
   -1.2436    0.2240    2.3624 C   0  0  0  0  0  0  0  0  0  0  0  0
   -2.0928   -0.3165    1.2410 C   0  0  0  0  0  0  0  0  0  0  0  0
   -1.4993    0.0266   -0.1056 C   0  0  1  0  0  0  0  0  0  0  0  0
   -2.0971   -0.9731   -1.0701 C   0  0  0  0  0  0  0  0  0  0  0  0
   -3.5224   -0.5072   -1.3040 C   0  0  0  0  0  0  0  0  0  0  0  0
   -3.3467    0.9032   -1.3213 N   0  0  0  0  0  0  0  0  0  0  0  0
   -4.7172    1.8497   -1.3008 S   0  0  0  0  0  6  0  0  0  0  0  0
   -4.2957    3.3128   -1.3442 O   0  0  0  0  0  0  0  0  0  0  0  0
   -5.5875    1.6473   -2.5173 O   0  0  0  0  0  0  0  0  0  0  0  0
   -5.7423    1.6658    0.1299 C   0  0  0  0  0  0  0  0  0  0  0  0
   -6.2113    0.3981    0.3042 F   0  0  0  0  0  0  0  0  0  0  0  0
   -6.8601    2.4866   -0.0703 F   0  0  0  0  0  0  0  0  0  0  0  0
   -5.1228    2.1570    1.2794 F   0  0  0  0  0  0  0  0  0  0  0  0
   -2.2385    1.3049   -0.5533 C   0  0  0  0  0  0  0  0  0  0  0  0
   -0.0463    0.2009   -0.1287 C   0  0  0  0  0  0  0  0  0  0  0  0
    0.5832   -0.1340   -1.4832 C   0  0  0  0  0  0  0  0  0  0  0  0
    0.6855   -1.5280   -1.6450 O   0  0  0  0  0  0  0  0  0  0  0  0
    1.2889   -2.2247   -0.6176 C   0  0  0  0  0  0  0  0  0  0  0  0
    1.8339   -3.5015   -0.8927 C   0  0  0  0  0  0  0  0  0  0  0  0
    1.7408   -3.9791   -2.1396 F   0  0  0  0  0  0  0  0  0  0  0  0
    2.4417   -4.2306    0.0959 C   0  0  0  0  0  0  0  0  0  0  0  0
    2.5095   -3.6952    1.3555 C   0  0  0  0  0  0  0  0  0  0  0  0
    1.9694   -2.4499    1.5909 C   0  0  0  0  0  0  0  0  0  0  0  0
    2.0586   -1.9851    2.8284 F   0  0  0  0  0  0  0  0  0  0  0  0
    1.3483   -1.6782    0.6293 C   0  0  0  0  0  0  0  0  0  0  0  0
    2.1944    3.1422   -0.2625 H   0  0  0  0  0  0  0  0  0  0  0  0
    3.8947    3.7476   -2.0031 H   0  0  0  0  0  0  0  0  0  0  0  0
    5.9938    0.1819   -1.1631 H   0  0  0  0  0  0  0  0  0  0  0  0
    4.3627   -0.3936    0.5038 H   0  0  0  0  0  0  0  0  0  0  0  0
    0.6427   -0.3343    3.1176 H   0  0  0  0  0  0  0  0  0  0  0  0
   -0.2819   -1.6512    2.3807 H   0  0  0  0  0  0  0  0  0  0  0  0
   -1.0943    1.2988    2.2886 H   0  0  0  0  0  0  0  0  0  0  0  0
   -1.7299   -0.0691    3.3099 H   0  0  0  0  0  0  0  0  0  0  0  0
   -3.1415    0.0221    1.2567 H   0  0  0  0  0  0  0  0  0  0  0  0
   -2.0985   -1.4260    1.3214 H   0  0  0  0  0  0  0  0  0  0  0  0
   -1.5395   -1.1027   -2.0079 H   0  0  0  0  0  0  0  0  0  0  0  0
   -2.1988   -1.9914   -0.6373 H   0  0  0  0  0  0  0  0  0  0  0  0
   -3.9495   -0.8404   -2.2439 H   0  0  0  0  0  0  0  0  0  0  0  0
   -4.1819   -0.7840   -0.4782 H   0  0  0  0  0  0  0  0  0  0  0  0
   -1.5243    1.8131   -1.2562 H   0  0  0  0  0  0  0  0  0  0  0  0
   -2.4336    1.9733    0.2838 H   0  0  0  0  0  0  0  0  0  0  0  0
    0.1223    1.3275   -0.0730 H   0  0  0  0  0  0  0  0  0  0  0  0
    0.0671    0.3706   -2.3125 H   0  0  0  0  0  0  0  0  0  0  0  0
    1.6097    0.2808   -1.4773 H   0  0  0  0  0  0  0  0  0  0  0  0
    2.8712   -5.2153   -0.0817 H   0  0  0  0  0  0  0  0  0  0  0  0
    2.9895   -4.2570    2.1622 H   0  0  0  0  0  0  0  0  0  0  0  0
  1  2  2  0
  2  3  2  0
  2  4  1  0
  4  5  2  0
  5  6  1  0
  6  7  2  0
  7  8  1  0
  7  9  1  0
  9 10  2  0
  2 11  1  0
 11 12  1  0
 12 13  1  0
 13 14  1  0
 15 14  1  1
 15 16  1  0
 16 17  1  0
 17 18  1  0
 18 19  1  0
 19 20  2  0
 19 21  2  0
 19 22  1  0
 22 23  1  0
 22 24  1  0
 22 25  1  0
 18 26  1  0
 15 27  1  0
 27 28  1  0
 28 29  1  0
 29 30  1  0
 30 31  2  0
 31 32  1  0
 31 33  1  0
 33 34  2  0
 34 35  1  0
 35 36  1  0
 35 37  2  0
 10  4  1  0
 27 11  1  0
 37 30  1  0
 37 11  1  0
 26 15  1  0
  5 38  1  0
  6 39  1  0
  9 40  1  0
 10 41  1  0
 12 42  1  0
 12 43  1  0
 13 44  1  0
 13 45  1  0
 14 46  1  0
 14 47  1  0
 16 48  1  0
 16 49  1  0
 17 50  1  0
 17 51  1  0
 26 52  1  0
 26 53  1  0
 27 54  1  0
 28 55  1  0
 28 56  1  0
 33 57  1  0
 34 58  1  0
M  END
$$$$
