@<TRIPOS>MOLECULE
*****
 58 62 0 0 0
SMALL
GASTEIGER

@<TRIPOS>ATOM
      1 O           2.6995    0.4564    2.7653 O.2     1  UNL1       -0.1685
      2 S           2.0392    0.8198    1.4663 S.O2    1  UNL1        0.0072
      3 O           1.2422    2.0783    1.8467 O.2     1  UNL1       -0.1685
      4 C           3.1268    1.3439    0.2594 C.ar    1  UNL1        0.0893
      5 C           3.0368    2.5002   -0.4720 C.ar    1  UNL1       -0.0355
      6 C           3.9618    2.8381   -1.4252 C.ar    1  UNL1       -0.0416
      7 C           5.0513    2.0165   -1.7024 C.ar    1  UNL1        0.0411
      8 CL          6.2328    2.4508   -2.9213 Cl      1  UNL1       -0.0835
      9 C           5.1567    0.8561   -0.9801 C.ar    1  UNL1       -0.0416
     10 C           4.2259    0.5211   -0.0244 C.ar    1  UNL1       -0.0355
     11 C           0.7989   -0.3537    0.9699 C.3     1  UNL1        0.1301
     12 C           0.0176   -0.5943    2.2664 C.3     1  UNL1       -0.0227
     13 C          -1.2436    0.2240    2.3624 C.3     1  UNL1       -0.0502
     14 C          -2.0928   -0.3165    1.2410 C.3     1  UNL1       -0.0456
     15 C          -1.4993    0.0266   -0.1056 C.3     1  UNL1       -0.0054
     16 C          -2.0971   -0.9731   -1.0701 C.3     1  UNL1       -0.0312
     17 C          -3.5224   -0.5072   -1.3040 C.3     1  UNL1        0.0210
     18 N          -3.3467    0.9032   -1.3213 N.3     1  UNL1       -0.1725
     19 S          -4.7172    1.8497   -1.3008 S.O2    1  UNL1        0.1290
     20 O          -4.2957    3.3128   -1.3442 O.2     1  UNL1       -0.1495
     21 O          -5.5875    1.6473   -2.5173 O.2     1  UNL1       -0.1495
     22 C          -5.7423    1.6658    0.1299 C.3     1  UNL1        0.5359
     23 F          -6.2113    0.3981    0.3042 F       1  UNL1       -0.1493
     24 F          -6.8601    2.4866   -0.0703 F       1  UNL1       -0.1493
     25 F          -5.1228    2.1570    1.2794 F       1  UNL1       -0.1493
     26 C          -2.2385    1.3049   -0.5533 C.3     1  UNL1        0.0265
     27 C          -0.0463    0.2009   -0.1287 C.3     1  UNL1        0.0298
     28 C           0.5832   -0.1340   -1.4832 C.3     1  UNL1        0.0954
     29 O           0.6855   -1.5280   -1.6450 O.3     1  UNL1       -0.4883
     30 C           1.2889   -2.2247   -0.6176 C.ar    1  UNL1        0.1635
     31 C           1.8339   -3.5015   -0.8927 C.ar    1  UNL1        0.1653
     32 F           1.7408   -3.9791   -2.1396 F       1  UNL1       -0.2016
     33 C           2.4417   -4.2306    0.0959 C.ar    1  UNL1       -0.0201
     34 C           2.5095   -3.6952    1.3555 C.ar    1  UNL1       -0.0232
     35 C           1.9694   -2.4499    1.5909 C.ar    1  UNL1        0.1323
     36 F           2.0586   -1.9851    2.8284 F       1  UNL1       -0.2050
     37 C           1.3483   -1.6782    0.6293 C.ar    1  UNL1        0.0600
     38 H           2.1944    3.1422   -0.2625 H       1  UNL1        0.0637
     39 H           3.8947    3.7476   -2.0031 H       1  UNL1        0.0633
     40 H           5.9938    0.1819   -1.1631 H       1  UNL1        0.0633
     41 H           4.3627   -0.3936    0.5038 H       1  UNL1        0.0637
     42 H           0.6427   -0.3343    3.1176 H       1  UNL1        0.0290
     43 H          -0.2819   -1.6512    2.3807 H       1  UNL1        0.0290
     44 H          -1.0943    1.2988    2.2886 H       1  UNL1        0.0266
     45 H          -1.7299   -0.0691    3.3099 H       1  UNL1        0.0266
     46 H          -3.1415    0.0221    1.2567 H       1  UNL1        0.0271
     47 H          -2.0985   -1.4260    1.3214 H       1  UNL1        0.0271
     48 H          -1.5395   -1.1027   -2.0079 H       1  UNL1        0.0284
     49 H          -2.1988   -1.9914   -0.6373 H       1  UNL1        0.0284
     50 H          -3.9495   -0.8404   -2.2439 H       1  UNL1        0.0444
     51 H          -4.1819   -0.7840   -0.4782 H       1  UNL1        0.0444
     52 H          -1.5243    1.8131   -1.2562 H       1  UNL1        0.0449
     53 H          -2.4336    1.9733    0.2838 H       1  UNL1        0.0449
     54 H           0.1223    1.3275   -0.0730 H       1  UNL1        0.0364
     55 H           0.0671    0.3706   -2.3125 H       1  UNL1        0.0700
     56 H           1.6097    0.2808   -1.4773 H       1  UNL1        0.0700
     57 H           2.8712   -5.2153   -0.0817 H       1  UNL1        0.0648
     58 H           2.9895   -4.2570    2.1622 H       1  UNL1        0.0647
@<TRIPOS>BOND
     1     1     2    2
     2     2     3    2
     3     2     4    1
     4     4     5   ar
     5     5     6   ar
     6     6     7   ar
     7     7     8    1
     8     7     9   ar
     9     9    10   ar
    10     2    11    1
    11    11    12    1
    12    12    13    1
    13    13    14    1
    14    15    14    1
    15    15    16    1
    16    16    17    1
    17    17    18    1
    18    18    19    1
    19    19    20    2
    20    19    21    2
    21    19    22    1
    22    22    23    1
    23    22    24    1
    24    22    25    1
    25    18    26    1
    26    15    27    1
    27    27    28    1
    28    28    29    1
    29    29    30    1
    30    30    31   ar
    31    31    32    1
    32    31    33   ar
    33    33    34   ar
    34    34    35   ar
    35    35    36    1
    36    35    37   ar
    37    10     4   ar
    38    27    11    1
    39    37    30   ar
    40    37    11    1
    41    26    15    1
    42     5    38    1
    43     6    39    1
    44     9    40    1
    45    10    41    1
    46    12    42    1
    47    12    43    1
    48    13    44    1
    49    13    45    1
    50    14    46    1
    51    14    47    1
    52    16    48    1
    53    16    49    1
    54    17    50    1
    55    17    51    1
    56    26    52    1
    57    26    53    1
    58    27    54    1
    59    28    55    1
    60    28    56    1
    61    33    57    1
    62    34    58    1
