@<TRIPOS>MOLECULE
*****
 51 54 0 0 0
SMALL
GASTEIGER

@<TRIPOS>ATOM
      1 O          -4.0397   -1.3736    1.2929 O.2     1  UNL1       -0.2451
      2 C          -5.1940   -0.9270    1.2026 C.2     1  UNL1        0.3387
      3 O          -6.1410   -1.3931    2.1045 O.3     1  UNL1       -0.4771
      4 C          -5.5602    0.0552    0.1884 C.ar    1  UNL1        0.0814
      5 C          -6.8547    0.5259    0.1225 C.ar    1  UNL1       -0.0276
      6 C          -7.2335    1.4510   -0.8197 C.ar    1  UNL1        0.0419
      7 CL         -8.8941    2.0235   -0.8675 Cl      1  UNL1       -0.0835
      8 C          -6.2814    1.8956   -1.6983 C.ar    1  UNL1       -0.0416
      9 C          -4.9894    1.4287   -1.6360 C.ar    1  UNL1       -0.0383
     10 C          -4.5968    0.4989   -0.6933 C.ar    1  UNL1        0.0488
     11 N          -3.2670    0.0066   -0.6153 N.am    1  UNL1       -0.2685
     12 C          -2.2963    0.6462    0.1870 C.2     1  UNL1        0.3065
     13 O          -2.6138    1.6762    0.8493 O.2     1  UNL1       -0.2523
     14 N          -0.9674    0.1465    0.2591 N.am    1  UNL1       -0.2848
     15 C          -0.4951   -1.0123   -0.4476 C.3     1  UNL1        0.0193
     16 C           0.7218   -1.4370    0.3334 C.3     1  UNL1       -0.0203
     17 C           1.9519   -1.0863   -0.5210 C.3     1  UNL1       -0.0416
     18 C           3.0438   -0.8400    0.4852 C.3     1  UNL1       -0.0147
     19 C           4.1098    0.0556    0.0686 C.ar    1  UNL1       -0.0326
     20 C           3.9427    1.4228    0.0715 C.ar    1  UNL1       -0.0578
     21 C           4.9371    2.3170   -0.3378 C.ar    1  UNL1       -0.0615
     22 C           6.1258    1.7762   -0.7576 C.ar    1  UNL1       -0.0612
     23 C           6.2889    0.4068   -0.7592 C.ar    1  UNL1       -0.0498
     24 C           5.3214   -0.4867   -0.3597 C.ar    1  UNL1        0.0582
     25 C           5.5696   -1.9512   -0.3838 C.3     1  UNL1        0.4177
     26 F           6.8655   -2.1521   -0.8728 F       1  UNL1       -0.1659
     27 F           4.7462   -2.6261   -1.2604 F       1  UNL1       -0.1659
     28 F           5.6021   -2.5119    0.8779 F       1  UNL1       -0.1659
     29 C           2.3468   -0.2987    1.7028 C.3     1  UNL1       -0.0416
     30 C           0.8664   -0.5249    1.4900 C.3     1  UNL1       -0.0203
     31 C           0.1274    0.7200    1.0538 C.3     1  UNL1        0.0193
     32 H          -6.0950   -2.3275    2.5261 H       1  UNL1        0.2954
     33 H          -7.6309    0.1839    0.8149 H       1  UNL1        0.0641
     34 H          -6.5781    2.6309   -2.4490 H       1  UNL1        0.0633
     35 H          -4.2791    1.8022   -2.3405 H       1  UNL1        0.0637
     36 H          -2.9831   -0.8561   -1.1640 H       1  UNL1        0.1564
     37 H          -1.2317   -1.8498   -0.4342 H       1  UNL1        0.0468
     38 H          -0.2617   -0.8161   -1.5162 H       1  UNL1        0.0468
     39 H           0.7209   -2.5111    0.5962 H       1  UNL1        0.0319
     40 H           1.7459   -0.2195   -1.1587 H       1  UNL1        0.0274
     41 H           2.1091   -2.0065   -1.1226 H       1  UNL1        0.0274
     42 H           3.4275   -1.8575    0.7685 H       1  UNL1        0.0349
     43 H           3.0296    1.9272    0.3810 H       1  UNL1        0.0620
     44 H           4.7743    3.3880   -0.3234 H       1  UNL1        0.0618
     45 H           6.9095    2.4475   -1.0788 H       1  UNL1        0.0618
     46 H           7.2419   -0.0272   -1.0959 H       1  UNL1        0.0623
     47 H           2.6841   -0.8475    2.6363 H       1  UNL1        0.0274
     48 H           2.4662    0.7831    1.8757 H       1  UNL1        0.0274
     49 H           0.4412   -0.9142    2.4373 H       1  UNL1        0.0319
     50 H           0.7036    1.3990    0.4262 H       1  UNL1        0.0468
     51 H          -0.3369    1.2393    1.9140 H       1  UNL1        0.0468
@<TRIPOS>BOND
     1     1     2    2
     2     2     3    1
     3     2     4    1
     4     4     5   ar
     5     5     6   ar
     6     6     7    1
     7     6     8   ar
     8     8     9   ar
     9     9    10   ar
    10    10    11    1
    11    11    12   am
    12    12    13    2
    13    12    14   am
    14    14    15    1
    15    15    16    1
    16    16    17    1
    17    17    18    1
    18    18    19    1
    19    19    20   ar
    20    20    21   ar
    21    21    22   ar
    22    22    23   ar
    23    23    24   ar
    24    24    25    1
    25    25    26    1
    26    25    27    1
    27    25    28    1
    28    18    29    1
    29    29    30    1
    30    30    31    1
    31    10     4   ar
    32    31    14    1
    33    30    16    1
    34    24    19   ar
    35     3    32    1
    36     5    33    1
    37     8    34    1
    38     9    35    1
    39    11    36    1
    40    15    37    1
    41    15    38    1
    42    16    39    1
    43    17    40    1
    44    17    41    1
    45    18    42    1
    46    20    43    1
    47    21    44    1
    48    22    45    1
    49    23    46    1
    50    29    47    1
    51    29    48    1
    52    30    49    1
    53    31    50    1
    54    31    51    1
