
     RDKit          3D

 75 78  0  0  0  0  0  0  0  0999 V2000
   -1.9042   -1.3215   -0.5901 C   0  0  2  0  0  0  0  0  0  0  0  0
   -1.4799   -2.7559   -0.6892 C   0  0  0  0  0  0  0  0  0  0  0  0
    0.0226   -2.6244   -0.9256 C   0  0  0  0  0  0  0  0  0  0  0  0
    0.3493   -1.1498   -0.6966 C   0  0  2  0  0  0  0  0  0  0  0  0
    0.1065   -0.4619   -1.9007 O   0  0  0  0  0  0  0  0  0  0  0  0
    1.6938   -0.9228   -0.1574 C   0  0  0  0  0  0  0  0  0  0  0  0
    2.1964   -1.3542    0.8711 O   0  0  0  0  0  0  0  0  0  0  0  0
    2.5887   -0.0463   -0.9595 C   0  0  0  0  0  0  0  0  0  0  0  0
    3.8456    0.1526   -0.3770 O   0  0  0  0  0  0  0  0  0  0  0  0
    4.7015   -0.8879   -0.1146 C   0  0  0  0  0  0  0  0  0  0  0  0
    4.3801   -2.0726   -0.3941 O   0  0  0  0  0  0  0  0  0  0  0  0
    6.0521   -0.8707    0.4933 C   0  0  0  0  0  0  0  0  0  0  0  0
    6.4913    0.4969    0.7215 N   0  0  0  0  0  0  0  0  0  0  0  0
    7.7802    0.4894    1.4315 C   0  0  0  0  0  0  0  0  0  0  0  0
    7.5135   -0.0346    2.8312 C   0  0  0  0  0  0  0  0  0  0  0  0
    6.6684    1.2079   -0.5415 C   0  0  0  0  0  0  0  0  0  0  0  0
    7.1151    2.6298   -0.2075 C   0  0  0  0  0  0  0  0  0  0  0  0
   -0.7501   -0.7831    0.2623 C   0  0  2  0  0  0  0  0  0  0  0  0
   -0.5773   -1.5700    1.5191 C   0  0  0  0  0  0  0  0  0  0  0  0
   -0.9368    0.6710    0.4599 C   0  0  0  0  0  0  0  0  0  0  0  0
   -2.3267    1.0490    0.9093 C   0  0  2  0  0  0  0  0  0  0  0  0
   -2.5430    0.8633    2.2704 O   0  0  0  0  0  0  0  0  0  0  0  0
   -3.3804    0.4333    0.0647 C   0  0  1  0  0  0  0  0  0  0  0  0
   -3.2311   -1.0864    0.0260 C   0  0  1  0  0  0  0  0  0  0  0  0
   -4.2732   -1.7298   -0.8402 C   0  0  0  0  0  0  0  0  0  0  0  0
   -5.6069   -1.0825   -0.8645 C   0  0  0  0  0  0  0  0  0  0  0  0
   -5.5843    0.4049   -0.7855 C   0  0  0  0  0  0  0  0  0  0  0  0
   -6.1376    1.3136   -1.5731 C   0  0  0  0  0  0  0  0  0  0  0  0
   -6.0608    2.7718   -1.4147 C   0  0  0  0  0  0  0  0  0  0  0  0
   -6.9523    3.4124   -2.0187 O   0  0  0  0  0  0  0  0  0  0  0  0
   -4.9046    3.1338   -0.5481 C   0  0  0  0  0  0  0  0  0  0  0  0
   -4.9046    2.2780    0.6961 C   0  0  0  0  0  0  0  0  0  0  0  0
   -4.7754    0.8266    0.4169 C   0  0  2  0  0  0  0  0  0  0  0  0
   -5.3322    0.0777    1.5972 C   0  0  0  0  0  0  0  0  0  0  0  0
   -1.7884   -0.8781   -1.5912 H   0  0  0  0  0  0  0  0  0  0  0  0
   -1.6861   -3.3449    0.2222 H   0  0  0  0  0  0  0  0  0  0  0  0
   -1.9743   -3.3053   -1.5190 H   0  0  0  0  0  0  0  0  0  0  0  0
    0.6193   -3.3017   -0.3059 H   0  0  0  0  0  0  0  0  0  0  0  0
    0.1676   -2.8176   -2.0145 H   0  0  0  0  0  0  0  0  0  0  0  0
    0.5119   -0.9440   -2.6799 H   0  0  0  0  0  0  0  0  0  0  0  0
    2.1175    0.9597   -1.1618 H   0  0  0  0  0  0  0  0  0  0  0  0
    2.6669   -0.5251   -1.9632 H   0  0  0  0  0  0  0  0  0  0  0  0
    6.0459   -1.3893    1.4701 H   0  0  0  0  0  0  0  0  0  0  0  0
    6.7428   -1.3641   -0.2486 H   0  0  0  0  0  0  0  0  0  0  0  0
    8.1784    1.5164    1.4694 H   0  0  0  0  0  0  0  0  0  0  0  0
    8.4332   -0.1976    0.8854 H   0  0  0  0  0  0  0  0  0  0  0  0
    6.4147   -0.1099    3.0274 H   0  0  0  0  0  0  0  0  0  0  0  0
    7.9432    0.6971    3.5501 H   0  0  0  0  0  0  0  0  0  0  0  0
    7.9570   -1.0391    2.9645 H   0  0  0  0  0  0  0  0  0  0  0  0
    7.4066    0.7031   -1.2068 H   0  0  0  0  0  0  0  0  0  0  0  0
    5.6996    1.2907   -1.0289 H   0  0  0  0  0  0  0  0  0  0  0  0
    6.6959    2.8924    0.7834 H   0  0  0  0  0  0  0  0  0  0  0  0
    8.2185    2.7174   -0.1651 H   0  0  0  0  0  0  0  0  0  0  0  0
    6.6801    3.3480   -0.9451 H   0  0  0  0  0  0  0  0  0  0  0  0
   -0.1876   -0.8556    2.2917 H   0  0  0  0  0  0  0  0  0  0  0  0
   -1.4962   -2.0933    1.8719 H   0  0  0  0  0  0  0  0  0  0  0  0
    0.1825   -2.3748    1.4471 H   0  0  0  0  0  0  0  0  0  0  0  0
   -0.6394    1.2727   -0.4221 H   0  0  0  0  0  0  0  0  0  0  0  0
   -0.2540    0.9852    1.2905 H   0  0  0  0  0  0  0  0  0  0  0  0
   -2.3623    2.1696    0.7626 H   0  0  0  0  0  0  0  0  0  0  0  0
   -2.6105   -0.0647    2.5600 H   0  0  0  0  0  0  0  0  0  0  0  0
   -3.2006    0.7744   -0.9898 H   0  0  0  0  0  0  0  0  0  0  0  0
   -3.2444   -1.4344    1.0574 H   0  0  0  0  0  0  0  0  0  0  0  0
   -3.8793   -1.9334   -1.8652 H   0  0  0  0  0  0  0  0  0  0  0  0
   -4.4332   -2.7638   -0.4112 H   0  0  0  0  0  0  0  0  0  0  0  0
   -6.0909   -1.3715   -1.8432 H   0  0  0  0  0  0  0  0  0  0  0  0
   -6.2968   -1.4470   -0.0633 H   0  0  0  0  0  0  0  0  0  0  0  0
   -6.6778    0.8011   -2.3848 H   0  0  0  0  0  0  0  0  0  0  0  0
   -3.9669    3.0676   -1.1146 H   0  0  0  0  0  0  0  0  0  0  0  0
   -5.0343    4.1890   -0.2404 H   0  0  0  0  0  0  0  0  0  0  0  0
   -4.2127    2.6015    1.4667 H   0  0  0  0  0  0  0  0  0  0  0  0
   -5.9317    2.4164    1.1538 H   0  0  0  0  0  0  0  0  0  0  0  0
   -5.1652   -1.0084    1.5745 H   0  0  0  0  0  0  0  0  0  0  0  0
   -6.4453    0.2049    1.6208 H   0  0  0  0  0  0  0  0  0  0  0  0
   -4.9474    0.4989    2.5413 H   0  0  0  0  0  0  0  0  0  0  0  0
  1  2  1  0
  2  3  1  0
  3  4  1  0
  4  5  1  6
  4  6  1  0
  6  7  2  0
  6  8  1  0
  8  9  1  0
  9 10  1  0
 10 11  2  0
 10 12  1  0
 12 13  1  0
 13 14  1  0
 14 15  1  0
 13 16  1  0
 16 17  1  0
  4 18  1  0
 18 19  1  1
 18 20  1  0
 20 21  1  0
 21 22  1  0
 21 23  1  0
 23 24  1  0
 24 25  1  0
 25 26  1  0
 26 27  1  0
 27 28  2  0
 28 29  1  0
 29 30  2  0
 29 31  1  0
 31 32  1  0
 32 33  1  0
 33 34  1  1
 18  1  1  0
 33 23  1  0
 24  1  1  0
 33 27  1  0
  1 35  1  6
  2 36  1  0
  2 37  1  0
  3 38  1  0
  3 39  1  0
  5 40  1  0
  8 41  1  0
  8 42  1  0
 12 43  1  0
 12 44  1  0
 14 45  1  0
 14 46  1  0
 15 47  1  0
 15 48  1  0
 15 49  1  0
 16 50  1  0
 16 51  1  0
 17 52  1  0
 17 53  1  0
 17 54  1  0
 19 55  1  0
 19 56  1  0
 19 57  1  0
 20 58  1  0
 20 59  1  0
 21 60  1  1
 22 61  1  0
 23 62  1  6
 24 63  1  1
 25 64  1  0
 25 65  1  0
 26 66  1  0
 26 67  1  0
 28 68  1  0
 31 69  1  0
 31 70  1  0
 32 71  1  0
 32 72  1  0
 34 73  1  0
 34 74  1  0
 34 75  1  0
M  END
$$$$
