@<TRIPOS>MOLECULE
*****
 75 78 0 0 0
SMALL
GASTEIGER

@<TRIPOS>ATOM
      1 C          -1.9042   -1.3215   -0.5901 C.3     1  UNL1       -0.0292
      2 C          -1.4799   -2.7559   -0.6892 C.3     1  UNL1       -0.0463
      3 C           0.0226   -2.6244   -0.9256 C.3     1  UNL1       -0.0161
      4 C           0.3493   -1.1498   -0.6966 C.3     1  UNL1        0.1326
      5 O           0.1065   -0.4619   -1.9007 O.3     1  UNL1       -0.3804
      6 C           1.6938   -0.9228   -0.1574 C.2     1  UNL1        0.2022
      7 O           2.1964   -1.3542    0.8711 O.2     1  UNL1       -0.2907
      8 C           2.5887   -0.0463   -0.9595 C.3     1  UNL1        0.1531
      9 O           3.8456    0.1526   -0.3770 O.3     1  UNL1       -0.4559
     10 C           4.7015   -0.8879   -0.1146 C.2     1  UNL1        0.3217
     11 O           4.3801   -2.0726   -0.3941 O.2     1  UNL1       -0.2494
     12 C           6.0521   -0.8707    0.4933 C.3     1  UNL1        0.0969
     13 N           6.4913    0.4969    0.7215 N.3     1  UNL1       -0.2930
     14 C           7.7802    0.4894    1.4315 C.3     1  UNL1       -0.0034
     15 C           7.5135   -0.0346    2.8312 C.3     1  UNL1       -0.0523
     16 C           6.6684    1.2079   -0.5415 C.3     1  UNL1       -0.0034
     17 C           7.1151    2.6298   -0.2075 C.3     1  UNL1       -0.0523
     18 C          -0.7501   -0.7831    0.2623 C.3     1  UNL1        0.0092
     19 C          -0.5773   -1.5700    1.5191 C.3     1  UNL1       -0.0562
     20 C          -0.9368    0.6710    0.4599 C.3     1  UNL1       -0.0179
     21 C          -2.3267    1.0490    0.9093 C.3     1  UNL1        0.0597
     22 O          -2.5430    0.8633    2.2704 O.3     1  UNL1       -0.3915
     23 C          -3.3804    0.4333    0.0647 C.3     1  UNL1       -0.0028
     24 C          -3.2311   -1.0864    0.0260 C.3     1  UNL1       -0.0314
     25 C          -4.2732   -1.7298   -0.8402 C.3     1  UNL1       -0.0459
     26 C          -5.6069   -1.0825   -0.8645 C.3     1  UNL1       -0.0305
     27 C          -5.5843    0.4049   -0.7855 C.2     1  UNL1       -0.0600
     28 C          -6.1376    1.3136   -1.5731 C.2     1  UNL1       -0.0194
     29 C          -6.0608    2.7718   -1.4147 C.2     1  UNL1        0.1561
     30 O          -6.9523    3.4124   -2.0187 O.2     1  UNL1       -0.2927
     31 C          -4.9046    3.1338   -0.5481 C.3     1  UNL1        0.0107
     32 C          -4.9046    2.2780    0.6961 C.3     1  UNL1       -0.0366
     33 C          -4.7754    0.8266    0.4169 C.3     1  UNL1       -0.0049
     34 C          -5.3322    0.0777    1.5972 C.3     1  UNL1       -0.0555
     35 H          -1.7884   -0.8781   -1.5912 H       1  UNL1        0.0310
     36 H          -1.6861   -3.3449    0.2222 H       1  UNL1        0.0269
     37 H          -1.9743   -3.3053   -1.5190 H       1  UNL1        0.0269
     38 H           0.6193   -3.3017   -0.3059 H       1  UNL1        0.0297
     39 H           0.1676   -2.8176   -2.0145 H       1  UNL1        0.0297
     40 H           0.5119   -0.9440   -2.6799 H       1  UNL1        0.2108
     41 H           2.1175    0.9597   -1.1618 H       1  UNL1        0.0779
     42 H           2.6669   -0.5251   -1.9632 H       1  UNL1        0.0779
     43 H           6.0459   -1.3893    1.4701 H       1  UNL1        0.0542
     44 H           6.7428   -1.3641   -0.2486 H       1  UNL1        0.0542
     45 H           8.1784    1.5164    1.4694 H       1  UNL1        0.0424
     46 H           8.4332   -0.1976    0.8854 H       1  UNL1        0.0424
     47 H           6.4147   -0.1099    3.0274 H       1  UNL1        0.0242
     48 H           7.9432    0.6971    3.5501 H       1  UNL1        0.0242
     49 H           7.9570   -1.0391    2.9645 H       1  UNL1        0.0242
     50 H           7.4066    0.7031   -1.2068 H       1  UNL1        0.0424
     51 H           5.6996    1.2907   -1.0289 H       1  UNL1        0.0424
     52 H           6.6959    2.8924    0.7834 H       1  UNL1        0.0242
     53 H           8.2185    2.7174   -0.1651 H       1  UNL1        0.0242
     54 H           6.6801    3.3480   -0.9451 H       1  UNL1        0.0242
     55 H          -0.1876   -0.8556    2.2917 H       1  UNL1        0.0236
     56 H          -1.4962   -2.0933    1.8719 H       1  UNL1        0.0236
     57 H           0.1825   -2.3748    1.4471 H       1  UNL1        0.0236
     58 H          -0.6394    1.2727   -0.4221 H       1  UNL1        0.0297
     59 H          -0.2540    0.9852    1.2905 H       1  UNL1        0.0297
     60 H          -2.3623    2.1696    0.7626 H       1  UNL1        0.0596
     61 H          -2.6105   -0.0647    2.5600 H       1  UNL1        0.2098
     62 H          -3.2006    0.7744   -0.9898 H       1  UNL1        0.0337
     63 H          -3.2444   -1.4344    1.0574 H       1  UNL1        0.0307
     64 H          -3.8793   -1.9334   -1.8652 H       1  UNL1        0.0271
     65 H          -4.4332   -2.7638   -0.4112 H       1  UNL1        0.0271
     66 H          -6.0909   -1.3715   -1.8432 H       1  UNL1        0.0310
     67 H          -6.2968   -1.4470   -0.0633 H       1  UNL1        0.0310
     68 H          -6.6778    0.8011   -2.3848 H       1  UNL1        0.0652
     69 H          -3.9669    3.0676   -1.1146 H       1  UNL1        0.0345
     70 H          -5.0343    4.1890   -0.2404 H       1  UNL1        0.0345
     71 H          -4.2127    2.6015    1.4667 H       1  UNL1        0.0278
     72 H          -5.9317    2.4164    1.1538 H       1  UNL1        0.0278
     73 H          -5.1652   -1.0084    1.5745 H       1  UNL1        0.0238
     74 H          -6.4453    0.2049    1.6208 H       1  UNL1        0.0238
     75 H          -4.9474    0.4989    2.5413 H       1  UNL1        0.0238
@<TRIPOS>BOND
     1     1     2    1
     2     2     3    1
     3     3     4    1
     4     4     5    1
     5     4     6    1
     6     6     7    2
     7     6     8    1
     8     8     9    1
     9     9    10    1
    10    10    11    2
    11    10    12    1
    12    12    13    1
    13    13    14    1
    14    14    15    1
    15    13    16    1
    16    16    17    1
    17     4    18    1
    18    18    19    1
    19    18    20    1
    20    20    21    1
    21    21    22    1
    22    21    23    1
    23    23    24    1
    24    24    25    1
    25    25    26    1
    26    26    27    1
    27    27    28    2
    28    28    29    1
    29    29    30    2
    30    29    31    1
    31    31    32    1
    32    32    33    1
    33    33    34    1
    34    18     1    1
    35    33    23    1
    36    24     1    1
    37    33    27    1
    38     1    35    1
    39     2    36    1
    40     2    37    1
    41     3    38    1
    42     3    39    1
    43     5    40    1
    44     8    41    1
    45     8    42    1
    46    12    43    1
    47    12    44    1
    48    14    45    1
    49    14    46    1
    50    15    47    1
    51    15    48    1
    52    15    49    1
    53    16    50    1
    54    16    51    1
    55    17    52    1
    56    17    53    1
    57    17    54    1
    58    19    55    1
    59    19    56    1
    60    19    57    1
    61    20    58    1
    62    20    59    1
    63    21    60    1
    64    22    61    1
    65    23    62    1
    66    24    63    1
    67    25    64    1
    68    25    65    1
    69    26    66    1
    70    26    67    1
    71    28    68    1
    72    31    69    1
    73    31    70    1
    74    32    71    1
    75    32    72    1
    76    34    73    1
    77    34    74    1
    78    34    75    1
