@<TRIPOS>MOLECULE
*****
 43 45 0 0 0
SMALL
GASTEIGER

@<TRIPOS>ATOM
      1 C          -1.8785    1.3749    0.0336 C.3     1  UNL1        0.0415
      2 C          -2.0231    2.0159   -1.3207 C.3     1  UNL1       -0.0466
      3 C          -3.1898    1.2317    0.7749 C.3     1  UNL1        0.0129
      4 N          -3.9675    0.0998    0.4426 N.3     1  UNL1       -0.3144
      5 C          -3.5402   -1.1644    0.9416 C.3     1  UNL1       -0.0028
      6 C          -2.6742   -1.8402   -0.1318 C.3     1  UNL1       -0.0259
      7 C          -1.8795   -0.7575   -0.8487 C.3     1  UNL1        0.0220
      8 N          -1.1764    0.0954   -0.0390 N.3     1  UNL1       -0.1725
      9 S          -0.0434   -0.1917    1.1079 S.O2    1  UNL1        0.0617
     10 O          -0.5549    0.7514    2.2233 O.2     1  UNL1       -0.1528
     11 O          -0.2462   -1.3715    2.0436 O.2     1  UNL1       -0.1528
     12 C           1.5659    0.3938    0.9521 C.ar    1  UNL1        0.1135
     13 C           2.6413   -0.1287    0.2735 C.ar    1  UNL1        0.0142
     14 C           2.5002   -1.4154   -0.2107 C.ar    1  UNL1       -0.0228
     15 C           1.3112   -2.2420    0.0097 C.3     1  UNL1       -0.0376
     16 C           3.6250   -1.9423   -0.8738 C.ar    1  UNL1        0.0311
     17 N           4.8210   -1.3151   -1.0777 N.ar    1  UNL1       -0.2624
     18 C           4.9287   -0.0672   -0.5922 C.ar    1  UNL1        0.0353
     19 C           3.8507    0.4835    0.0615 C.ar    1  UNL1        0.0023
     20 C           4.0908    1.7481    0.5543 C.ar    1  UNL1       -0.0525
     21 C           3.1151    2.4045    1.2625 C.ar    1  UNL1       -0.0593
     22 C           1.9184    1.6920    1.4175 C.ar    1  UNL1       -0.0347
     23 H          -1.2391    2.0420    0.6483 H       1  UNL1        0.0490
     24 H          -3.0760    2.1223   -1.6344 H       1  UNL1        0.0246
     25 H          -1.4432    1.3979   -2.0335 H       1  UNL1        0.0246
     26 H          -1.5668    3.0267   -1.3587 H       1  UNL1        0.0246
     27 H          -3.7885    2.1444    0.5811 H       1  UNL1        0.0440
     28 H          -2.9559    1.2198    1.8559 H       1  UNL1        0.0440
     29 H          -4.4793    0.0866   -0.4337 H       1  UNL1        0.1220
     30 H          -2.9752   -1.1046    1.8873 H       1  UNL1        0.0424
     31 H          -4.4218   -1.8241    1.0754 H       1  UNL1        0.0424
     32 H          -2.0362   -2.6386    0.2889 H       1  UNL1        0.0290
     33 H          -3.3804   -2.3221   -0.8369 H       1  UNL1        0.0290
     34 H          -1.3928   -1.2435   -1.7206 H       1  UNL1        0.0444
     35 H          -2.6948   -0.1574   -1.3795 H       1  UNL1        0.0444
     36 H           0.3923   -2.0213   -0.4680 H       1  UNL1        0.0278
     37 H           1.3681   -2.9297    0.8777 H       1  UNL1        0.0278
     38 H           1.5277   -3.1036   -0.7447 H       1  UNL1        0.0278
     39 H           3.6270   -2.9506   -1.2997 H       1  UNL1        0.0832
     40 H           5.8529    0.4478   -0.7357 H       1  UNL1        0.0836
     41 H           5.0251    2.2680    0.4133 H       1  UNL1        0.0624
     42 H           3.2669    3.3858    1.6617 H       1  UNL1        0.0618
     43 H           1.1952    2.2988    1.9963 H       1  UNL1        0.0637
@<TRIPOS>BOND
     1     1     2    1
     2     1     3    1
     3     3     4    1
     4     4     5    1
     5     5     6    1
     6     6     7    1
     7     7     8    1
     8     8     9    1
     9     9    10    2
    10     9    11    2
    11     9    12    1
    12    12    13   ar
    13    13    14   ar
    14    14    15    1
    15    14    16   ar
    16    16    17   ar
    17    17    18   ar
    18    18    19   ar
    19    19    20   ar
    20    20    21   ar
    21    21    22   ar
    22     8     1    1
    23    22    12   ar
    24    19    13   ar
    25     1    23    1
    26     2    24    1
    27     2    25    1
    28     2    26    1
    29     3    27    1
    30     3    28    1
    31     4    29    1
    32     5    30    1
    33     5    31    1
    34     6    32    1
    35     6    33    1
    36     7    34    1
    37     7    35    1
    38    15    36    1
    39    15    37    1
    40    15    38    1
    41    16    39    1
    42    18    40    1
    43    20    41    1
    44    21    42    1
    45    22    43    1
