
     RDKit          3D

 43 45  0  0  0  0  0  0  0  0999 V2000
   -1.8785    1.3749    0.0336 C   0  0  1  0  0  0  0  0  0  0  0  0
   -2.0231    2.0159   -1.3207 C   0  0  0  0  0  0  0  0  0  0  0  0
   -3.1898    1.2317    0.7749 C   0  0  0  0  0  0  0  0  0  0  0  0
   -3.9675    0.0998    0.4426 N   0  0  0  0  0  0  0  0  0  0  0  0
   -3.5402   -1.1644    0.9416 C   0  0  0  0  0  0  0  0  0  0  0  0
   -2.6742   -1.8402   -0.1318 C   0  0  0  0  0  0  0  0  0  0  0  0
   -1.8795   -0.7575   -0.8487 C   0  0  0  0  0  0  0  0  0  0  0  0
   -1.1764    0.0954   -0.0390 N   0  0  0  0  0  0  0  0  0  0  0  0
   -0.0434   -0.1917    1.1079 S   0  0  0  0  0  0  0  0  0  0  0  0
   -0.5549    0.7514    2.2233 O   0  0  0  0  0  0  0  0  0  0  0  0
   -0.2462   -1.3715    2.0436 O   0  0  0  0  0  0  0  0  0  0  0  0
    1.5659    0.3938    0.9521 C   0  0  0  0  0  0  0  0  0  0  0  0
    2.6413   -0.1287    0.2735 C   0  0  0  0  0  0  0  0  0  0  0  0
    2.5002   -1.4154   -0.2107 C   0  0  0  0  0  0  0  0  0  0  0  0
    1.3112   -2.2420    0.0097 C   0  0  0  0  0  0  0  0  0  0  0  0
    3.6250   -1.9423   -0.8738 C   0  0  0  0  0  0  0  0  0  0  0  0
    4.8210   -1.3151   -1.0777 N   0  0  0  0  0  0  0  0  0  0  0  0
    4.9287   -0.0672   -0.5922 C   0  0  0  0  0  0  0  0  0  0  0  0
    3.8507    0.4835    0.0615 C   0  0  0  0  0  0  0  0  0  0  0  0
    4.0908    1.7481    0.5543 C   0  0  0  0  0  0  0  0  0  0  0  0
    3.1151    2.4045    1.2625 C   0  0  0  0  0  0  0  0  0  0  0  0
    1.9184    1.6920    1.4175 C   0  0  0  0  0  0  0  0  0  0  0  0
   -1.2391    2.0420    0.6483 H   0  0  0  0  0  0  0  0  0  0  0  0
   -3.0760    2.1223   -1.6344 H   0  0  0  0  0  0  0  0  0  0  0  0
   -1.4432    1.3979   -2.0335 H   0  0  0  0  0  0  0  0  0  0  0  0
   -1.5668    3.0267   -1.3587 H   0  0  0  0  0  0  0  0  0  0  0  0
   -3.7885    2.1444    0.5811 H   0  0  0  0  0  0  0  0  0  0  0  0
   -2.9559    1.2198    1.8559 H   0  0  0  0  0  0  0  0  0  0  0  0
   -4.4793    0.0866   -0.4337 H   0  0  0  0  0  0  0  0  0  0  0  0
   -2.9752   -1.1046    1.8873 H   0  0  0  0  0  0  0  0  0  0  0  0
   -4.4218   -1.8241    1.0754 H   0  0  0  0  0  0  0  0  0  0  0  0
   -2.0362   -2.6386    0.2889 H   0  0  0  0  0  0  0  0  0  0  0  0
   -3.3804   -2.3221   -0.8369 H   0  0  0  0  0  0  0  0  0  0  0  0
   -1.3928   -1.2435   -1.7206 H   0  0  0  0  0  0  0  0  0  0  0  0
   -2.6948   -0.1574   -1.3795 H   0  0  0  0  0  0  0  0  0  0  0  0
    0.3923   -2.0213   -0.4680 H   0  0  0  0  0  0  0  0  0  0  0  0
    1.3681   -2.9297    0.8777 H   0  0  0  0  0  0  0  0  0  0  0  0
    1.5277   -3.1036   -0.7447 H   0  0  0  0  0  0  0  0  0  0  0  0
    3.6270   -2.9506   -1.2997 H   0  0  0  0  0  0  0  0  0  0  0  0
    5.8529    0.4478   -0.7357 H   0  0  0  0  0  0  0  0  0  0  0  0
    5.0251    2.2680    0.4133 H   0  0  0  0  0  0  0  0  0  0  0  0
    3.2669    3.3858    1.6617 H   0  0  0  0  0  0  0  0  0  0  0  0
    1.1952    2.2988    1.9963 H   0  0  0  0  0  0  0  0  0  0  0  0
  1  2  1  0
  1  3  1  0
  3  4  1  0
  4  5  1  0
  5  6  1  0
  6  7  1  0
  7  8  1  0
  8  9  1  0
  9 10  2  0
  9 11  2  0
  9 12  1  0
 12 13  1  0
 13 14  2  0
 14 15  1  0
 14 16  1  0
 16 17  2  0
 17 18  1  0
 18 19  2  0
 19 20  1  0
 20 21  2  0
 21 22  1  0
  8  1  1  0
 22 12  2  0
 19 13  1  0
  1 23  1  1
  2 24  1  0
  2 25  1  0
  2 26  1  0
  3 27  1  0
  3 28  1  0
  4 29  1  0
  5 30  1  0
  5 31  1  0
  6 32  1  0
  6 33  1  0
  7 34  1  0
  7 35  1  0
 15 36  1  0
 15 37  1  0
 15 38  1  0
 16 39  1  0
 18 40  1  0
 20 41  1  0
 21 42  1  0
 22 43  1  0
M  END
$$$$
