@<TRIPOS>MOLECULE
*****
 67 71 0 0 0
SMALL
GASTEIGER

@<TRIPOS>ATOM
      1 C          -2.3855   -4.4016   -1.3936 C.3     1  UNL1       -0.0025
      2 C          -2.9255   -3.0738   -0.9423 C.1     1  UNL1       -0.1027
      3 C          -3.3217   -2.0468   -0.5935 C.1     1  UNL1       -0.0673
      4 C          -3.8051   -0.7379   -0.1346 C.3     1  UNL1        0.1320
      5 O          -4.3892   -0.7359    1.1017 O.3     1  UNL1       -0.3760
      6 C          -4.6363   -0.0360   -1.2171 C.3     1  UNL1       -0.0118
      7 C          -3.5996    0.4422   -2.2395 C.3     1  UNL1       -0.0455
      8 C          -2.2317    0.1819   -1.6064 C.3     1  UNL1       -0.0254
      9 C          -1.2603    1.2468   -1.8228 C.3     1  UNL1       -0.0150
     10 C          -0.6219    1.4228   -3.1358 C.3     1  UNL1       -0.0422
     11 C          -0.0641    2.8699   -3.1011 C.3     1  UNL1       -0.0268
     12 C           0.6501    3.0737   -1.8139 C.2     1  UNL1       -0.0409
     13 C           1.1652    4.2843   -1.6150 C.2     1  UNL1       -0.0158
     14 C           1.8733    4.4245   -0.3299 C.2     1  UNL1        0.1567
     15 O           1.7452    5.4599    0.3343 O.2     1  UNL1       -0.2927
     16 C           2.7043    3.2571    0.0504 C.3     1  UNL1        0.0139
     17 C           1.8762    1.9744    0.1720 C.3     1  UNL1       -0.0204
     18 C           0.7768    2.0170   -0.7731 C.2     1  UNL1       -0.0436
     19 C          -0.1349    1.0931   -0.7871 C.2     1  UNL1       -0.0553
     20 C          -0.1963   -0.0869    0.0251 C.3     1  UNL1        0.0066
     21 C           0.8981   -0.6556    0.7457 C.ar    1  UNL1       -0.0401
     22 C           1.1310   -0.3697    2.0996 C.ar    1  UNL1       -0.0563
     23 C           2.1511   -0.9260    2.8293 C.ar    1  UNL1       -0.0404
     24 C           3.0200   -1.8245    2.2258 C.ar    1  UNL1        0.0292
     25 N           4.0916   -2.4155    2.9526 N.pl3   1  UNL1       -0.3360
     26 C           4.3126   -2.0741    4.3322 C.3     1  UNL1        0.0004
     27 C           4.9706   -3.3565    2.3391 C.3     1  UNL1        0.0004
     28 C           2.8142   -2.1322    0.8748 C.ar    1  UNL1       -0.0404
     29 C           1.7714   -1.5423    0.1930 C.ar    1  UNL1       -0.0563
     30 C          -1.5281   -0.1301    0.8061 C.3     1  UNL1       -0.0332
     31 C          -2.6222    0.2200   -0.1166 C.3     1  UNL1        0.0122
     32 C          -3.1775    1.5823    0.2528 C.3     1  UNL1       -0.0557
     33 H          -2.9040   -4.6619   -2.3220 H       1  UNL1        0.0362
     34 H          -2.5880   -5.1223   -0.5783 H       1  UNL1        0.0362
     35 H          -1.3046   -4.3329   -1.6128 H       1  UNL1        0.0362
     36 H          -4.1066   -1.5399    1.5929 H       1  UNL1        0.2114
     37 H          -5.1341    0.8335   -0.7931 H       1  UNL1        0.0303
     38 H          -5.3104   -0.7481   -1.7184 H       1  UNL1        0.0303
     39 H          -3.6786    1.4920   -2.4874 H       1  UNL1        0.0269
     40 H          -3.6886   -0.1564   -3.1767 H       1  UNL1        0.0269
     41 H          -1.9862   -0.8419   -1.8814 H       1  UNL1        0.0313
     42 H          -1.7800    2.2301   -1.5818 H       1  UNL1        0.0349
     43 H           0.2268    0.7805   -3.3524 H       1  UNL1        0.0274
     44 H          -1.3640    1.4556   -3.9600 H       1  UNL1        0.0274
     45 H          -0.9536    3.5226   -3.0899 H       1  UNL1        0.0313
     46 H           0.5488    3.0753   -3.9745 H       1  UNL1        0.0313
     47 H           1.0616    5.1018   -2.3188 H       1  UNL1        0.0655
     48 H           3.4533    3.0937   -0.7423 H       1  UNL1        0.0348
     49 H           3.1971    3.4205    1.0476 H       1  UNL1        0.0348
     50 H           2.6207    1.1665    0.0417 H       1  UNL1        0.0317
     51 H           1.5225    2.0650    1.2434 H       1  UNL1        0.0317
     52 H          -0.4372   -0.9253   -0.7723 H       1  UNL1        0.0394
     53 H           0.4701    0.3291    2.5928 H       1  UNL1        0.0621
     54 H           2.3080   -0.6796    3.8783 H       1  UNL1        0.0636
     55 H           3.3585   -2.0608    4.8864 H       1  UNL1        0.0428
     56 H           4.8991   -1.1392    4.4097 H       1  UNL1        0.0428
     57 H           4.9379   -2.8663    4.8423 H       1  UNL1        0.0428
     58 H           5.9249   -3.4188    2.9296 H       1  UNL1        0.0428
     59 H           5.2291   -3.1377    1.2849 H       1  UNL1        0.0428
     60 H           4.5424   -4.3992    2.3581 H       1  UNL1        0.0428
     61 H           3.4655   -2.8270    0.3680 H       1  UNL1        0.0636
     62 H           1.6505   -1.8133   -0.8445 H       1  UNL1        0.0621
     63 H          -1.5084    0.5736    1.6488 H       1  UNL1        0.0281
     64 H          -1.6395   -1.1870    1.1642 H       1  UNL1        0.0281
     65 H          -4.0741    1.4034    0.8930 H       1  UNL1        0.0236
     66 H          -2.4793    2.1416    0.9095 H       1  UNL1        0.0236
     67 H          -3.5312    2.1681   -0.5964 H       1  UNL1        0.0236
@<TRIPOS>BOND
     1     1     2    1
     2     2     3    3
     3     4     3    1
     4     4     5    1
     5     4     6    1
     6     6     7    1
     7     7     8    1
     8     8     9    1
     9     9    10    1
    10    10    11    1
    11    11    12    1
    12    12    13    2
    13    13    14    1
    14    14    15    2
    15    14    16    1
    16    16    17    1
    17    17    18    1
    18    18    19    2
    19    19    20    1
    20    20    21    1
    21    21    22   ar
    22    22    23   ar
    23    23    24   ar
    24    24    25    1
    25    25    26    1
    26    25    27    1
    27    24    28   ar
    28    28    29   ar
    29    20    30    1
    30    30    31    1
    31    31    32    1
    32    31     4    1
    33    31     8    1
    34    19     9    1
    35    29    21   ar
    36    18    12    1
    37     1    33    1
    38     1    34    1
    39     1    35    1
    40     5    36    1
    41     6    37    1
    42     6    38    1
    43     7    39    1
    44     7    40    1
    45     8    41    1
    46     9    42    1
    47    10    43    1
    48    10    44    1
    49    11    45    1
    50    11    46    1
    51    13    47    1
    52    16    48    1
    53    16    49    1
    54    17    50    1
    55    17    51    1
    56    20    52    1
    57    22    53    1
    58    23    54    1
    59    26    55    1
    60    26    56    1
    61    26    57    1
    62    27    58    1
    63    27    59    1
    64    27    60    1
    65    28    61    1
    66    29    62    1
    67    30    63    1
    68    30    64    1
    69    32    65    1
    70    32    66    1
    71    32    67    1
