@<TRIPOS>MOLECULE
*****
 43 45 0 0 0
SMALL
GASTEIGER

@<TRIPOS>ATOM
      1 N           7.9658   -0.0788    0.7507 N.2     1  UNL1       -0.0994
      2 C           7.2847    0.9164    0.3313 C.2     1  UNL1        0.3081
      3 N           7.9095    2.1329   -0.0525 N.pl3   1  UNL1       -0.2466
      4 C           5.8318    0.8398    0.2302 C.ar    1  UNL1        0.0653
      5 C           5.0606    1.9720    0.3884 C.ar    1  UNL1       -0.0463
      6 C           3.6994    1.8903    0.2916 C.ar    1  UNL1       -0.0531
      7 C           3.0838    0.6595    0.0321 C.ar    1  UNL1       -0.0144
      8 C           1.7297    0.5729   -0.0655 C.ar    1  UNL1       -0.0115
      9 C           1.1033   -0.6100   -0.3174 C.ar    1  UNL1        0.1326
     10 O          -0.3073   -0.6369   -0.4077 O.3     1  UNL1       -0.4223
     11 C          -1.1112   -0.8586    0.6839 C.2     1  UNL1        0.3444
     12 O          -0.5091   -1.0409    1.7944 O.2     1  UNL1       -0.2445
     13 C          -2.5644   -0.8939    0.6335 C.ar    1  UNL1        0.0596
     14 C          -3.2323   -0.6989   -0.5549 C.ar    1  UNL1       -0.0444
     15 C          -4.5848   -0.7171   -0.6827 C.ar    1  UNL1       -0.0188
     16 C          -5.3611   -0.9430    0.4331 C.ar    1  UNL1        0.1420
     17 N          -6.7858   -0.9674    0.3308 N.pl3   1  UNL1       -0.0734
     18 C          -7.3729   -0.0189   -0.2939 C.cat   1  UNL1        0.3821
     19 N          -6.6081    1.0266   -0.8664 N.pl3   1  UNL1       -0.2889
     20 N          -8.7806    0.0046   -0.4240 N.pl3   1  UNL1       -0.2889
     21 C          -4.7175   -1.1423    1.6411 C.ar    1  UNL1       -0.0188
     22 C          -3.3315   -1.1203    1.7530 C.ar    1  UNL1       -0.0444
     23 C           1.8503   -1.7471   -0.4779 C.ar    1  UNL1       -0.0186
     24 C           3.2252   -1.6872   -0.3838 C.ar    1  UNL1       -0.0505
     25 C           3.8498   -0.4712   -0.1261 C.ar    1  UNL1       -0.0168
     26 C           5.2348   -0.3865   -0.0273 C.ar    1  UNL1       -0.0392
     27 H           7.5174   -0.9650    1.0309 H       1  UNL1        0.3633
     28 H           8.8553    2.3581    0.3506 H       1  UNL1        0.2884
     29 H           7.4491    2.7998   -0.7218 H       1  UNL1        0.2884
     30 H           5.4996    2.9395    0.5897 H       1  UNL1        0.0626
     31 H           3.0622    2.7572    0.4099 H       1  UNL1        0.0624
     32 H           1.1367    1.4652    0.0602 H       1  UNL1        0.0660
     33 H          -2.5960   -0.5200   -1.4348 H       1  UNL1        0.0627
     34 H          -5.0192   -0.5508   -1.6733 H       1  UNL1        0.0653
     35 H          -6.8221    1.3611   -1.8331 H       1  UNL1        0.2547
     36 H          -5.8322    1.4643   -0.3281 H       1  UNL1        0.2547
     37 H          -9.2789   -0.7531   -0.9424 H       1  UNL1        0.2547
     38 H          -9.3634    0.7613   -0.0174 H       1  UNL1        0.2547
     39 H          -5.3576   -1.3181    2.5033 H       1  UNL1        0.0653
     40 H          -2.8709   -1.2823    2.7244 H       1  UNL1        0.0627
     41 H           1.3572   -2.6879   -0.6779 H       1  UNL1        0.0654
     42 H           3.8694   -2.5451   -0.4998 H       1  UNL1        0.0625
     43 H           5.8311   -1.2802   -0.1529 H       1  UNL1        0.0632
@<TRIPOS>BOND
     1     1     2    2
     2     2     3    1
     3     2     4    1
     4     4     5   ar
     5     5     6   ar
     6     6     7   ar
     7     7     8   ar
     8     8     9   ar
     9     9    10    1
    10    10    11    1
    11    11    12    2
    12    11    13    1
    13    13    14   ar
    14    14    15   ar
    15    15    16   ar
    16    16    17    1
    17    17    18    2
    18    18    19    1
    19    18    20    1
    20    16    21   ar
    21    21    22   ar
    22     9    23   ar
    23    23    24   ar
    24    24    25   ar
    25    25    26   ar
    26    26     4   ar
    27    25     7   ar
    28    22    13   ar
    29     1    27    1
    30     3    28    1
    31     3    29    1
    32     5    30    1
    33     6    31    1
    34     8    32    1
    35    14    33    1
    36    15    34    1
    37    19    35    1
    38    19    36    1
    39    20    37    1
    40    20    38    1
    41    21    39    1
    42    22    40    1
    43    23    41    1
    44    24    42    1
    45    26    43    1
