
     RDKit          3D

 43 45  0  0  0  0  0  0  0  0999 V2000
    7.9658   -0.0788    0.7507 N   0  0  0  0  0  0  0  0  0  0  0  0
    7.2847    0.9164    0.3313 C   0  0  0  0  0  0  0  0  0  0  0  0
    7.9095    2.1329   -0.0525 N   0  0  0  0  0  0  0  0  0  0  0  0
    5.8318    0.8398    0.2302 C   0  0  0  0  0  0  0  0  0  0  0  0
    5.0606    1.9720    0.3884 C   0  0  0  0  0  0  0  0  0  0  0  0
    3.6994    1.8903    0.2916 C   0  0  0  0  0  0  0  0  0  0  0  0
    3.0838    0.6595    0.0321 C   0  0  0  0  0  0  0  0  0  0  0  0
    1.7297    0.5729   -0.0655 C   0  0  0  0  0  0  0  0  0  0  0  0
    1.1033   -0.6100   -0.3174 C   0  0  0  0  0  0  0  0  0  0  0  0
   -0.3073   -0.6369   -0.4077 O   0  0  0  0  0  0  0  0  0  0  0  0
   -1.1112   -0.8586    0.6839 C   0  0  0  0  0  0  0  0  0  0  0  0
   -0.5091   -1.0409    1.7944 O   0  0  0  0  0  0  0  0  0  0  0  0
   -2.5644   -0.8939    0.6335 C   0  0  0  0  0  0  0  0  0  0  0  0
   -3.2323   -0.6989   -0.5549 C   0  0  0  0  0  0  0  0  0  0  0  0
   -4.5848   -0.7171   -0.6827 C   0  0  0  0  0  0  0  0  0  0  0  0
   -5.3611   -0.9430    0.4331 C   0  0  0  0  0  0  0  0  0  0  0  0
   -6.7858   -0.9674    0.3308 N   0  0  0  0  0  0  0  0  0  0  0  0
   -7.3729   -0.0189   -0.2939 C   0  0  0  0  0  0  0  0  0  0  0  0
   -6.6081    1.0266   -0.8664 N   0  0  0  0  0  0  0  0  0  0  0  0
   -8.7806    0.0046   -0.4240 N   0  0  0  0  0  0  0  0  0  0  0  0
   -4.7175   -1.1423    1.6411 C   0  0  0  0  0  0  0  0  0  0  0  0
   -3.3315   -1.1203    1.7530 C   0  0  0  0  0  0  0  0  0  0  0  0
    1.8503   -1.7471   -0.4779 C   0  0  0  0  0  0  0  0  0  0  0  0
    3.2252   -1.6872   -0.3838 C   0  0  0  0  0  0  0  0  0  0  0  0
    3.8498   -0.4712   -0.1261 C   0  0  0  0  0  0  0  0  0  0  0  0
    5.2348   -0.3865   -0.0273 C   0  0  0  0  0  0  0  0  0  0  0  0
    7.5174   -0.9650    1.0309 H   0  0  0  0  0  0  0  0  0  0  0  0
    8.8553    2.3581    0.3506 H   0  0  0  0  0  0  0  0  0  0  0  0
    7.4491    2.7998   -0.7218 H   0  0  0  0  0  0  0  0  0  0  0  0
    5.4996    2.9395    0.5897 H   0  0  0  0  0  0  0  0  0  0  0  0
    3.0622    2.7572    0.4099 H   0  0  0  0  0  0  0  0  0  0  0  0
    1.1367    1.4652    0.0602 H   0  0  0  0  0  0  0  0  0  0  0  0
   -2.5960   -0.5200   -1.4348 H   0  0  0  0  0  0  0  0  0  0  0  0
   -5.0192   -0.5508   -1.6733 H   0  0  0  0  0  0  0  0  0  0  0  0
   -6.8221    1.3611   -1.8331 H   0  0  0  0  0  0  0  0  0  0  0  0
   -5.8322    1.4643   -0.3281 H   0  0  0  0  0  0  0  0  0  0  0  0
   -9.2789   -0.7531   -0.9424 H   0  0  0  0  0  0  0  0  0  0  0  0
   -9.3634    0.7613   -0.0174 H   0  0  0  0  0  0  0  0  0  0  0  0
   -5.3576   -1.3181    2.5033 H   0  0  0  0  0  0  0  0  0  0  0  0
   -2.8709   -1.2823    2.7244 H   0  0  0  0  0  0  0  0  0  0  0  0
    1.3572   -2.6879   -0.6779 H   0  0  0  0  0  0  0  0  0  0  0  0
    3.8694   -2.5451   -0.4998 H   0  0  0  0  0  0  0  0  0  0  0  0
    5.8311   -1.2802   -0.1529 H   0  0  0  0  0  0  0  0  0  0  0  0
  1  2  2  3
  2  3  1  0
  2  4  1  0
  4  5  2  0
  5  6  1  0
  6  7  2  0
  7  8  1  0
  8  9  2  0
  9 10  1  0
 10 11  1  0
 11 12  2  0
 11 13  1  0
 13 14  2  0
 14 15  1  0
 15 16  2  0
 16 17  1  0
 17 18  2  3
 18 19  1  0
 18 20  1  0
 16 21  1  0
 21 22  2  0
  9 23  1  0
 23 24  2  0
 24 25  1  0
 25 26  2  0
 26  4  1  0
 25  7  1  0
 22 13  1  0
  1 27  1  0
  3 28  1  0
  3 29  1  0
  5 30  1  0
  6 31  1  0
  8 32  1  0
 14 33  1  0
 15 34  1  0
 19 35  1  0
 19 36  1  0
 20 37  1  0
 20 38  1  0
 21 39  1  0
 22 40  1  0
 23 41  1  0
 24 42  1  0
 26 43  1  0
M  END
$$$$
