@<TRIPOS>MOLECULE
*****
 54 57 0 0 0
SMALL
GASTEIGER

@<TRIPOS>ATOM
      1 C          -4.0697   -2.1830   -3.8748 C.3     1  UNL1        0.0001
      2 N          -3.7339   -1.5401   -2.6080 N.am    1  UNL1       -0.3172
      3 C          -4.4470   -1.8499   -1.4065 C.2     1  UNL1        0.2296
      4 O          -5.3730   -2.7093   -1.5387 O.2     1  UNL1       -0.2743
      5 C          -4.1707   -1.2505   -0.0865 C.3     1  UNL1        0.1052
      6 C          -2.8651   -1.4816    0.5614 C.3     1  UNL1       -0.0220
      7 C          -3.2799   -0.1164    0.0125 C.3     1  UNL1        0.0134
      8 C          -3.5047    0.8979    1.0665 C.3     1  UNL1        0.0935
      9 C          -4.4161    1.9873    0.4651 C.3     1  UNL1       -0.0351
     10 C          -2.2041    1.6197    1.3220 C.ar    1  UNL1        0.0158
     11 C          -1.0234    1.0615    0.8581 C.ar    1  UNL1       -0.0463
     12 C           0.2252    1.6737    1.0885 C.ar    1  UNL1       -0.0217
     13 C           1.4709    1.0558    0.6622 C.2     1  UNL1       -0.0156
     14 C           2.3719    1.6308   -0.0898 C.2     1  UNL1        0.1678
     15 F           2.1562    2.8866   -0.5234 F       1  UNL1       -0.2016
     16 C           3.6222    0.9072   -0.4010 C.ar    1  UNL1        0.1885
     17 N           4.5357    1.4199   -1.2423 N.ar    1  UNL1       -0.2325
     18 C           5.7102    0.8174   -1.4877 C.ar    1  UNL1        0.0469
     19 C           6.0461   -0.3688   -0.8811 C.ar    1  UNL1        0.0612
     20 C           7.2984   -0.9841   -1.0327 C.1     1  UNL1       -0.0610
     21 C           8.4841   -1.5625   -1.1558 C.1     1  UNL1       -0.0689
     22 C           9.7140   -2.1496   -1.2665 C.3     1  UNL1        0.1052
     23 O          10.4351   -1.5864   -2.3469 O.3     1  UNL1       -0.3825
     24 C           5.0781   -0.8925   -0.0066 C.ar    1  UNL1        0.0469
     25 N           3.9200   -0.2519    0.2016 N.ar    1  UNL1       -0.2325
     26 C           0.1771    2.8490    1.7989 C.ar    1  UNL1       -0.0518
     27 C          -1.0010    3.4007    2.2589 C.ar    1  UNL1       -0.0255
     28 C          -2.2135    2.7968    2.0295 C.ar    1  UNL1        0.1289
     29 F          -3.3852    3.3567    2.4925 F       1  UNL1       -0.2051
     30 N          -4.0879    0.5016    2.2868 N.2     1  UNL1       -0.2521
     31 C          -4.9896   -0.3725    2.5133 C.2     1  UNL1        0.1485
     32 N          -5.5173   -0.7091    3.7535 N.pl3   1  UNL1       -0.3380
     33 S          -5.5912   -1.2336    1.0325 S.3     1  UNL1       -0.0746
     34 H          -4.7359   -1.5259   -4.4404 H       1  UNL1        0.0426
     35 H          -3.1578   -2.3699   -4.4887 H       1  UNL1        0.0426
     36 H          -4.5978   -3.1363   -3.6154 H       1  UNL1        0.0426
     37 H          -2.9622   -0.8447   -2.5722 H       1  UNL1        0.1484
     38 H          -2.8564   -1.6135    1.6593 H       1  UNL1        0.0287
     39 H          -2.1240   -2.0850    0.0197 H       1  UNL1        0.0287
     40 H          -2.7135    0.2022   -0.8827 H       1  UNL1        0.0346
     41 H          -3.8860    2.9215    0.2664 H       1  UNL1        0.0256
     42 H          -5.1913    2.1884    1.2314 H       1  UNL1        0.0256
     43 H          -4.9499    1.5620   -0.4169 H       1  UNL1        0.0256
     44 H          -0.9934    0.1330    0.2952 H       1  UNL1        0.0628
     45 H           1.6533    0.0414    1.0092 H       1  UNL1        0.0653
     46 H           6.4486    1.2273   -2.1735 H       1  UNL1        0.0843
     47 H          10.4156   -2.0248   -0.3978 H       1  UNL1        0.0695
     48 H           9.7213   -3.2559   -1.4721 H       1  UNL1        0.0695
     49 H          10.5080   -0.6003   -2.2346 H       1  UNL1        0.2107
     50 H           5.3543   -1.8317    0.4667 H       1  UNL1        0.0843
     51 H           1.1302    3.3606    1.9995 H       1  UNL1        0.0624
     52 H          -1.0115    4.3447    2.8275 H       1  UNL1        0.0646
     53 H          -4.9792   -1.3183    4.3962 H       1  UNL1        0.1442
     54 H          -6.4440   -0.3768    4.0678 H       1  UNL1        0.1442
@<TRIPOS>BOND
     1     1     2    1
     2     2     3   am
     3     3     4    2
     4     5     3    1
     5     5     6    1
     6     6     7    1
     7     7     8    1
     8     8     9    1
     9     8    10    1
    10    10    11   ar
    11    11    12   ar
    12    12    13    1
    13    13    14    2
    14    14    15    1
    15    14    16    1
    16    16    17   ar
    17    17    18   ar
    18    18    19   ar
    19    19    20    1
    20    20    21    3
    21    21    22    1
    22    22    23    1
    23    19    24   ar
    24    24    25   ar
    25    12    26   ar
    26    26    27   ar
    27    27    28   ar
    28    28    29    1
    29     8    30    1
    30    30    31    2
    31    31    32    1
    32    31    33    1
    33     7     5    1
    34    28    10   ar
    35    33     5    1
    36    25    16   ar
    37     1    34    1
    38     1    35    1
    39     1    36    1
    40     2    37    1
    41     6    38    1
    42     6    39    1
    43     7    40    1
    44     9    41    1
    45     9    42    1
    46     9    43    1
    47    11    44    1
    48    13    45    1
    49    18    46    1
    50    22    47    1
    51    22    48    1
    52    23    49    1
    53    24    50    1
    54    26    51    1
    55    27    52    1
    56    32    53    1
    57    32    54    1
