
     RDKit          3D

 54 57  0  0  0  0  0  0  0  0999 V2000
   -4.0697   -2.1830   -3.8748 C   0  0  0  0  0  0  0  0  0  0  0  0
   -3.7339   -1.5401   -2.6080 N   0  0  0  0  0  0  0  0  0  0  0  0
   -4.4470   -1.8499   -1.4065 C   0  0  0  0  0  0  0  0  0  0  0  0
   -5.3730   -2.7093   -1.5387 O   0  0  0  0  0  0  0  0  0  0  0  0
   -4.1707   -1.2505   -0.0865 C   0  0  1  0  0  0  0  0  0  0  0  0
   -2.8651   -1.4816    0.5614 C   0  0  0  0  0  0  0  0  0  0  0  0
   -3.2799   -0.1164    0.0125 C   0  0  2  0  0  0  0  0  0  0  0  0
   -3.5047    0.8979    1.0665 C   0  0  2  0  0  0  0  0  0  0  0  0
   -4.4161    1.9873    0.4651 C   0  0  0  0  0  0  0  0  0  0  0  0
   -2.2041    1.6197    1.3220 C   0  0  0  0  0  0  0  0  0  0  0  0
   -1.0234    1.0615    0.8581 C   0  0  0  0  0  0  0  0  0  0  0  0
    0.2252    1.6737    1.0885 C   0  0  0  0  0  0  0  0  0  0  0  0
    1.4709    1.0558    0.6622 C   0  0  0  0  0  0  0  0  0  0  0  0
    2.3719    1.6308   -0.0898 C   0  0  0  0  0  0  0  0  0  0  0  0
    2.1562    2.8866   -0.5234 F   0  0  0  0  0  0  0  0  0  0  0  0
    3.6222    0.9072   -0.4010 C   0  0  0  0  0  0  0  0  0  0  0  0
    4.5357    1.4199   -1.2423 N   0  0  0  0  0  0  0  0  0  0  0  0
    5.7102    0.8174   -1.4877 C   0  0  0  0  0  0  0  0  0  0  0  0
    6.0461   -0.3688   -0.8811 C   0  0  0  0  0  0  0  0  0  0  0  0
    7.2984   -0.9841   -1.0327 C   0  0  0  0  0  0  0  0  0  0  0  0
    8.4841   -1.5625   -1.1558 C   0  0  0  0  0  0  0  0  0  0  0  0
    9.7140   -2.1496   -1.2665 C   0  0  0  0  0  0  0  0  0  0  0  0
   10.4351   -1.5864   -2.3469 O   0  0  0  0  0  0  0  0  0  0  0  0
    5.0781   -0.8925   -0.0066 C   0  0  0  0  0  0  0  0  0  0  0  0
    3.9200   -0.2519    0.2016 N   0  0  0  0  0  0  0  0  0  0  0  0
    0.1771    2.8490    1.7989 C   0  0  0  0  0  0  0  0  0  0  0  0
   -1.0010    3.4007    2.2589 C   0  0  0  0  0  0  0  0  0  0  0  0
   -2.2135    2.7968    2.0295 C   0  0  0  0  0  0  0  0  0  0  0  0
   -3.3852    3.3567    2.4925 F   0  0  0  0  0  0  0  0  0  0  0  0
   -4.0879    0.5016    2.2868 N   0  0  0  0  0  0  0  0  0  0  0  0
   -4.9896   -0.3725    2.5133 C   0  0  0  0  0  0  0  0  0  0  0  0
   -5.5173   -0.7091    3.7535 N   0  0  0  0  0  0  0  0  0  0  0  0
   -5.5912   -1.2336    1.0325 S   0  0  0  0  0  0  0  0  0  0  0  0
   -4.7359   -1.5259   -4.4404 H   0  0  0  0  0  0  0  0  0  0  0  0
   -3.1578   -2.3699   -4.4887 H   0  0  0  0  0  0  0  0  0  0  0  0
   -4.5978   -3.1363   -3.6154 H   0  0  0  0  0  0  0  0  0  0  0  0
   -2.9622   -0.8447   -2.5722 H   0  0  0  0  0  0  0  0  0  0  0  0
   -2.8564   -1.6135    1.6593 H   0  0  0  0  0  0  0  0  0  0  0  0
   -2.1240   -2.0850    0.0197 H   0  0  0  0  0  0  0  0  0  0  0  0
   -2.7135    0.2022   -0.8827 H   0  0  0  0  0  0  0  0  0  0  0  0
   -3.8860    2.9215    0.2664 H   0  0  0  0  0  0  0  0  0  0  0  0
   -5.1913    2.1884    1.2314 H   0  0  0  0  0  0  0  0  0  0  0  0
   -4.9499    1.5620   -0.4169 H   0  0  0  0  0  0  0  0  0  0  0  0
   -0.9934    0.1330    0.2952 H   0  0  0  0  0  0  0  0  0  0  0  0
    1.6533    0.0414    1.0092 H   0  0  0  0  0  0  0  0  0  0  0  0
    6.4486    1.2273   -2.1735 H   0  0  0  0  0  0  0  0  0  0  0  0
   10.4156   -2.0248   -0.3978 H   0  0  0  0  0  0  0  0  0  0  0  0
    9.7213   -3.2559   -1.4721 H   0  0  0  0  0  0  0  0  0  0  0  0
   10.5080   -0.6003   -2.2346 H   0  0  0  0  0  0  0  0  0  0  0  0
    5.3543   -1.8317    0.4667 H   0  0  0  0  0  0  0  0  0  0  0  0
    1.1302    3.3606    1.9995 H   0  0  0  0  0  0  0  0  0  0  0  0
   -1.0115    4.3447    2.8275 H   0  0  0  0  0  0  0  0  0  0  0  0
   -4.9792   -1.3183    4.3962 H   0  0  0  0  0  0  0  0  0  0  0  0
   -6.4440   -0.3768    4.0678 H   0  0  0  0  0  0  0  0  0  0  0  0
  1  2  1  0
  2  3  1  0
  3  4  2  0
  5  3  1  6
  5  6  1  0
  6  7  1  0
  7  8  1  0
  8  9  1  6
  8 10  1  0
 10 11  2  0
 11 12  1  0
 12 13  1  0
 13 14  2  0
 14 15  1  0
 14 16  1  0
 16 17  2  0
 17 18  1  0
 18 19  2  0
 19 20  1  0
 20 21  3  0
 21 22  1  0
 22 23  1  0
 19 24  1  0
 24 25  2  0
 12 26  2  0
 26 27  1  0
 27 28  2  0
 28 29  1  0
  8 30  1  0
 30 31  2  0
 31 32  1  0
 31 33  1  0
  7  5  1  0
 28 10  1  0
 33  5  1  0
 25 16  1  0
  1 34  1  0
  1 35  1  0
  1 36  1  0
  2 37  1  0
  6 38  1  0
  6 39  1  0
  7 40  1  6
  9 41  1  0
  9 42  1  0
  9 43  1  0
 11 44  1  0
 13 45  1  0
 18 46  1  0
 22 47  1  0
 22 48  1  0
 23 49  1  0
 24 50  1  0
 26 51  1  0
 27 52  1  0
 32 53  1  0
 32 54  1  0
M  END
$$$$
