@<TRIPOS>MOLECULE
*****
 34 35 0 0 0
SMALL
GASTEIGER

@<TRIPOS>ATOM
      1 N           6.2054    1.1635    1.1888 N.3     1  UNL1       -0.2035
      2 S           5.6674   -0.3022    0.4784 S.O2    1  UNL1        0.0559
      3 O           5.8382   -1.4450    1.4411 O.2     1  UNL1       -0.1533
      4 O           6.5281   -0.5872   -0.7139 O.2     1  UNL1       -0.1533
      5 C           3.9807   -0.1229    0.0253 C.ar    1  UNL1        0.1050
      6 C           3.7384    0.3527   -1.2456 C.ar    1  UNL1       -0.0346
      7 C           2.4183    0.5021   -1.6241 C.ar    1  UNL1       -0.0478
      8 C           1.4106    0.1773   -0.7360 C.ar    1  UNL1        0.0368
      9 C           1.6769   -0.2997    0.5386 C.ar    1  UNL1       -0.0478
     10 C           2.9787   -0.4562    0.9361 C.ar    1  UNL1       -0.0346
     11 C           0.0368    0.3581   -1.1932 C.2     1  UNL1        0.2443
     12 O          -0.1693    0.8056   -2.3500 O.2     1  UNL1       -0.2702
     13 N          -1.1011    0.0581   -0.4081 N.am    1  UNL1       -0.3071
     14 C          -2.3380    0.3230   -1.0818 C.3     1  UNL1        0.0399
     15 C          -3.5331    0.0102   -0.2949 C.ar    1  UNL1        0.0075
     16 C          -4.2386   -1.1346   -0.5902 C.ar    1  UNL1       -0.0190
     17 C          -5.3951   -1.5683    0.0675 C.ar    1  UNL1        0.1239
     18 F          -6.0143   -2.7183   -0.3049 F       1  UNL1       -0.2055
     19 C          -5.8597   -0.7690    1.1018 C.ar    1  UNL1       -0.0237
     20 C          -5.1740    0.3955    1.4298 C.ar    1  UNL1       -0.0234
     21 C          -4.0402    0.7725    0.7472 C.ar    1  UNL1        0.1282
     22 F          -3.3745    1.9073    1.0703 F       1  UNL1       -0.2051
     23 H           6.1865    1.9216    0.4653 H       1  UNL1        0.1442
     24 H           5.5908    1.5071    1.9664 H       1  UNL1        0.1442
     25 H           4.5563    0.6014   -1.9227 H       1  UNL1        0.0637
     26 H           2.1977    0.8749   -2.6200 H       1  UNL1        0.0626
     27 H           0.9132   -0.5523    1.2308 H       1  UNL1        0.0626
     28 H           3.3079   -0.8221    1.9108 H       1  UNL1        0.0637
     29 H          -0.9851   -0.3129    0.5498 H       1  UNL1        0.1493
     30 H          -2.4274   -0.1437   -2.0765 H       1  UNL1        0.0513
     31 H          -2.3574    1.4343   -1.2798 H       1  UNL1        0.0513
     32 H          -3.8896   -1.7712   -1.3960 H       1  UNL1        0.0650
     33 H          -6.7551   -1.1419    1.5812 H       1  UNL1        0.0647
     34 H          -5.5796    0.9825    2.2457 H       1  UNL1        0.0647
@<TRIPOS>BOND
     1     1     2    1
     2     2     3    2
     3     2     4    2
     4     2     5    1
     5     5     6   ar
     6     6     7   ar
     7     7     8   ar
     8     8     9   ar
     9     9    10   ar
    10     8    11    1
    11    11    12    2
    12    11    13   am
    13    13    14    1
    14    14    15    1
    15    15    16   ar
    16    16    17   ar
    17    17    18    1
    18    17    19   ar
    19    19    20   ar
    20    20    21   ar
    21    21    22    1
    22    10     5   ar
    23    21    15   ar
    24     1    23    1
    25     1    24    1
    26     6    25    1
    27     7    26    1
    28     9    27    1
    29    10    28    1
    30    13    29    1
    31    14    30    1
    32    14    31    1
    33    16    32    1
    34    19    33    1
    35    20    34    1
