@<TRIPOS>MOLECULE
*****
 44 46 0 0 0
SMALL
GASTEIGER

@<TRIPOS>ATOM
      1 C          -2.7934   -2.9175   -0.8127 C.3     1  UNL1       -0.0471
      2 C          -2.6216   -2.1755    0.4851 C.3     1  UNL1        0.0205
      3 N          -2.7673   -0.7484    0.3005 N.ar    1  UNL1       -0.3459
      4 C          -3.9693   -0.1212    0.4082 C.ar    1  UNL1        0.0228
      5 C          -4.1076    1.2411    0.2318 C.ar    1  UNL1        0.1220
      6 C          -5.4574    1.7737    0.3780 C.2     1  UNL1        0.3420
      7 O          -5.7872    3.1146    0.2364 O.3     1  UNL1       -0.4770
      8 O          -6.4995    1.1067    0.6486 O.2     1  UNL1       -0.2449
      9 C          -3.0155    2.0310   -0.0651 C.ar    1  UNL1        0.2034
     10 O          -3.1977    3.2549   -0.2140 O.2     1  UNL1       -0.2863
     11 C          -1.7926    1.4039   -0.1764 C.ar    1  UNL1        0.0488
     12 C          -0.6807    2.1676   -0.4728 C.ar    1  UNL1       -0.0118
     13 C           0.5672    1.5849   -0.5947 C.ar    1  UNL1        0.1451
     14 F           1.6171    2.3946   -0.8876 F       1  UNL1       -0.2035
     15 C           0.6658    0.2189   -0.4112 C.ar    1  UNL1        0.0674
     16 C          -0.4633   -0.5128   -0.1166 C.ar    1  UNL1       -0.0136
     17 C          -1.7067    0.0382    0.0092 C.ar    1  UNL1        0.0547
     18 N           1.9854   -0.2936   -0.5553 N.pl3   1  UNL1       -0.3252
     19 C           2.7058   -0.1366   -1.8111 C.3     1  UNL1        0.0251
     20 C           4.1235    0.2971   -1.5899 C.3     1  UNL1        0.0144
     21 N           4.7639   -0.2694   -0.4457 N.3     1  UNL1       -0.3024
     22 C           5.1491    0.7295    0.5155 C.3     1  UNL1       -0.0126
     23 C           4.0461   -1.3228    0.2028 C.3     1  UNL1        0.0144
     24 C           2.6329   -0.9802    0.5465 C.3     1  UNL1        0.0251
     25 H          -2.0532   -3.7259   -0.9521 H       1  UNL1        0.0247
     26 H          -3.7860   -3.4189   -0.9116 H       1  UNL1        0.0247
     27 H          -2.7419   -2.1795   -1.6613 H       1  UNL1        0.0247
     28 H          -1.7576   -2.4776    1.0790 H       1  UNL1        0.0489
     29 H          -3.5105   -2.4714    1.1180 H       1  UNL1        0.0489
     30 H          -4.8293   -0.7450    0.6424 H       1  UNL1        0.0818
     31 H          -6.5503    3.4129   -0.3831 H       1  UNL1        0.2954
     32 H          -0.8150    3.2286   -0.6058 H       1  UNL1        0.0654
     33 H          -0.2842   -1.5558    0.0063 H       1  UNL1        0.0658
     34 H           2.6967   -1.0883   -2.3564 H       1  UNL1        0.0476
     35 H           2.2334    0.6370   -2.4509 H       1  UNL1        0.0476
     36 H           4.6866    0.0020   -2.5230 H       1  UNL1        0.0442
     37 H           4.2202    1.4043   -1.5155 H       1  UNL1        0.0442
     38 H           4.4604    1.6031    0.4307 H       1  UNL1        0.0391
     39 H           5.0536    0.3791    1.5602 H       1  UNL1        0.0391
     40 H           6.1682    1.1291    0.3004 H       1  UNL1        0.0391
     41 H           4.5665   -1.5106    1.1821 H       1  UNL1        0.0442
     42 H           4.1171   -2.3068   -0.3251 H       1  UNL1        0.0442
     43 H           2.0771   -1.9131    0.7642 H       1  UNL1        0.0476
     44 H           2.6512   -0.2822    1.4004 H       1  UNL1        0.0476
@<TRIPOS>BOND
     1     1     2    1
     2     2     3    1
     3     3     4   ar
     4     4     5   ar
     5     5     6    1
     6     6     7    1
     7     6     8    2
     8     5     9   ar
     9     9    10    2
    10     9    11   ar
    11    11    12   ar
    12    12    13   ar
    13    13    14    1
    14    13    15   ar
    15    15    16   ar
    16    16    17   ar
    17    15    18    1
    18    18    19    1
    19    19    20    1
    20    20    21    1
    21    21    22    1
    22    21    23    1
    23    23    24    1
    24    17     3   ar
    25    24    18    1
    26    17    11   ar
    27     1    25    1
    28     1    26    1
    29     1    27    1
    30     2    28    1
    31     2    29    1
    32     4    30    1
    33     7    31    1
    34    12    32    1
    35    16    33    1
    36    19    34    1
    37    19    35    1
    38    20    36    1
    39    20    37    1
    40    22    38    1
    41    22    39    1
    42    22    40    1
    43    23    41    1
    44    23    42    1
    45    24    43    1
    46    24    44    1
