
     RDKit          3D

 44 46  0  0  0  0  0  0  0  0999 V2000
   -2.7934   -2.9175   -0.8127 C   0  0  0  0  0  0  0  0  0  0  0  0
   -2.6216   -2.1755    0.4851 C   0  0  0  0  0  0  0  0  0  0  0  0
   -2.7673   -0.7484    0.3005 N   0  0  0  0  0  0  0  0  0  0  0  0
   -3.9693   -0.1212    0.4082 C   0  0  0  0  0  0  0  0  0  0  0  0
   -4.1076    1.2411    0.2318 C   0  0  0  0  0  0  0  0  0  0  0  0
   -5.4574    1.7737    0.3780 C   0  0  0  0  0  0  0  0  0  0  0  0
   -5.7872    3.1146    0.2364 O   0  0  0  0  0  0  0  0  0  0  0  0
   -6.4995    1.1067    0.6486 O   0  0  0  0  0  0  0  0  0  0  0  0
   -3.0155    2.0310   -0.0651 C   0  0  0  0  0  0  0  0  0  0  0  0
   -3.1977    3.2549   -0.2140 O   0  0  0  0  0  0  0  0  0  0  0  0
   -1.7926    1.4039   -0.1764 C   0  0  0  0  0  0  0  0  0  0  0  0
   -0.6807    2.1676   -0.4728 C   0  0  0  0  0  0  0  0  0  0  0  0
    0.5672    1.5849   -0.5947 C   0  0  0  0  0  0  0  0  0  0  0  0
    1.6171    2.3946   -0.8876 F   0  0  0  0  0  0  0  0  0  0  0  0
    0.6658    0.2189   -0.4112 C   0  0  0  0  0  0  0  0  0  0  0  0
   -0.4633   -0.5128   -0.1166 C   0  0  0  0  0  0  0  0  0  0  0  0
   -1.7067    0.0382    0.0092 C   0  0  0  0  0  0  0  0  0  0  0  0
    1.9854   -0.2936   -0.5553 N   0  0  0  0  0  0  0  0  0  0  0  0
    2.7058   -0.1366   -1.8111 C   0  0  0  0  0  0  0  0  0  0  0  0
    4.1235    0.2971   -1.5899 C   0  0  0  0  0  0  0  0  0  0  0  0
    4.7639   -0.2694   -0.4457 N   0  0  0  0  0  0  0  0  0  0  0  0
    5.1491    0.7295    0.5155 C   0  0  0  0  0  0  0  0  0  0  0  0
    4.0461   -1.3228    0.2028 C   0  0  0  0  0  0  0  0  0  0  0  0
    2.6329   -0.9802    0.5465 C   0  0  0  0  0  0  0  0  0  0  0  0
   -2.0532   -3.7259   -0.9521 H   0  0  0  0  0  0  0  0  0  0  0  0
   -3.7860   -3.4189   -0.9116 H   0  0  0  0  0  0  0  0  0  0  0  0
   -2.7419   -2.1795   -1.6613 H   0  0  0  0  0  0  0  0  0  0  0  0
   -1.7576   -2.4776    1.0790 H   0  0  0  0  0  0  0  0  0  0  0  0
   -3.5105   -2.4714    1.1180 H   0  0  0  0  0  0  0  0  0  0  0  0
   -4.8293   -0.7450    0.6424 H   0  0  0  0  0  0  0  0  0  0  0  0
   -6.5503    3.4129   -0.3831 H   0  0  0  0  0  0  0  0  0  0  0  0
   -0.8150    3.2286   -0.6058 H   0  0  0  0  0  0  0  0  0  0  0  0
   -0.2842   -1.5558    0.0063 H   0  0  0  0  0  0  0  0  0  0  0  0
    2.6967   -1.0883   -2.3564 H   0  0  0  0  0  0  0  0  0  0  0  0
    2.2334    0.6370   -2.4509 H   0  0  0  0  0  0  0  0  0  0  0  0
    4.6866    0.0020   -2.5230 H   0  0  0  0  0  0  0  0  0  0  0  0
    4.2202    1.4043   -1.5155 H   0  0  0  0  0  0  0  0  0  0  0  0
    4.4604    1.6031    0.4307 H   0  0  0  0  0  0  0  0  0  0  0  0
    5.0536    0.3791    1.5602 H   0  0  0  0  0  0  0  0  0  0  0  0
    6.1682    1.1291    0.3004 H   0  0  0  0  0  0  0  0  0  0  0  0
    4.5665   -1.5106    1.1821 H   0  0  0  0  0  0  0  0  0  0  0  0
    4.1171   -2.3068   -0.3251 H   0  0  0  0  0  0  0  0  0  0  0  0
    2.0771   -1.9131    0.7642 H   0  0  0  0  0  0  0  0  0  0  0  0
    2.6512   -0.2822    1.4004 H   0  0  0  0  0  0  0  0  0  0  0  0
  1  2  1  0
  2  3  1  0
  3  4  1  0
  4  5  2  0
  5  6  1  0
  6  7  1  0
  6  8  2  0
  5  9  1  0
  9 10  2  0
  9 11  1  0
 11 12  2  0
 12 13  1  0
 13 14  1  0
 13 15  2  0
 15 16  1  0
 16 17  2  0
 15 18  1  0
 18 19  1  0
 19 20  1  0
 20 21  1  0
 21 22  1  0
 21 23  1  0
 23 24  1  0
 17  3  1  0
 24 18  1  0
 17 11  1  0
  1 25  1  0
  1 26  1  0
  1 27  1  0
  2 28  1  0
  2 29  1  0
  4 30  1  0
  7 31  1  0
 12 32  1  0
 16 33  1  0
 19 34  1  0
 19 35  1  0
 20 36  1  0
 20 37  1  0
 22 38  1  0
 22 39  1  0
 22 40  1  0
 23 41  1  0
 23 42  1  0
 24 43  1  0
 24 44  1  0
M  END
$$$$
