@<TRIPOS>MOLECULE
*****
 12 12 0 0 0
SMALL
GASTEIGER

@<TRIPOS>ATOM
      1 C          -1.6994   -0.2386    0.1770 C.3     1  UNL1       -0.0230
      2 C          -0.2497    0.0681    0.0402 C.ar    1  UNL1        0.0322
      3 C           0.3767    1.3147    0.0973 C.ar    1  UNL1        0.0481
      4 N           1.6945    1.0848   -0.0800 N.ar    1  UNL1       -0.2440
      5 C           1.9299   -0.2224   -0.2438 C.ar    1  UNL1        0.0935
      6 N           0.7151   -0.8269   -0.1654 N.ar    1  UNL1       -0.3484
      7 H          -2.2214    0.5801    0.7236 H       1  UNL1        0.0292
      8 H          -2.1230   -0.2993   -0.8404 H       1  UNL1        0.0292
      9 H          -1.8183   -1.2234    0.6993 H       1  UNL1        0.0292
     10 H          -0.1960    2.2243    0.2589 H       1  UNL1        0.0847
     11 H           2.9359   -0.5891   -0.3992 H       1  UNL1        0.1027
     12 H           0.6556   -1.8724   -0.2675 H       1  UNL1        0.1665
@<TRIPOS>BOND
     1     1     2    1
     2     2     3   ar
     3     3     4   ar
     4     4     5   ar
     5     5     6   ar
     6     6     2   ar
     7     1     7    1
     8     1     8    1
     9     1     9    1
    10     3    10    1
    11     5    11    1
    12     6    12    1
