
     RDKit          3D

 33 36  0  0  0  0  0  0  0  0999 V2000
   -0.2747   -2.0867   -3.3121 O   0  0  0  0  0  0  0  0  0  0  0  0
   -0.1345   -1.4206   -2.2595 C   0  0  0  0  0  0  0  0  0  0  0  0
    1.1355   -1.0578   -1.7914 C   0  0  0  0  0  0  0  0  0  0  0  0
    1.2912   -0.3341   -0.6480 C   0  0  0  0  0  0  0  0  0  0  0  0
    2.6160    0.0490   -0.1521 C   0  0  0  0  0  0  0  0  0  0  0  0
    3.7971   -0.2690   -0.7647 C   0  0  0  0  0  0  0  0  0  0  0  0
    5.0315    0.1201   -0.2515 C   0  0  0  0  0  0  0  0  0  0  0  0
    5.1168    0.8523    0.9117 C   0  0  0  0  0  0  0  0  0  0  0  0
    3.9341    1.1822    1.5435 C   0  0  0  0  0  0  0  0  0  0  0  0
    2.7195    0.7882    1.0206 C   0  0  0  0  0  0  0  0  0  0  0  0
    0.1961    0.0048   -0.0096 O   0  0  0  0  0  0  0  0  0  0  0  0
   -1.0198   -0.3025   -0.3938 C   0  0  0  0  0  0  0  0  0  0  0  0
   -1.2471   -1.0304   -1.5376 C   0  0  0  0  0  0  0  0  0  0  0  0
   -2.5297   -1.3628   -1.9561 C   0  0  0  0  0  0  0  0  0  0  0  0
   -3.5972   -0.9426   -1.1902 C   0  0  0  0  0  0  0  0  0  0  0  0
   -3.4083   -0.2069   -0.0305 C   0  0  0  0  0  0  0  0  0  0  0  0
   -4.4750    0.2118    0.7331 C   0  0  0  0  0  0  0  0  0  0  0  0
   -4.2341    0.9388    1.8741 C   0  0  0  0  0  0  0  0  0  0  0  0
   -2.9555    1.2615    2.2775 C   0  0  0  0  0  0  0  0  0  0  0  0
   -1.9038    0.8342    1.5016 C   0  0  0  0  0  0  0  0  0  0  0  0
   -2.1266    0.1039    0.3535 C   0  0  0  0  0  0  0  0  0  0  0  0
    1.9991   -1.3661   -2.3604 H   0  0  0  0  0  0  0  0  0  0  0  0
    3.7898   -0.8411   -1.6789 H   0  0  0  0  0  0  0  0  0  0  0  0
    5.9593   -0.1371   -0.7445 H   0  0  0  0  0  0  0  0  0  0  0  0
    6.0731    1.1627    1.3239 H   0  0  0  0  0  0  0  0  0  0  0  0
    3.9824    1.7585    2.4608 H   0  0  0  0  0  0  0  0  0  0  0  0
    1.7942    1.0475    1.5168 H   0  0  0  0  0  0  0  0  0  0  0  0
   -2.6380   -1.9343   -2.8603 H   0  0  0  0  0  0  0  0  0  0  0  0
   -4.6184   -1.1874   -1.4915 H   0  0  0  0  0  0  0  0  0  0  0  0
   -5.4823   -0.0227    0.4469 H   0  0  0  0  0  0  0  0  0  0  0  0
   -5.0657    1.2709    2.4784 H   0  0  0  0  0  0  0  0  0  0  0  0
   -2.8241    1.8361    3.1846 H   0  0  0  0  0  0  0  0  0  0  0  0
   -0.9006    1.0797    1.8058 H   0  0  0  0  0  0  0  0  0  0  0  0
  1  2  2  0
  2  3  1  0
  3  4  2  0
  4  5  1  0
  5  6  2  0
  6  7  1  0
  7  8  2  0
  8  9  1  0
  9 10  2  0
  4 11  1  0
 11 12  1  0
 12 13  2  0
 13 14  1  0
 14 15  2  0
 15 16  1  0
 16 17  2  0
 17 18  1  0
 18 19  2  0
 19 20  1  0
 20 21  2  0
 13  2  1  0
 21 16  1  0
 10  5  1  0
 21 12  1  0
  3 22  1  0
  6 23  1  0
  7 24  1  0
  8 25  1  0
  9 26  1  0
 10 27  1  0
 14 28  1  0
 15 29  1  0
 17 30  1  0
 18 31  1  0
 19 32  1  0
 20 33  1  0
M  END
$$$$
