@<TRIPOS>MOLECULE
*****
 33 36 0 0 0
SMALL
GASTEIGER

@<TRIPOS>ATOM
      1 O          -0.2747   -2.0867   -3.3121 O.2     1  UNL1       -0.2870
      2 C          -0.1345   -1.4206   -2.2595 C.ar    1  UNL1        0.1931
      3 C           1.1355   -1.0578   -1.7914 C.ar    1  UNL1        0.0287
      4 C           1.2912   -0.3341   -0.6480 C.ar    1  UNL1        0.1392
      5 C           2.6160    0.0490   -0.1521 C.ar    1  UNL1        0.0174
      6 C           3.7971   -0.2690   -0.7647 C.ar    1  UNL1       -0.0511
      7 C           5.0315    0.1201   -0.2515 C.ar    1  UNL1       -0.0611
      8 C           5.1168    0.8523    0.9117 C.ar    1  UNL1       -0.0617
      9 C           3.9341    1.1822    1.5435 C.ar    1  UNL1       -0.0611
     10 C           2.7195    0.7882    1.0206 C.ar    1  UNL1       -0.0511
     11 O           0.1961    0.0048   -0.0096 O.2     1  UNL1       -0.4540
     12 C          -1.0198   -0.3025   -0.3938 C.ar    1  UNL1        0.1469
     13 C          -1.2471   -1.0304   -1.5376 C.ar    1  UNL1        0.0646
     14 C          -2.5297   -1.3628   -1.9561 C.ar    1  UNL1       -0.0468
     15 C          -3.5972   -0.9426   -1.1902 C.ar    1  UNL1       -0.0531
     16 C          -3.4083   -0.2069   -0.0305 C.ar    1  UNL1       -0.0143
     17 C          -4.4750    0.2118    0.7331 C.ar    1  UNL1       -0.0539
     18 C          -4.2341    0.9388    1.8741 C.ar    1  UNL1       -0.0612
     19 C          -2.9555    1.2615    2.2775 C.ar    1  UNL1       -0.0611
     20 C          -1.9038    0.8342    1.5016 C.ar    1  UNL1       -0.0505
     21 C          -2.1266    0.1039    0.3535 C.ar    1  UNL1        0.0251
     22 H           1.9991   -1.3661   -2.3604 H       1  UNL1        0.0693
     23 H           3.7898   -0.8411   -1.6789 H       1  UNL1        0.0625
     24 H           5.9593   -0.1371   -0.7445 H       1  UNL1        0.0618
     25 H           6.0731    1.1627    1.3239 H       1  UNL1        0.0618
     26 H           3.9824    1.7585    2.4608 H       1  UNL1        0.0618
     27 H           1.7942    1.0475    1.5168 H       1  UNL1        0.0625
     28 H          -2.6380   -1.9343   -2.8603 H       1  UNL1        0.0626
     29 H          -4.6184   -1.1874   -1.4915 H       1  UNL1        0.0624
     30 H          -5.4823   -0.0227    0.4469 H       1  UNL1        0.0624
     31 H          -5.0657    1.2709    2.4784 H       1  UNL1        0.0618
     32 H          -2.8241    1.8361    3.1846 H       1  UNL1        0.0618
     33 H          -0.9006    1.0797    1.8058 H       1  UNL1        0.0625
@<TRIPOS>BOND
     1     1     2    2
     2     2     3   ar
     3     3     4   ar
     4     4     5    1
     5     5     6   ar
     6     6     7   ar
     7     7     8   ar
     8     8     9   ar
     9     9    10   ar
    10     4    11   ar
    11    11    12   ar
    12    12    13   ar
    13    13    14   ar
    14    14    15   ar
    15    15    16   ar
    16    16    17   ar
    17    17    18   ar
    18    18    19   ar
    19    19    20   ar
    20    20    21   ar
    21    13     2   ar
    22    21    16   ar
    23    10     5   ar
    24    21    12   ar
    25     3    22    1
    26     6    23    1
    27     7    24    1
    28     8    25    1
    29     9    26    1
    30    10    27    1
    31    14    28    1
    32    15    29    1
    33    17    30    1
    34    18    31    1
    35    19    32    1
    36    20    33    1
