@<TRIPOS>MOLECULE
*****
 37 39 0 0 0
SMALL
GASTEIGER

@<TRIPOS>ATOM
      1 C          -4.5698    0.9499   -0.5725 C.3     1  UNL1        0.0120
      2 N          -4.0915   -0.2840    0.0343 N.ar    1  UNL1       -0.3461
      3 C          -4.7019   -1.4825    0.0912 C.ar    1  UNL1        0.0050
      4 C          -3.9052   -2.3795    0.7523 C.ar    1  UNL1       -0.0435
      5 C          -2.7609   -1.6959    1.1127 C.ar    1  UNL1       -0.0317
      6 C          -2.8987   -0.3871    0.6535 C.ar    1  UNL1        0.1043
      7 C          -1.9009    0.6561    0.8359 C.2     1  UNL1        0.2634
      8 O          -2.0218    1.4064    1.8389 O.2     1  UNL1       -0.2684
      9 N          -0.8553    0.7797   -0.1068 N.am    1  UNL1       -0.2889
     10 C          -0.7793   -0.1038   -1.2196 C.3     1  UNL1        0.0334
     11 C           0.6015   -0.5103   -1.6101 C.3     1  UNL1        0.0389
     12 N           1.6238    0.0657   -0.7779 N.ar    1  UNL1       -0.3469
     13 C           2.9032   -0.3569   -0.6458 C.ar    1  UNL1        0.0171
     14 C           3.5594    0.4627    0.2475 C.ar    1  UNL1        0.0564
     15 C           4.9631    0.3423    0.6659 C.2     1  UNL1        0.2680
     16 O           5.4620    1.1412    1.4890 O.2     1  UNL1       -0.2681
     17 N           5.7697   -0.6986    0.1278 N.am    1  UNL1       -0.1934
     18 O           7.0601   -0.7826    0.5340 O.3     1  UNL1       -0.2949
     19 C           2.6663    1.4089    0.6732 C.ar    1  UNL1       -0.0272
     20 C           1.4735    1.1313    0.0155 C.ar    1  UNL1        0.0369
     21 C           0.1426    1.8196    0.0761 C.3     1  UNL1        0.0553
     22 H          -3.8010    1.3294   -1.2771 H       1  UNL1        0.0456
     23 H          -4.7664    1.7274    0.2039 H       1  UNL1        0.0456
     24 H          -5.5518    0.7575   -1.0989 H       1  UNL1        0.0456
     25 H          -5.6947   -1.6733   -0.3419 H       1  UNL1        0.0809
     26 H          -4.1083   -3.4197    0.9610 H       1  UNL1        0.0633
     27 H          -1.9116   -2.0934    1.6511 H       1  UNL1        0.0640
     28 H          -1.3531   -1.0423   -0.9704 H       1  UNL1        0.0482
     29 H          -1.3293    0.3167   -2.1132 H       1  UNL1        0.0482
     30 H           0.8079   -0.1536   -2.6593 H       1  UNL1        0.0507
     31 H           0.6990   -1.6346   -1.6723 H       1  UNL1        0.0507
     32 H           3.3888   -1.2047   -1.1432 H       1  UNL1        0.0817
     33 H           5.3969   -1.3999   -0.5728 H       1  UNL1        0.1825
     34 H           7.5676   -0.0984    0.0312 H       1  UNL1        0.2414
     35 H           2.8080    2.2243    1.3742 H       1  UNL1        0.0643
     36 H           0.1143    2.5080   -0.8019 H       1  UNL1        0.0529
     37 H          -0.0062    2.3741    1.0026 H       1  UNL1        0.0529
@<TRIPOS>BOND
     1     1     2    1
     2     2     3   ar
     3     3     4   ar
     4     4     5   ar
     5     5     6   ar
     6     6     7    1
     7     7     8    2
     8     7     9   am
     9     9    10    1
    10    10    11    1
    11    11    12    1
    12    12    13   ar
    13    13    14   ar
    14    14    15    1
    15    15    16    2
    16    15    17   am
    17    17    18    1
    18    14    19   ar
    19    19    20   ar
    20    20    21    1
    21     6     2   ar
    22    21     9    1
    23    20    12   ar
    24     1    22    1
    25     1    23    1
    26     1    24    1
    27     3    25    1
    28     4    26    1
    29     5    27    1
    30    10    28    1
    31    10    29    1
    32    11    30    1
    33    11    31    1
    34    13    32    1
    35    17    33    1
    36    18    34    1
    37    19    35    1
    38    21    36    1
    39    21    37    1
