
     RDKit          3D

 37 39  0  0  0  0  0  0  0  0999 V2000
   -4.5698    0.9499   -0.5725 C   0  0  0  0  0  0  0  0  0  0  0  0
   -4.0915   -0.2840    0.0343 N   0  0  0  0  0  0  0  0  0  0  0  0
   -4.7019   -1.4825    0.0912 C   0  0  0  0  0  0  0  0  0  0  0  0
   -3.9052   -2.3795    0.7523 C   0  0  0  0  0  0  0  0  0  0  0  0
   -2.7609   -1.6959    1.1127 C   0  0  0  0  0  0  0  0  0  0  0  0
   -2.8987   -0.3871    0.6535 C   0  0  0  0  0  0  0  0  0  0  0  0
   -1.9009    0.6561    0.8359 C   0  0  0  0  0  0  0  0  0  0  0  0
   -2.0218    1.4064    1.8389 O   0  0  0  0  0  0  0  0  0  0  0  0
   -0.8553    0.7797   -0.1068 N   0  0  0  0  0  0  0  0  0  0  0  0
   -0.7793   -0.1038   -1.2196 C   0  0  0  0  0  0  0  0  0  0  0  0
    0.6015   -0.5103   -1.6101 C   0  0  0  0  0  0  0  0  0  0  0  0
    1.6238    0.0657   -0.7779 N   0  0  0  0  0  0  0  0  0  0  0  0
    2.9032   -0.3569   -0.6458 C   0  0  0  0  0  0  0  0  0  0  0  0
    3.5594    0.4627    0.2475 C   0  0  0  0  0  0  0  0  0  0  0  0
    4.9631    0.3423    0.6659 C   0  0  0  0  0  0  0  0  0  0  0  0
    5.4620    1.1412    1.4890 O   0  0  0  0  0  0  0  0  0  0  0  0
    5.7697   -0.6986    0.1278 N   0  0  0  0  0  0  0  0  0  0  0  0
    7.0601   -0.7826    0.5340 O   0  0  0  0  0  0  0  0  0  0  0  0
    2.6663    1.4089    0.6732 C   0  0  0  0  0  0  0  0  0  0  0  0
    1.4735    1.1313    0.0155 C   0  0  0  0  0  0  0  0  0  0  0  0
    0.1426    1.8196    0.0761 C   0  0  0  0  0  0  0  0  0  0  0  0
   -3.8010    1.3294   -1.2771 H   0  0  0  0  0  0  0  0  0  0  0  0
   -4.7664    1.7274    0.2039 H   0  0  0  0  0  0  0  0  0  0  0  0
   -5.5518    0.7575   -1.0989 H   0  0  0  0  0  0  0  0  0  0  0  0
   -5.6947   -1.6733   -0.3419 H   0  0  0  0  0  0  0  0  0  0  0  0
   -4.1083   -3.4197    0.9610 H   0  0  0  0  0  0  0  0  0  0  0  0
   -1.9116   -2.0934    1.6511 H   0  0  0  0  0  0  0  0  0  0  0  0
   -1.3531   -1.0423   -0.9704 H   0  0  0  0  0  0  0  0  0  0  0  0
   -1.3293    0.3167   -2.1132 H   0  0  0  0  0  0  0  0  0  0  0  0
    0.8079   -0.1536   -2.6593 H   0  0  0  0  0  0  0  0  0  0  0  0
    0.6990   -1.6346   -1.6723 H   0  0  0  0  0  0  0  0  0  0  0  0
    3.3888   -1.2047   -1.1432 H   0  0  0  0  0  0  0  0  0  0  0  0
    5.3969   -1.3999   -0.5728 H   0  0  0  0  0  0  0  0  0  0  0  0
    7.5676   -0.0984    0.0312 H   0  0  0  0  0  0  0  0  0  0  0  0
    2.8080    2.2243    1.3742 H   0  0  0  0  0  0  0  0  0  0  0  0
    0.1143    2.5080   -0.8019 H   0  0  0  0  0  0  0  0  0  0  0  0
   -0.0062    2.3741    1.0026 H   0  0  0  0  0  0  0  0  0  0  0  0
  1  2  1  0
  2  3  1  0
  3  4  2  0
  4  5  1  0
  5  6  2  0
  6  7  1  0
  7  8  2  0
  7  9  1  0
  9 10  1  0
 10 11  1  0
 11 12  1  0
 12 13  1  0
 13 14  2  0
 14 15  1  0
 15 16  2  0
 15 17  1  0
 17 18  1  0
 14 19  1  0
 19 20  2  0
 20 21  1  0
  6  2  1  0
 21  9  1  0
 20 12  1  0
  1 22  1  0
  1 23  1  0
  1 24  1  0
  3 25  1  0
  4 26  1  0
  5 27  1  0
 10 28  1  0
 10 29  1  0
 11 30  1  0
 11 31  1  0
 13 32  1  0
 17 33  1  0
 18 34  1  0
 19 35  1  0
 21 36  1  0
 21 37  1  0
M  END
$$$$
