@<TRIPOS>MOLECULE
*****
 53 55 0 0 0
SMALL
GASTEIGER

@<TRIPOS>ATOM
      1 O          -6.4907    5.2324   -0.1361 O.2     1  UNL1       -0.2458
      2 C          -5.2904    5.4554   -0.4488 C.2     1  UNL1        0.3296
      3 O          -4.8423    6.6974   -0.8449 O.3     1  UNL1       -0.4775
      4 C          -4.3600    4.3129   -0.3729 C.2     1  UNL1        0.0229
      5 C          -3.1045    4.5041   -0.6910 C.2     1  UNL1       -0.0477
      6 C          -2.0953    3.4575   -0.6551 C.ar    1  UNL1       -0.0211
      7 C          -0.7845    3.7918   -1.0215 C.ar    1  UNL1       -0.0509
      8 C           0.2037    2.8024   -0.9953 C.ar    1  UNL1       -0.0150
      9 C          -0.0920    1.5093   -0.6162 C.ar    1  UNL1        0.1731
     10 O           0.9109    0.5509   -0.6019 O.3     1  UNL1       -0.4221
     11 C           1.8255    0.4293    0.4357 C.2     1  UNL1        0.3127
     12 O           1.7007    1.2481    1.3834 O.2     1  UNL1       -0.2504
     13 C           2.9044   -0.5954    0.4607 C.3     1  UNL1        0.0493
     14 C           4.1059   -0.1517   -0.3383 C.3     1  UNL1       -0.0176
     15 C           5.2200   -1.0904   -0.3570 C.ar    1  UNL1       -0.0468
     16 C           6.2057   -0.9571    0.5944 C.ar    1  UNL1       -0.0586
     17 C           7.2960   -1.7744    0.6730 C.ar    1  UNL1       -0.0615
     18 C           7.4011   -2.7977   -0.2716 C.ar    1  UNL1       -0.0617
     19 C           6.4161   -2.9317   -1.2219 C.ar    1  UNL1       -0.0615
     20 C           5.3188   -2.0914   -1.2838 C.ar    1  UNL1       -0.0586
     21 C          -1.3822    1.1935   -0.2589 C.ar    1  UNL1        0.1637
     22 O          -1.6633   -0.0910    0.1135 O.3     1  UNL1       -0.4837
     23 C          -2.9928   -0.4603    0.4829 C.3     1  UNL1        0.1149
     24 C          -3.0557   -1.8832    0.8427 C.ar    1  UNL1       -0.0070
     25 C          -2.8807   -2.3095    2.1461 C.ar    1  UNL1       -0.0551
     26 C          -2.9348   -3.6523    2.4881 C.ar    1  UNL1       -0.0579
     27 C          -3.1683   -4.5889    1.5116 C.ar    1  UNL1       -0.0202
     28 C          -3.3478   -4.1918    0.1950 C.ar    1  UNL1        0.1172
     29 O          -3.5801   -5.1884   -0.7483 O.3     1  UNL1       -0.5068
     30 C          -3.2924   -2.8547   -0.1373 C.ar    1  UNL1       -0.0138
     31 C          -2.3893    2.1776   -0.2794 C.ar    1  UNL1       -0.0091
     32 H          -5.5356    7.4534   -0.7447 H       1  UNL1        0.2954
     33 H          -4.6923    3.3444   -0.0678 H       1  UNL1        0.0689
     34 H          -2.8299    5.5257   -0.9987 H       1  UNL1        0.0626
     35 H          -0.5654    4.8077   -1.3170 H       1  UNL1        0.0625
     36 H           1.2281    3.0419   -1.2758 H       1  UNL1        0.0656
     37 H           3.2399   -0.6952    1.5128 H       1  UNL1        0.0381
     38 H           2.5422   -1.5954    0.1546 H       1  UNL1        0.0381
     39 H           4.4743    0.8365   -0.0432 H       1  UNL1        0.0318
     40 H           3.7494   -0.0318   -1.4033 H       1  UNL1        0.0318
     41 H           6.1612   -0.1632    1.3604 H       1  UNL1        0.0620
     42 H           8.0545   -1.6362    1.4388 H       1  UNL1        0.0618
     43 H           8.2600   -3.4364   -0.2059 H       1  UNL1        0.0618
     44 H           6.4791   -3.7276   -1.9702 H       1  UNL1        0.0618
     45 H           4.5822   -2.2602   -2.0620 H       1  UNL1        0.0620
     46 H          -3.2718    0.1811    1.3435 H       1  UNL1        0.0748
     47 H          -3.6959   -0.2835   -0.3496 H       1  UNL1        0.0748
     48 H          -2.6945   -1.5938    2.9353 H       1  UNL1        0.0621
     49 H          -2.7915   -3.9689    3.5319 H       1  UNL1        0.0619
     50 H          -3.2044   -5.6350    1.8162 H       1  UNL1        0.0654
     51 H          -4.4469   -5.2568   -1.2768 H       1  UNL1        0.2921
     52 H          -3.4329   -2.5568   -1.1686 H       1  UNL1        0.0658
     53 H          -3.3717    1.8971    0.0030 H       1  UNL1        0.0661
@<TRIPOS>BOND
     1     1     2    2
     2     2     3    1
     3     2     4    1
     4     4     5    2
     5     5     6    1
     6     6     7   ar
     7     7     8   ar
     8     8     9   ar
     9     9    10    1
    10    10    11    1
    11    11    12    2
    12    11    13    1
    13    13    14    1
    14    14    15    1
    15    15    16   ar
    16    16    17   ar
    17    17    18   ar
    18    18    19   ar
    19    19    20   ar
    20     9    21   ar
    21    21    22    1
    22    22    23    1
    23    23    24    1
    24    24    25   ar
    25    25    26   ar
    26    26    27   ar
    27    27    28   ar
    28    28    29    1
    29    28    30   ar
    30    21    31   ar
    31    31     6   ar
    32    20    15   ar
    33    30    24   ar
    34     3    32    1
    35     4    33    1
    36     5    34    1
    37     7    35    1
    38     8    36    1
    39    13    37    1
    40    13    38    1
    41    14    39    1
    42    14    40    1
    43    16    41    1
    44    17    42    1
    45    18    43    1
    46    19    44    1
    47    20    45    1
    48    23    46    1
    49    23    47    1
    50    25    48    1
    51    26    49    1
    52    27    50    1
    53    29    51    1
    54    30    52    1
    55    31    53    1
