
     RDKit          3D

 53 55  0  0  0  0  0  0  0  0999 V2000
   -6.4907    5.2324   -0.1361 O   0  0  0  0  0  0  0  0  0  0  0  0
   -5.2904    5.4554   -0.4488 C   0  0  0  0  0  0  0  0  0  0  0  0
   -4.8423    6.6974   -0.8449 O   0  0  0  0  0  0  0  0  0  0  0  0
   -4.3600    4.3129   -0.3729 C   0  0  0  0  0  0  0  0  0  0  0  0
   -3.1045    4.5041   -0.6910 C   0  0  0  0  0  0  0  0  0  0  0  0
   -2.0953    3.4575   -0.6551 C   0  0  0  0  0  0  0  0  0  0  0  0
   -0.7845    3.7918   -1.0215 C   0  0  0  0  0  0  0  0  0  0  0  0
    0.2037    2.8024   -0.9953 C   0  0  0  0  0  0  0  0  0  0  0  0
   -0.0920    1.5093   -0.6162 C   0  0  0  0  0  0  0  0  0  0  0  0
    0.9109    0.5509   -0.6019 O   0  0  0  0  0  0  0  0  0  0  0  0
    1.8255    0.4293    0.4357 C   0  0  0  0  0  0  0  0  0  0  0  0
    1.7007    1.2481    1.3834 O   0  0  0  0  0  0  0  0  0  0  0  0
    2.9044   -0.5954    0.4607 C   0  0  0  0  0  0  0  0  0  0  0  0
    4.1059   -0.1517   -0.3383 C   0  0  0  0  0  0  0  0  0  0  0  0
    5.2200   -1.0904   -0.3570 C   0  0  0  0  0  0  0  0  0  0  0  0
    6.2057   -0.9571    0.5944 C   0  0  0  0  0  0  0  0  0  0  0  0
    7.2960   -1.7744    0.6730 C   0  0  0  0  0  0  0  0  0  0  0  0
    7.4011   -2.7977   -0.2716 C   0  0  0  0  0  0  0  0  0  0  0  0
    6.4161   -2.9317   -1.2219 C   0  0  0  0  0  0  0  0  0  0  0  0
    5.3188   -2.0914   -1.2838 C   0  0  0  0  0  0  0  0  0  0  0  0
   -1.3822    1.1935   -0.2589 C   0  0  0  0  0  0  0  0  0  0  0  0
   -1.6633   -0.0910    0.1135 O   0  0  0  0  0  0  0  0  0  0  0  0
   -2.9928   -0.4603    0.4829 C   0  0  0  0  0  0  0  0  0  0  0  0
   -3.0557   -1.8832    0.8427 C   0  0  0  0  0  0  0  0  0  0  0  0
   -2.8807   -2.3095    2.1461 C   0  0  0  0  0  0  0  0  0  0  0  0
   -2.9348   -3.6523    2.4881 C   0  0  0  0  0  0  0  0  0  0  0  0
   -3.1683   -4.5889    1.5116 C   0  0  0  0  0  0  0  0  0  0  0  0
   -3.3478   -4.1918    0.1950 C   0  0  0  0  0  0  0  0  0  0  0  0
   -3.5801   -5.1884   -0.7483 O   0  0  0  0  0  0  0  0  0  0  0  0
   -3.2924   -2.8547   -0.1373 C   0  0  0  0  0  0  0  0  0  0  0  0
   -2.3893    2.1776   -0.2794 C   0  0  0  0  0  0  0  0  0  0  0  0
   -5.5356    7.4534   -0.7447 H   0  0  0  0  0  0  0  0  0  0  0  0
   -4.6923    3.3444   -0.0678 H   0  0  0  0  0  0  0  0  0  0  0  0
   -2.8299    5.5257   -0.9987 H   0  0  0  0  0  0  0  0  0  0  0  0
   -0.5654    4.8077   -1.3170 H   0  0  0  0  0  0  0  0  0  0  0  0
    1.2281    3.0419   -1.2758 H   0  0  0  0  0  0  0  0  0  0  0  0
    3.2399   -0.6952    1.5128 H   0  0  0  0  0  0  0  0  0  0  0  0
    2.5422   -1.5954    0.1546 H   0  0  0  0  0  0  0  0  0  0  0  0
    4.4743    0.8365   -0.0432 H   0  0  0  0  0  0  0  0  0  0  0  0
    3.7494   -0.0318   -1.4033 H   0  0  0  0  0  0  0  0  0  0  0  0
    6.1612   -0.1632    1.3604 H   0  0  0  0  0  0  0  0  0  0  0  0
    8.0545   -1.6362    1.4388 H   0  0  0  0  0  0  0  0  0  0  0  0
    8.2600   -3.4364   -0.2059 H   0  0  0  0  0  0  0  0  0  0  0  0
    6.4791   -3.7276   -1.9702 H   0  0  0  0  0  0  0  0  0  0  0  0
    4.5822   -2.2602   -2.0620 H   0  0  0  0  0  0  0  0  0  0  0  0
   -3.2718    0.1811    1.3435 H   0  0  0  0  0  0  0  0  0  0  0  0
   -3.6959   -0.2835   -0.3496 H   0  0  0  0  0  0  0  0  0  0  0  0
   -2.6945   -1.5938    2.9353 H   0  0  0  0  0  0  0  0  0  0  0  0
   -2.7915   -3.9689    3.5319 H   0  0  0  0  0  0  0  0  0  0  0  0
   -3.2044   -5.6350    1.8162 H   0  0  0  0  0  0  0  0  0  0  0  0
   -4.4469   -5.2568   -1.2768 H   0  0  0  0  0  0  0  0  0  0  0  0
   -3.4329   -2.5568   -1.1686 H   0  0  0  0  0  0  0  0  0  0  0  0
   -3.3717    1.8971    0.0030 H   0  0  0  0  0  0  0  0  0  0  0  0
  1  2  2  0
  2  3  1  0
  2  4  1  0
  4  5  2  0
  5  6  1  0
  6  7  2  0
  7  8  1  0
  8  9  2  0
  9 10  1  0
 10 11  1  0
 11 12  2  0
 11 13  1  0
 13 14  1  0
 14 15  1  0
 15 16  2  0
 16 17  1  0
 17 18  2  0
 18 19  1  0
 19 20  2  0
  9 21  1  0
 21 22  1  0
 22 23  1  0
 23 24  1  0
 24 25  2  0
 25 26  1  0
 26 27  2  0
 27 28  1  0
 28 29  1  0
 28 30  2  0
 21 31  2  0
 31  6  1  0
 20 15  1  0
 30 24  1  0
  3 32  1  0
  4 33  1  0
  5 34  1  0
  7 35  1  0
  8 36  1  0
 13 37  1  0
 13 38  1  0
 14 39  1  0
 14 40  1  0
 16 41  1  0
 17 42  1  0
 18 43  1  0
 19 44  1  0
 20 45  1  0
 23 46  1  0
 23 47  1  0
 25 48  1  0
 26 49  1  0
 27 50  1  0
 29 51  1  0
 30 52  1  0
 31 53  1  0
M  END
$$$$
