@<TRIPOS>MOLECULE
*****
 42 46 0 0 0
SMALL
GASTEIGER

@<TRIPOS>ATOM
      1 N           2.4092   -3.6607    3.2799 N.1     1  UNL1       -0.1892
      2 C           2.7299   -2.6295    2.8697 C.1     1  UNL1        0.1208
      3 C           3.1444   -1.3455    2.3366 C.ar    1  UNL1        0.1618
      4 C           4.3519   -0.7150    2.5573 C.ar    1  UNL1        0.0659
      5 N           4.3342    0.4440    1.8834 N.ar    1  UNL1       -0.2333
      6 C           3.1447    0.5689    1.2373 C.ar    1  UNL1        0.1555
      7 C           2.6142    1.5454    0.4197 C.ar    1  UNL1       -0.0153
      8 C           1.3447    1.3735   -0.0947 C.ar    1  UNL1       -0.0290
      9 C           0.6243    0.2180    0.2216 C.ar    1  UNL1        0.1103
     10 C          -0.6927    0.0898   -0.3453 C.ar    1  UNL1        0.0969
     11 C          -1.7870    0.9258   -0.1584 C.ar    1  UNL1        0.0982
     12 C          -1.8402    2.1279    0.6725 C.ar    1  UNL1        0.0027
     13 C          -2.1150    2.0869    2.0094 C.ar    1  UNL1       -0.0498
     14 C          -2.1600    3.2402    2.8004 C.ar    1  UNL1       -0.0258
     15 C          -1.9155    4.4496    2.1884 C.ar    1  UNL1        0.1234
     16 F          -1.9492    5.5983    2.9279 F       1  UNL1       -0.2055
     17 C          -1.6384    4.4919    0.8411 C.ar    1  UNL1       -0.0258
     18 C          -1.5997    3.3396    0.0830 C.ar    1  UNL1       -0.0498
     19 N          -2.7752    0.3907   -0.8896 N.ar    1  UNL1       -0.2351
     20 C          -2.3547   -0.7099   -1.5049 C.ar    1  UNL1        0.0974
     21 N          -1.0740   -0.9016   -1.1747 N.ar    1  UNL1       -0.3249
     22 C          -0.2649   -2.0085   -1.6515 C.3     1  UNL1        0.0468
     23 C          -0.6042   -3.3232   -0.9677 C.3     1  UNL1        0.0319
     24 C          -0.4680   -3.9947   -2.3163 C.3     1  UNL1        0.2527
     25 F           0.7509   -4.5657   -2.5812 F       1  UNL1       -0.2055
     26 F          -1.5381   -4.8655   -2.5599 F       1  UNL1       -0.2055
     27 C          -0.6819   -2.6190   -2.9575 C.3     1  UNL1        0.0319
     28 N           1.2076   -0.6892    1.0248 N.ar    1  UNL1       -0.1623
     29 N           2.4300   -0.5327    1.5251 N.ar    1  UNL1       -0.2023
     30 H           5.1817   -1.0551    3.1539 H       1  UNL1        0.0859
     31 H           3.1977    2.4399    0.1870 H       1  UNL1        0.0655
     32 H           0.8961    2.1200   -0.7409 H       1  UNL1        0.0641
     33 H          -2.3093    1.1413    2.5012 H       1  UNL1        0.0625
     34 H          -2.3789    3.2076    3.8618 H       1  UNL1        0.0646
     35 H          -1.4516    5.4748    0.4138 H       1  UNL1        0.0646
     36 H          -1.3797    3.4030   -0.9728 H       1  UNL1        0.0625
     37 H          -3.0064   -1.3106   -2.1580 H       1  UNL1        0.1029
     38 H           0.8305   -1.8143   -1.6131 H       1  UNL1        0.0532
     39 H           0.1651   -3.6851   -0.2540 H       1  UNL1        0.0343
     40 H          -1.6367   -3.3264   -0.5870 H       1  UNL1        0.0343
     41 H           0.0031   -2.4321   -3.8121 H       1  UNL1        0.0343
     42 H          -1.7386   -2.4928   -3.1639 H       1  UNL1        0.0343
@<TRIPOS>BOND
     1     1     2    3
     2     2     3    1
     3     3     4   ar
     4     4     5   ar
     5     5     6   ar
     6     6     7   ar
     7     7     8   ar
     8     8     9   ar
     9     9    10    1
    10    10    11   ar
    11    11    12    1
    12    12    13   ar
    13    13    14   ar
    14    14    15   ar
    15    15    16    1
    16    15    17   ar
    17    17    18   ar
    18    11    19   ar
    19    19    20   ar
    20    20    21   ar
    21    21    22    1
    22    22    23    1
    23    23    24    1
    24    24    25    1
    25    24    26    1
    26    24    27    1
    27     9    28   ar
    28    28    29   ar
    29    29     3   ar
    30    29     6   ar
    31    21    10   ar
    32    27    22    1
    33    18    12   ar
    34     4    30    1
    35     7    31    1
    36     8    32    1
    37    13    33    1
    38    14    34    1
    39    17    35    1
    40    18    36    1
    41    20    37    1
    42    22    38    1
    43    23    39    1
    44    23    40    1
    45    27    41    1
    46    27    42    1
