
     RDKit          3D

 42 46  0  0  0  0  0  0  0  0999 V2000
    2.4092   -3.6607    3.2799 N   0  0  0  0  0  0  0  0  0  0  0  0
    2.7299   -2.6295    2.8697 C   0  0  0  0  0  0  0  0  0  0  0  0
    3.1444   -1.3455    2.3366 C   0  0  0  0  0  0  0  0  0  0  0  0
    4.3519   -0.7150    2.5573 C   0  0  0  0  0  0  0  0  0  0  0  0
    4.3342    0.4440    1.8834 N   0  0  0  0  0  0  0  0  0  0  0  0
    3.1447    0.5689    1.2373 C   0  0  0  0  0  0  0  0  0  0  0  0
    2.6142    1.5454    0.4197 C   0  0  0  0  0  0  0  0  0  0  0  0
    1.3447    1.3735   -0.0947 C   0  0  0  0  0  0  0  0  0  0  0  0
    0.6243    0.2180    0.2216 C   0  0  0  0  0  0  0  0  0  0  0  0
   -0.6927    0.0898   -0.3453 C   0  0  0  0  0  0  0  0  0  0  0  0
   -1.7870    0.9258   -0.1584 C   0  0  0  0  0  0  0  0  0  0  0  0
   -1.8402    2.1279    0.6725 C   0  0  0  0  0  0  0  0  0  0  0  0
   -2.1150    2.0869    2.0094 C   0  0  0  0  0  0  0  0  0  0  0  0
   -2.1600    3.2402    2.8004 C   0  0  0  0  0  0  0  0  0  0  0  0
   -1.9155    4.4496    2.1884 C   0  0  0  0  0  0  0  0  0  0  0  0
   -1.9492    5.5983    2.9279 F   0  0  0  0  0  0  0  0  0  0  0  0
   -1.6384    4.4919    0.8411 C   0  0  0  0  0  0  0  0  0  0  0  0
   -1.5997    3.3396    0.0830 C   0  0  0  0  0  0  0  0  0  0  0  0
   -2.7752    0.3907   -0.8896 N   0  0  0  0  0  0  0  0  0  0  0  0
   -2.3547   -0.7099   -1.5049 C   0  0  0  0  0  0  0  0  0  0  0  0
   -1.0740   -0.9016   -1.1747 N   0  0  0  0  0  0  0  0  0  0  0  0
   -0.2649   -2.0085   -1.6515 C   0  0  0  0  0  0  0  0  0  0  0  0
   -0.6042   -3.3232   -0.9677 C   0  0  0  0  0  0  0  0  0  0  0  0
   -0.4680   -3.9947   -2.3163 C   0  0  0  0  0  0  0  0  0  0  0  0
    0.7509   -4.5657   -2.5812 F   0  0  0  0  0  0  0  0  0  0  0  0
   -1.5381   -4.8655   -2.5599 F   0  0  0  0  0  0  0  0  0  0  0  0
   -0.6819   -2.6190   -2.9575 C   0  0  0  0  0  0  0  0  0  0  0  0
    1.2076   -0.6892    1.0248 N   0  0  0  0  0  0  0  0  0  0  0  0
    2.4300   -0.5327    1.5251 N   0  0  0  0  0  0  0  0  0  0  0  0
    5.1817   -1.0551    3.1539 H   0  0  0  0  0  0  0  0  0  0  0  0
    3.1977    2.4399    0.1870 H   0  0  0  0  0  0  0  0  0  0  0  0
    0.8961    2.1200   -0.7409 H   0  0  0  0  0  0  0  0  0  0  0  0
   -2.3093    1.1413    2.5012 H   0  0  0  0  0  0  0  0  0  0  0  0
   -2.3789    3.2076    3.8618 H   0  0  0  0  0  0  0  0  0  0  0  0
   -1.4516    5.4748    0.4138 H   0  0  0  0  0  0  0  0  0  0  0  0
   -1.3797    3.4030   -0.9728 H   0  0  0  0  0  0  0  0  0  0  0  0
   -3.0064   -1.3106   -2.1580 H   0  0  0  0  0  0  0  0  0  0  0  0
    0.8305   -1.8143   -1.6131 H   0  0  0  0  0  0  0  0  0  0  0  0
    0.1651   -3.6851   -0.2540 H   0  0  0  0  0  0  0  0  0  0  0  0
   -1.6367   -3.3264   -0.5870 H   0  0  0  0  0  0  0  0  0  0  0  0
    0.0031   -2.4321   -3.8121 H   0  0  0  0  0  0  0  0  0  0  0  0
   -1.7386   -2.4928   -3.1639 H   0  0  0  0  0  0  0  0  0  0  0  0
  1  2  3  0
  2  3  1  0
  3  4  2  0
  4  5  1  0
  5  6  2  0
  6  7  1  0
  7  8  2  0
  8  9  1  0
  9 10  1  0
 10 11  2  0
 11 12  1  0
 12 13  2  0
 13 14  1  0
 14 15  2  0
 15 16  1  0
 15 17  1  0
 17 18  2  0
 11 19  1  0
 19 20  2  0
 20 21  1  0
 21 22  1  0
 22 23  1  0
 23 24  1  0
 24 25  1  0
 24 26  1  0
 24 27  1  0
  9 28  2  0
 28 29  1  0
 29  3  1  0
 29  6  1  0
 21 10  1  0
 27 22  1  0
 18 12  1  0
  4 30  1  0
  7 31  1  0
  8 32  1  0
 13 33  1  0
 14 34  1  0
 17 35  1  0
 18 36  1  0
 20 37  1  0
 22 38  1  0
 23 39  1  0
 23 40  1  0
 27 41  1  0
 27 42  1  0
M  END
$$$$
