@<TRIPOS>MOLECULE
*****
 66 69 0 0 0
SMALL
GASTEIGER

@<TRIPOS>ATOM
      1 C           0.5246   -0.3433    3.3107 C.3     1  UNL1       -0.0421
      2 C           0.6079    0.5347    2.0563 C.3     1  UNL1        0.0515
      3 C           1.9162    0.3942    1.3731 C.ar    1  UNL1       -0.0271
      4 C           2.8329   -0.5917    1.6902 C.ar    1  UNL1       -0.0562
      5 C           4.0578   -0.6780    1.0438 C.ar    1  UNL1       -0.0537
      6 C           4.4141    0.2136    0.0624 C.ar    1  UNL1       -0.0165
      7 C           5.7123    0.1132   -0.6264 C.ar    1  UNL1       -0.0015
      8 C           6.2842   -1.1034   -0.8398 C.ar    1  UNL1       -0.0475
      9 C           7.5261   -1.1982   -1.4742 C.ar    1  UNL1        0.0036
     10 C           8.1285   -0.0196   -1.8630 C.ar    1  UNL1        0.2511
     11 O           9.2685   -0.0644   -2.4471 O.2     1  UNL1       -0.2677
     12 N           7.5727    1.1766   -1.6572 N.ar    1  UNL1       -0.3177
     13 C           8.2355    2.4036   -2.0674 C.3     1  UNL1        0.0147
     14 C           6.3671    1.2515   -1.0416 C.ar    1  UNL1        0.0153
     15 C           3.4995    1.2052   -0.2611 C.ar    1  UNL1       -0.0537
     16 C           2.2836    1.2812    0.3878 C.ar    1  UNL1       -0.0562
     17 N          -0.5015    0.3380    1.1790 N.am    1  UNL1       -0.2605
     18 C          -1.5436    1.3035    0.9596 C.3     1  UNL1        0.0224
     19 C          -2.8643    0.5530    1.0506 C.3     1  UNL1        0.0075
     20 C          -3.0527   -0.5031    0.0294 C.3     1  UNL1        0.1428
     21 C          -3.1724   -0.1053   -1.3736 C.3     1  UNL1        0.0095
     22 C          -4.2425    0.7609   -1.8656 C.3     1  UNL1        0.0557
     23 C          -5.6399    0.1960   -1.6560 C.3     1  UNL1       -0.0468
     24 C          -4.1897    2.2113   -1.4425 C.3     1  UNL1       -0.0468
     25 C          -4.0922    0.8048   -3.3363 C.1     1  UNL1        0.0688
     26 N          -3.9541    0.8299   -4.5129 N.1     1  UNL1       -0.1960
     27 C          -4.1357   -1.4351    0.4969 C.ar    1  UNL1       -0.0041
     28 C          -4.8726   -1.1580    1.6171 C.ar    1  UNL1       -0.0548
     29 C          -5.8431   -2.0246    2.0726 C.ar    1  UNL1       -0.0614
     30 C          -6.0870   -3.2046    1.3917 C.ar    1  UNL1       -0.0617
     31 C          -5.3633   -3.5121    0.2617 C.ar    1  UNL1       -0.0614
     32 C          -4.4090   -2.6264   -0.1600 C.ar    1  UNL1       -0.0548
     33 O          -1.8726   -1.3321    0.0766 O.3     1  UNL1       -0.4388
     34 C          -0.6388   -0.8987    0.4587 C.2     1  UNL1        0.4042
     35 O           0.3740   -1.5964    0.1718 O.2     1  UNL1       -0.2262
     36 H           1.5313   -0.2212    3.8174 H       1  UNL1        0.0251
     37 H          -0.2336    0.0538    4.0189 H       1  UNL1        0.0251
     38 H           0.3767   -1.4067    3.0748 H       1  UNL1        0.0251
     39 H           0.4837    1.5830    2.4756 H       1  UNL1        0.0549
     40 H           2.5635   -1.3045    2.4623 H       1  UNL1        0.0621
     41 H           4.7685   -1.4531    1.2994 H       1  UNL1        0.0624
     42 H           5.7983   -2.0029   -0.5272 H       1  UNL1        0.0626
     43 H           8.0033   -2.1466   -1.6586 H       1  UNL1        0.0672
     44 H           9.2409    2.4324   -1.5715 H       1  UNL1        0.0457
     45 H           7.6788    3.3020   -1.6842 H       1  UNL1        0.0457
     46 H           8.4121    2.4521   -3.1592 H       1  UNL1        0.0457
     47 H           5.8792    2.1988   -0.8556 H       1  UNL1        0.0816
     48 H           3.7903    1.8946   -1.0262 H       1  UNL1        0.0624
     49 H           1.6069    2.0825    0.0886 H       1  UNL1        0.0621
     50 H          -1.4307    1.8704    0.0247 H       1  UNL1        0.0467
     51 H          -1.5595    2.0558    1.7923 H       1  UNL1        0.0467
     52 H          -3.6563    1.2774    1.1938 H       1  UNL1        0.0322
     53 H          -2.7837    0.0088    2.0464 H       1  UNL1        0.0322
     54 H          -3.1817   -1.0412   -1.9958 H       1  UNL1        0.0322
     55 H          -2.1997    0.3808   -1.6628 H       1  UNL1        0.0322
     56 H          -5.9650    0.3323   -0.6031 H       1  UNL1        0.0245
     57 H          -5.7063   -0.8420   -2.0288 H       1  UNL1        0.0245
     58 H          -6.3956    0.7700   -2.2710 H       1  UNL1        0.0245
     59 H          -3.1760    2.5990   -1.4169 H       1  UNL1        0.0245
     60 H          -4.8167    2.4112   -0.5459 H       1  UNL1        0.0245
     61 H          -4.7090    2.8142   -2.2503 H       1  UNL1        0.0245
     62 H          -4.7485   -0.2481    2.2029 H       1  UNL1        0.0622
     63 H          -6.4306   -1.7932    2.9773 H       1  UNL1        0.0618
     64 H          -6.8587   -3.9041    1.7492 H       1  UNL1        0.0618
     65 H          -5.5634   -4.4582   -0.2800 H       1  UNL1        0.0618
     66 H          -3.8488   -2.8735   -1.0504 H       1  UNL1        0.0622
@<TRIPOS>BOND
     1     1     2    1
     2     2     3    1
     3     3     4   ar
     4     4     5   ar
     5     5     6   ar
     6     6     7    1
     7     7     8   ar
     8     8     9   ar
     9     9    10   ar
    10    10    11    2
    11    10    12   ar
    12    12    13    1
    13    12    14   ar
    14     6    15   ar
    15    15    16   ar
    16     2    17    1
    17    17    18    1
    18    18    19    1
    19    19    20    1
    20    20    21    1
    21    21    22    1
    22    22    23    1
    23    22    24    1
    24    22    25    1
    25    25    26    3
    26    20    27    1
    27    27    28   ar
    28    28    29   ar
    29    29    30   ar
    30    30    31   ar
    31    31    32   ar
    32    20    33    1
    33    33    34    1
    34    34    35    2
    35    16     3   ar
    36    34    17   am
    37    14     7   ar
    38    32    27   ar
    39     1    36    1
    40     1    37    1
    41     1    38    1
    42     2    39    1
    43     4    40    1
    44     5    41    1
    45     8    42    1
    46     9    43    1
    47    13    44    1
    48    13    45    1
    49    13    46    1
    50    14    47    1
    51    15    48    1
    52    16    49    1
    53    18    50    1
    54    18    51    1
    55    19    52    1
    56    19    53    1
    57    21    54    1
    58    21    55    1
    59    23    56    1
    60    23    57    1
    61    23    58    1
    62    24    59    1
    63    24    60    1
    64    24    61    1
    65    28    62    1
    66    29    63    1
    67    30    64    1
    68    31    65    1
    69    32    66    1
