@<TRIPOS>MOLECULE
*****
 51 53 0 0 0
SMALL
GASTEIGER

@<TRIPOS>ATOM
      1 C           8.3703   -0.7408   -2.2600 C.3     1  UNL1        0.0789
      2 O           7.2947   -1.5992   -1.9715 O.3     1  UNL1       -0.4936
      3 C           6.0905   -1.1012   -1.4412 C.ar    1  UNL1        0.1381
      4 C           5.9243    0.2433   -1.1868 C.ar    1  UNL1       -0.0163
      5 C           4.7145    0.6908   -0.6615 C.ar    1  UNL1       -0.0277
      6 C           3.6781   -0.1705   -0.3882 C.ar    1  UNL1        0.1259
      7 C           2.4152    0.3004    0.1606 C.2     1  UNL1        0.2666
      8 O           2.2640    1.5275    0.3926 O.2     1  UNL1       -0.2682
      9 N           1.3308   -0.5714    0.4505 N.am    1  UNL1       -0.2802
     10 C           0.0873   -0.0902    0.9933 C.ar    1  UNL1        0.0345
     11 C          -0.1139   -0.0066    2.3545 C.ar    1  UNL1       -0.0348
     12 C          -1.2905    0.4486    2.8918 C.ar    1  UNL1       -0.0132
     13 C          -1.4807    0.5284    4.3562 C.3     1  UNL1       -0.0369
     14 C          -2.3033    0.8344    2.0144 C.ar    1  UNL1        0.1319
     15 F          -3.4409    1.2563    2.6032 F       1  UNL1       -0.2048
     16 C          -2.1719    0.7783    0.6641 C.ar    1  UNL1        0.0198
     17 C          -3.2418    1.2040   -0.2517 C.3     1  UNL1        0.1258
     18 C          -3.5918    2.6748   -0.1520 C.3     1  UNL1        0.1196
     19 F          -4.0270    3.0789    1.0574 F       1  UNL1       -0.2462
     20 C          -4.4795    0.3707   -0.0224 C.3     1  UNL1        0.0251
     21 C          -4.0690   -1.0456   -0.4547 C.3     1  UNL1        0.1998
     22 C          -5.0476   -2.0690    0.0304 C.3     1  UNL1        0.4266
     23 F          -6.3139   -1.8632   -0.4477 F       1  UNL1       -0.1669
     24 F          -4.5540   -3.3101   -0.2373 F       1  UNL1       -0.1669
     25 F          -5.1175   -1.9459    1.4159 F       1  UNL1       -0.1669
     26 O          -3.9684   -0.9754   -1.8523 O.2     1  UNL1       -0.4534
     27 C          -3.1603    0.0172   -2.3862 C.2     1  UNL1        0.2766
     28 N          -2.6999   -0.0745   -3.7522 N.pl3   1  UNL1       -0.3134
     29 N          -2.8311    1.0114   -1.6502 N.2     1  UNL1       -0.2228
     30 C          -0.9451    0.3037    0.1759 C.ar    1  UNL1       -0.0321
     31 N           3.8806   -1.4736   -0.6506 N.ar    1  UNL1       -0.2467
     32 C           5.0355   -1.9390   -1.1574 C.ar    1  UNL1        0.0700
     33 H           8.1864   -0.0873   -3.1399 H       1  UNL1        0.0660
     34 H           9.3004   -1.3039   -2.4452 H       1  UNL1        0.0660
     35 H           8.5043   -0.0796   -1.3600 H       1  UNL1        0.0660
     36 H           6.7312    0.9241   -1.3984 H       1  UNL1        0.0655
     37 H           4.5676    1.7324   -0.4575 H       1  UNL1        0.0641
     38 H           1.4868   -1.5902    0.2463 H       1  UNL1        0.1552
     39 H           0.7294   -0.3283    2.9766 H       1  UNL1        0.0640
     40 H          -1.9096   -0.4590    4.6714 H       1  UNL1        0.0278
     41 H          -2.2421    1.2877    4.6119 H       1  UNL1        0.0278
     42 H          -0.5351    0.6521    4.9001 H       1  UNL1        0.0278
     43 H          -2.6976    3.2944   -0.4563 H       1  UNL1        0.0643
     44 H          -4.3632    2.9110   -0.9071 H       1  UNL1        0.0643
     45 H          -4.7838    0.2907    1.0185 H       1  UNL1        0.0331
     46 H          -5.3132    0.6705   -0.6937 H       1  UNL1        0.0331
     47 H          -3.0831   -1.2296   -0.0311 H       1  UNL1        0.0826
     48 H          -1.7695    0.2291   -4.0550 H       1  UNL1        0.1466
     49 H          -3.3639   -0.4708   -4.4385 H       1  UNL1        0.1466
     50 H          -0.8373    0.2574   -0.8974 H       1  UNL1        0.0640
     51 H           5.1547   -2.9930   -1.3526 H       1  UNL1        0.0867
@<TRIPOS>BOND
     1     1     2    1
     2     2     3    1
     3     3     4   ar
     4     4     5   ar
     5     5     6   ar
     6     6     7    1
     7     7     8    2
     8     7     9   am
     9     9    10    1
    10    10    11   ar
    11    11    12   ar
    12    12    13    1
    13    12    14   ar
    14    14    15    1
    15    14    16   ar
    16    16    17    1
    17    17    18    1
    18    18    19    1
    19    17    20    1
    20    20    21    1
    21    21    22    1
    22    22    23    1
    23    22    24    1
    24    22    25    1
    25    21    26    1
    26    26    27    1
    27    27    28    1
    28    27    29    2
    29    16    30   ar
    30     6    31   ar
    31    31    32   ar
    32    32     3   ar
    33    30    10   ar
    34    29    17    1
    35     1    33    1
    36     1    34    1
    37     1    35    1
    38     4    36    1
    39     5    37    1
    40     9    38    1
    41    11    39    1
    42    13    40    1
    43    13    41    1
    44    13    42    1
    45    18    43    1
    46    18    44    1
    47    20    45    1
    48    20    46    1
    49    21    47    1
    50    28    48    1
    51    28    49    1
    52    30    50    1
    53    32    51    1
