
     RDKit          3D

 58 62  0  0  0  0  0  0  0  0999 V2000
   -3.5703    2.7831    0.3578 C   0  0  0  0  0  0  0  0  0  0  0  0
   -3.8475    2.1499   -0.9184 N   0  0  0  0  0  0  0  0  0  0  0  0
   -4.8002    2.9345   -1.6894 C   0  0  0  0  0  0  0  0  0  0  0  0
   -4.3715    0.8092   -0.7508 C   0  0  0  0  0  0  0  0  0  0  0  0
   -3.3461   -0.1342   -0.1816 C   0  0  0  0  0  0  0  0  0  0  0  0
   -2.1202   -0.2428   -1.0687 C   0  0  0  0  0  0  0  0  0  0  0  0
   -1.1480   -1.1586   -0.4950 N   0  0  0  0  0  0  0  0  0  0  0  0
   -0.1495   -0.8495    0.3786 C   0  0  0  0  0  0  0  0  0  0  0  0
    0.5585   -2.0081    0.7028 C   0  0  0  0  0  0  0  0  0  0  0  0
    1.6968   -2.0630    1.6084 C   0  0  0  0  0  0  0  0  0  0  0  0
    2.7050   -1.1721    1.6088 C   0  0  0  0  0  0  0  0  0  0  0  0
    2.8044   -0.0353    0.7094 C   0  0  0  0  0  0  0  0  0  0  0  0
    2.6195    0.0115   -0.6674 C   0  0  0  0  0  0  0  0  0  0  0  0
    2.7891    1.2495   -1.1185 N   0  0  0  0  0  0  0  0  0  0  0  0
    2.6842    1.6970   -2.4925 C   0  0  0  0  0  0  0  0  0  0  0  0
    3.0873    2.0466   -0.0627 C   0  0  0  0  0  0  0  0  0  0  0  0
    3.3453    3.3951    0.0040 C   0  0  0  0  0  0  0  0  0  0  0  0
    3.6234    4.0191    1.1952 C   0  0  0  0  0  0  0  0  0  0  0  0
    3.6414    3.2711    2.3398 C   0  0  0  0  0  0  0  0  0  0  0  0
    3.3815    1.9159    2.2668 C   0  0  0  0  0  0  0  0  0  0  0  0
    3.0981    1.2536    1.0806 C   0  0  0  0  0  0  0  0  0  0  0  0
    3.6852   -1.5345    2.6503 C   0  0  0  0  0  0  0  0  0  0  0  0
    4.7497   -0.9301    2.9294 O   0  0  0  0  0  0  0  0  0  0  0  0
    3.2164   -2.7098    3.2992 N   0  0  0  0  0  0  0  0  0  0  0  0
    1.9855   -3.0329    2.6513 C   0  0  0  0  0  0  0  0  0  0  0  0
    1.2886   -4.0299    2.9804 O   0  0  0  0  0  0  0  0  0  0  0  0
   -0.0597   -3.0011   -0.0118 C   0  0  0  0  0  0  0  0  0  0  0  0
    0.1743   -4.3479   -0.1213 C   0  0  0  0  0  0  0  0  0  0  0  0
   -0.6012   -5.1732   -0.9322 C   0  0  0  0  0  0  0  0  0  0  0  0
   -1.6364   -4.6225   -1.6486 C   0  0  0  0  0  0  0  0  0  0  0  0
   -1.9014   -3.2614   -1.5626 C   0  0  0  0  0  0  0  0  0  0  0  0
   -1.1166   -2.4736   -0.7528 C   0  0  0  0  0  0  0  0  0  0  0  0
   -2.5600    3.2489    0.3489 H   0  0  0  0  0  0  0  0  0  0  0  0
   -4.3158    3.5887    0.5377 H   0  0  0  0  0  0  0  0  0  0  0  0
   -3.6016    2.0580    1.1725 H   0  0  0  0  0  0  0  0  0  0  0  0
   -5.4457    2.2162   -2.2329 H   0  0  0  0  0  0  0  0  0  0  0  0
   -4.2441    3.6013   -2.3706 H   0  0  0  0  0  0  0  0  0  0  0  0
   -5.4482    3.4964   -0.9759 H   0  0  0  0  0  0  0  0  0  0  0  0
   -5.2676    0.8897   -0.1025 H   0  0  0  0  0  0  0  0  0  0  0  0
   -4.7361    0.4661   -1.7391 H   0  0  0  0  0  0  0  0  0  0  0  0
   -3.0799    0.1057    0.8650 H   0  0  0  0  0  0  0  0  0  0  0  0
   -3.8075   -1.1519   -0.1604 H   0  0  0  0  0  0  0  0  0  0  0  0
   -1.7189    0.7828   -1.1949 H   0  0  0  0  0  0  0  0  0  0  0  0
   -2.4582   -0.5779   -2.0731 H   0  0  0  0  0  0  0  0  0  0  0  0
    0.0245    0.1392    0.7303 H   0  0  0  0  0  0  0  0  0  0  0  0
    2.3716   -0.8771   -1.2450 H   0  0  0  0  0  0  0  0  0  0  0  0
    1.6340    1.6228   -2.8320 H   0  0  0  0  0  0  0  0  0  0  0  0
    3.3374    1.0629   -3.1628 H   0  0  0  0  0  0  0  0  0  0  0  0
    3.0765    2.7261   -2.6197 H   0  0  0  0  0  0  0  0  0  0  0  0
    3.3389    4.0224   -0.8890 H   0  0  0  0  0  0  0  0  0  0  0  0
    3.8220    5.0826    1.2084 H   0  0  0  0  0  0  0  0  0  0  0  0
    3.8598    3.7561    3.2873 H   0  0  0  0  0  0  0  0  0  0  0  0
    3.3914    1.3533    3.1933 H   0  0  0  0  0  0  0  0  0  0  0  0
    3.7255   -3.1742    4.0761 H   0  0  0  0  0  0  0  0  0  0  0  0
    0.9834   -4.8042    0.4236 H   0  0  0  0  0  0  0  0  0  0  0  0
   -0.3844   -6.2426   -0.9929 H   0  0  0  0  0  0  0  0  0  0  0  0
   -2.2286   -5.2840   -2.2744 H   0  0  0  0  0  0  0  0  0  0  0  0
   -2.7337   -2.8629   -2.1495 H   0  0  0  0  0  0  0  0  0  0  0  0
  1  2  1  0
  2  3  1  0
  2  4  1  0
  4  5  1  0
  5  6  1  0
  6  7  1  0
  7  8  1  0
  8  9  2  0
  9 10  1  0
 10 11  2  0
 11 12  1  0
 12 13  2  0
 13 14  1  0
 14 15  1  0
 14 16  1  0
 16 17  2  0
 17 18  1  0
 18 19  2  0
 19 20  1  0
 20 21  2  0
 11 22  1  0
 22 23  2  0
 22 24  1  0
 24 25  1  0
 25 26  2  0
  9 27  1  0
 27 28  2  0
 28 29  1  0
 29 30  2  0
 30 31  1  0
 31 32  2  0
 32  7  1  0
 25 10  1  0
 32 27  1  0
 21 12  1  0
 21 16  1  0
  1 33  1  0
  1 34  1  0
  1 35  1  0
  3 36  1  0
  3 37  1  0
  3 38  1  0
  4 39  1  0
  4 40  1  0
  5 41  1  0
  5 42  1  0
  6 43  1  0
  6 44  1  0
  8 45  1  0
 13 46  1  0
 15 47  1  0
 15 48  1  0
 15 49  1  0
 17 50  1  0
 18 51  1  0
 19 52  1  0
 20 53  1  0
 24 54  1  0
 28 55  1  0
 29 56  1  0
 30 57  1  0
 31 58  1  0
M  END
$$$$
