@<TRIPOS>MOLECULE
*****
 58 62 0 0 0
SMALL
GASTEIGER

@<TRIPOS>ATOM
      1 C          -3.5703    2.7831    0.3578 C.3     1  UNL1       -0.0130
      2 N          -3.8475    2.1499   -0.9184 N.3     1  UNL1       -0.3083
      3 C          -4.8002    2.9345   -1.6894 C.3     1  UNL1       -0.0130
      4 C          -4.3715    0.8092   -0.7508 C.3     1  UNL1       -0.0001
      5 C          -3.3461   -0.1342   -0.1816 C.3     1  UNL1       -0.0222
      6 C          -2.1202   -0.2428   -1.0687 C.3     1  UNL1        0.0245
      7 N          -1.1480   -1.1586   -0.4950 N.ar    1  UNL1       -0.3460
      8 C          -0.1495   -0.8495    0.3786 C.ar    1  UNL1        0.0136
      9 C           0.5585   -2.0081    0.7028 C.ar    1  UNL1        0.0131
     10 C           1.6968   -2.0630    1.6084 C.2     1  UNL1        0.0590
     11 C           2.7050   -1.1721    1.6088 C.2     1  UNL1        0.0590
     12 C           2.8044   -0.0353    0.7094 C.ar    1  UNL1        0.0131
     13 C           2.6195    0.0115   -0.6674 C.ar    1  UNL1        0.0133
     14 N           2.7891    1.2495   -1.1185 N.ar    1  UNL1       -0.3491
     15 C           2.6842    1.6970   -2.4925 C.3     1  UNL1        0.0119
     16 C           3.0873    2.0466   -0.0627 C.ar    1  UNL1        0.0494
     17 C           3.3453    3.3951    0.0040 C.ar    1  UNL1       -0.0376
     18 C           3.6234    4.0191    1.1952 C.ar    1  UNL1       -0.0598
     19 C           3.6414    3.2711    2.3398 C.ar    1  UNL1       -0.0611
     20 C           3.3815    1.9159    2.2668 C.ar    1  UNL1       -0.0520
     21 C           3.0981    1.2536    1.0806 C.ar    1  UNL1        0.0077
     22 C           3.6852   -1.5345    2.6503 C.2     1  UNL1        0.2519
     23 O           4.7497   -0.9301    2.9294 O.2     1  UNL1       -0.2697
     24 N           3.2164   -2.7098    3.2992 N.am    1  UNL1       -0.2483
     25 C           1.9855   -3.0329    2.6513 C.2     1  UNL1        0.2519
     26 O           1.2886   -4.0299    2.9804 O.2     1  UNL1       -0.2697
     27 C          -0.0597   -3.0011   -0.0118 C.ar    1  UNL1        0.0077
     28 C           0.1743   -4.3479   -0.1213 C.ar    1  UNL1       -0.0520
     29 C          -0.6012   -5.1732   -0.9322 C.ar    1  UNL1       -0.0611
     30 C          -1.6364   -4.6225   -1.6486 C.ar    1  UNL1       -0.0598
     31 C          -1.9014   -3.2614   -1.5626 C.ar    1  UNL1       -0.0376
     32 C          -1.1166   -2.4736   -0.7528 C.ar    1  UNL1        0.0497
     33 H          -2.5600    3.2489    0.3489 H       1  UNL1        0.0391
     34 H          -4.3158    3.5887    0.5377 H       1  UNL1        0.0391
     35 H          -3.6016    2.0580    1.1725 H       1  UNL1        0.0391
     36 H          -5.4457    2.2162   -2.2329 H       1  UNL1        0.0391
     37 H          -4.2441    3.6013   -2.3706 H       1  UNL1        0.0391
     38 H          -5.4482    3.4964   -0.9759 H       1  UNL1        0.0391
     39 H          -5.2676    0.8897   -0.1025 H       1  UNL1        0.0427
     40 H          -4.7361    0.4661   -1.7391 H       1  UNL1        0.0427
     41 H          -3.0799    0.1057    0.8650 H       1  UNL1        0.0295
     42 H          -3.8075   -1.1519   -0.1604 H       1  UNL1        0.0295
     43 H          -1.7189    0.7828   -1.1949 H       1  UNL1        0.0492
     44 H          -2.4582   -0.5779   -2.0731 H       1  UNL1        0.0492
     45 H           0.0245    0.1392    0.7303 H       1  UNL1        0.0815
     46 H           2.3716   -0.8771   -1.2450 H       1  UNL1        0.0815
     47 H           1.6340    1.6228   -2.8320 H       1  UNL1        0.0456
     48 H           3.3374    1.0629   -3.1628 H       1  UNL1        0.0456
     49 H           3.0765    2.7261   -2.6197 H       1  UNL1        0.0456
     50 H           3.3389    4.0224   -0.8890 H       1  UNL1        0.0638
     51 H           3.8220    5.0826    1.2084 H       1  UNL1        0.0618
     52 H           3.8598    3.7561    3.2873 H       1  UNL1        0.0618
     53 H           3.3914    1.3533    3.1933 H       1  UNL1        0.0624
     54 H           3.7255   -3.1742    4.0761 H       1  UNL1        0.1581
     55 H           0.9834   -4.8042    0.4236 H       1  UNL1        0.0624
     56 H          -0.3844   -6.2426   -0.9929 H       1  UNL1        0.0618
     57 H          -2.2286   -5.2840   -2.2744 H       1  UNL1        0.0618
     58 H          -2.7337   -2.8629   -2.1495 H       1  UNL1        0.0638
@<TRIPOS>BOND
     1     1     2    1
     2     2     3    1
     3     2     4    1
     4     4     5    1
     5     5     6    1
     6     6     7    1
     7     7     8   ar
     8     8     9   ar
     9     9    10    1
    10    10    11    2
    11    11    12    1
    12    12    13   ar
    13    13    14   ar
    14    14    15    1
    15    14    16   ar
    16    16    17   ar
    17    17    18   ar
    18    18    19   ar
    19    19    20   ar
    20    20    21   ar
    21    11    22    1
    22    22    23    2
    23    22    24   am
    24    24    25   am
    25    25    26    2
    26     9    27   ar
    27    27    28   ar
    28    28    29   ar
    29    29    30   ar
    30    30    31   ar
    31    31    32   ar
    32    32     7   ar
    33    25    10    1
    34    32    27   ar
    35    21    12   ar
    36    21    16   ar
    37     1    33    1
    38     1    34    1
    39     1    35    1
    40     3    36    1
    41     3    37    1
    42     3    38    1
    43     4    39    1
    44     4    40    1
    45     5    41    1
    46     5    42    1
    47     6    43    1
    48     6    44    1
    49     8    45    1
    50    13    46    1
    51    15    47    1
    52    15    48    1
    53    15    49    1
    54    17    50    1
    55    18    51    1
    56    19    52    1
    57    20    53    1
    58    24    54    1
    59    28    55    1
    60    29    56    1
    61    30    57    1
    62    31    58    1
