@<TRIPOS>MOLECULE
*****
 64 68 0 0 0
SMALL
GASTEIGER

@<TRIPOS>ATOM
      1 C          -5.3301    2.9094   -0.2122 C.3     1  UNL1       -0.0373
      2 C          -5.0919    1.4267   -0.3534 C.ar    1  UNL1       -0.0202
      3 C          -4.2613    0.7219    0.4689 C.ar    1  UNL1        0.0350
      4 N          -3.6135    1.4286    1.5608 N.pl3   1  UNL1       -0.3127
      5 C          -2.9462    0.7580    2.5723 C.ar    1  UNL1        0.0591
      6 C          -3.7660    0.5214    3.7275 C.ar    1  UNL1        0.0914
      7 C          -5.0573    1.0617    3.7534 C.1     1  UNL1        0.1026
      8 N          -6.2285    1.5764    3.7788 N.1     1  UNL1       -0.1908
      9 C          -3.2349   -0.1173    4.7765 C.ar    1  UNL1        0.0467
     10 N          -1.9225   -0.5117    4.7338 N.ar    1  UNL1       -0.2613
     11 C          -1.1547   -0.2982    3.6734 C.ar    1  UNL1        0.0365
     12 C          -1.6587    0.3656    2.5133 C.ar    1  UNL1        0.0155
     13 C          -0.8586    0.5111    1.3590 C.2     1  UNL1       -0.0493
     14 C          -0.7737    0.6528    0.1126 C.2     1  UNL1       -0.0356
     15 C           0.4795    0.7602   -0.6604 C.ar    1  UNL1        0.0642
     16 C           0.3500    0.9604   -1.9869 C.ar    1  UNL1       -0.0363
     17 C           1.4578    0.9636   -2.9014 C.ar    1  UNL1       -0.0580
     18 C           2.6720    0.7464   -2.2660 C.ar    1  UNL1       -0.0391
     19 C           2.7874    0.5531   -0.9566 C.ar    1  UNL1        0.0559
     20 C           4.1560    0.3738   -0.3765 C.3     1  UNL1        0.0413
     21 N           4.7168   -0.8655   -0.3949 N.3     1  UNL1       -0.2943
     22 C           4.9950   -1.5226   -1.6050 C.3     1  UNL1        0.0121
     23 C           6.1250   -2.5880   -1.4105 C.3     1  UNL1        0.0114
     24 N           7.1414   -1.9936   -0.5510 N.3     1  UNL1       -0.3029
     25 C           7.9897   -1.0777   -1.2578 C.3     1  UNL1       -0.0127
     26 C           6.7700   -1.6981    0.7496 C.3     1  UNL1        0.0114
     27 C           5.2716   -1.3492    0.7974 C.3     1  UNL1        0.0121
     28 N           1.7019    0.5532   -0.1085 N.ar    1  UNL1       -0.2509
     29 C          -4.0364   -0.6450    0.3206 C.ar    1  UNL1       -0.0383
     30 C          -4.7216   -1.2524   -0.7705 C.ar    1  UNL1       -0.0360
     31 C          -5.5318   -0.5831   -1.5771 C.ar    1  UNL1        0.0468
     32 N          -6.3761   -0.9018   -2.6109 N.ar    1  UNL1       -0.3606
     33 C          -7.0572    0.0964   -3.0431 C.ar    1  UNL1        0.0027
     34 C          -6.7363    1.2068   -2.3352 C.ar    1  UNL1       -0.0364
     35 C          -5.7347    0.8024   -1.3576 C.ar    1  UNL1        0.0043
     36 H          -4.3177    3.3696   -0.4593 H       1  UNL1        0.0278
     37 H          -6.1109    3.2238   -0.9707 H       1  UNL1        0.0278
     38 H          -5.6680    3.1033    0.8167 H       1  UNL1        0.0278
     39 H          -3.6893    2.4832    1.4932 H       1  UNL1        0.1522
     40 H          -3.7728   -0.3321    5.6632 H       1  UNL1        0.0843
     41 H          -0.1321   -0.5884    3.6352 H       1  UNL1        0.0836
     42 H           0.3296    0.5277    1.7451 H       1  UNL1        0.0625
     43 H          -1.7270    0.6907   -0.3973 H       1  UNL1        0.0639
     44 H          -0.6423    1.1292   -2.4789 H       1  UNL1        0.0639
     45 H           1.3692    1.1265   -3.9044 H       1  UNL1        0.0619
     46 H           3.6144    0.7812   -2.8700 H       1  UNL1        0.0636
     47 H           4.7738    1.1159   -1.0141 H       1  UNL1        0.0491
     48 H           4.0940    0.8632    0.6406 H       1  UNL1        0.0491
     49 H           5.3985   -0.8475   -2.4232 H       1  UNL1        0.0439
     50 H           4.1675   -2.1082   -2.0106 H       1  UNL1        0.0439
     51 H           6.5265   -2.8221   -2.3824 H       1  UNL1        0.0439
     52 H           5.6433   -3.4026   -0.8534 H       1  UNL1        0.0439
     53 H           9.0175   -1.0557   -0.9352 H       1  UNL1        0.0391
     54 H           8.0483   -1.4332   -2.3554 H       1  UNL1        0.0391
     55 H           7.6150   -0.0046   -1.2483 H       1  UNL1        0.0391
     56 H           6.8853   -2.5580    1.4844 H       1  UNL1        0.0439
     57 H           7.3651   -0.8548    1.1781 H       1  UNL1        0.0439
     58 H           5.1931   -0.5569    1.6073 H       1  UNL1        0.0439
     59 H           4.7512   -2.2445    1.1881 H       1  UNL1        0.0439
     60 H          -3.4088   -1.2026    0.9090 H       1  UNL1        0.0637
     61 H          -4.4889   -2.3644   -0.8655 H       1  UNL1        0.0639
     62 H          -6.4259   -1.9114   -3.0689 H       1  UNL1        0.1653
     63 H          -7.8602    0.0902   -3.8472 H       1  UNL1        0.0807
     64 H          -7.0705    2.2366   -2.3800 H       1  UNL1        0.0639
@<TRIPOS>BOND
     1     1     2    1
     2     2     3   ar
     3     3     4    1
     4     4     5    1
     5     5     6   ar
     6     6     7    1
     7     7     8    3
     8     6     9   ar
     9     9    10   ar
    10    10    11   ar
    11    11    12   ar
    12    12    13    1
    13    13    14    2
    14    14    15    1
    15    15    16   ar
    16    16    17   ar
    17    17    18   ar
    18    18    19   ar
    19    19    20    1
    20    20    21    1
    21    21    22    1
    22    22    23    1
    23    23    24    1
    24    24    25    1
    25    24    26    1
    26    26    27    1
    27    19    28   ar
    28     3    29   ar
    29    29    30   ar
    30    30    31   ar
    31    31    32   ar
    32    32    33   ar
    33    33    34   ar
    34    34    35   ar
    35    35     2   ar
    36    12     5   ar
    37    28    15   ar
    38    35    31   ar
    39    27    21    1
    40     1    36    1
    41     1    37    1
    42     1    38    1
    43     4    39    1
    44     9    40    1
    45    11    41    1
    46    13    42    1
    47    14    43    1
    48    16    44    1
    49    17    45    1
    50    18    46    1
    51    20    47    1
    52    20    48    1
    53    22    49    1
    54    22    50    1
    55    23    51    1
    56    23    52    1
    57    25    53    1
    58    25    54    1
    59    25    55    1
    60    26    56    1
    61    26    57    1
    62    27    58    1
    63    27    59    1
    64    29    60    1
    65    30    61    1
    66    32    62    1
    67    33    63    1
    68    34    64    1
