@<TRIPOS>MOLECULE
*****
 92 95 0 0 0
SMALL
GASTEIGER

@<TRIPOS>ATOM
      1 C          -4.2687   -2.5190    2.2653 C.3     1  UNL1        0.0001
      2 N          -3.5000   -2.1970    1.0575 N.am    1  UNL1       -0.3168
      3 C          -3.8955   -2.6911   -0.2260 C.2     1  UNL1        0.2334
      4 O          -4.9393   -3.3953   -0.2104 O.2     1  UNL1       -0.2738
      5 C          -3.1963   -2.4334   -1.4814 C.3     1  UNL1        0.1033
      6 C          -3.0045   -3.5966   -2.3603 C.3     1  UNL1       -0.0007
      7 C          -4.2803   -4.2098   -2.7471 C.ar    1  UNL1       -0.0449
      8 C          -5.0074   -3.6854   -3.8025 C.ar    1  UNL1       -0.0550
      9 C          -6.1949   -4.2704   -4.1925 C.ar    1  UNL1       -0.0197
     10 C          -6.7020   -5.3950   -3.5497 C.ar    1  UNL1        0.1201
     11 O          -7.8990   -5.9560   -3.9688 O.3     1  UNL1       -0.4951
     12 C          -8.4146   -7.0988   -3.3146 C.3     1  UNL1        0.0788
     13 C          -5.9620   -5.8934   -2.5085 C.ar    1  UNL1       -0.0197
     14 C          -4.7843   -5.3323   -2.1052 C.ar    1  UNL1       -0.0550
     15 N          -1.9161   -1.7288   -1.2360 N.am    1  UNL1       -0.3034
     16 C          -1.9023   -0.3479   -1.0653 C.2     1  UNL1        0.2172
     17 O          -3.0426    0.2744   -1.1207 O.2     1  UNL1       -0.2755
     18 C          -0.6530    0.4667   -0.8281 C.3     1  UNL1        0.0442
     19 C          -1.1257    1.8834   -0.8832 C.3     1  UNL1       -0.0413
     20 C          -0.2898    3.0398   -0.7601 C.3     1  UNL1       -0.0493
     21 C           0.5183    3.4141    0.3983 C.3     1  UNL1       -0.0186
     22 C          -0.2198    3.5516    1.6944 C.3     1  UNL1        0.0896
     23 O          -1.2362    4.4567    1.7679 O.3     1  UNL1       -0.4920
     24 C          -1.3315    5.7889    1.6731 C.ar    1  UNL1        0.1205
     25 C          -2.6300    6.3260    1.7781 C.ar    1  UNL1       -0.0199
     26 C          -2.8110    7.6795    1.6918 C.ar    1  UNL1       -0.0583
     27 C          -1.7539    8.5524    1.5036 C.ar    1  UNL1       -0.0615
     28 C          -0.4771    8.0566    1.3990 C.ar    1  UNL1       -0.0583
     29 C          -0.2905    6.6726    1.4874 C.ar    1  UNL1       -0.0199
     30 C           0.0633    0.1186    0.4087 C.3     1  UNL1        0.0357
     31 P           0.7607   -1.5043    0.6007 P.3     1  UNL1        0.2072
     32 O           1.4778   -2.0054   -0.6386 O.2     1  UNL1       -0.2907
     33 O          -0.2926   -2.6626    1.2185 O.3     1  UNL1       -0.3433
     34 C           2.0947   -1.3889    1.8924 C.3     1  UNL1        0.0494
     35 C           3.2632   -0.6413    1.3874 C.ar    1  UNL1       -0.0381
     36 C           3.4871    0.6976    1.6015 C.ar    1  UNL1       -0.0578
     37 C           4.6065    1.3753    1.1063 C.ar    1  UNL1       -0.0580
     38 C           5.5391    0.6827    0.3650 C.ar    1  UNL1       -0.0430
     39 C           6.7678    1.3799   -0.1556 C.3     1  UNL1       -0.0024
     40 C           7.9816    1.0065    0.5827 C.ar    1  UNL1       -0.0431
     41 C           8.3702    1.6996    1.6842 C.ar    1  UNL1       -0.0583
     42 C           9.5213    1.3193    2.3553 C.ar    1  UNL1       -0.0615
     43 C          10.2494    0.2490    1.8966 C.ar    1  UNL1       -0.0617
     44 C           9.8764   -0.4754    0.7765 C.ar    1  UNL1       -0.0615
     45 C           8.7156   -0.0614    0.1322 C.ar    1  UNL1       -0.0583
     46 C           5.3320   -0.6541    0.1388 C.ar    1  UNL1       -0.0580
     47 C           4.2283   -1.3173    0.6296 C.ar    1  UNL1       -0.0578
     48 H          -3.5952   -2.5904    3.1583 H       1  UNL1        0.0426
     49 H          -4.8334   -3.4580    2.0910 H       1  UNL1        0.0426
     50 H          -5.0101   -1.7326    2.4994 H       1  UNL1        0.0426
     51 H          -2.6815   -1.5933    1.1276 H       1  UNL1        0.1484
     52 H          -3.7897   -1.6407   -2.0589 H       1  UNL1        0.0598
     53 H          -2.5211   -3.2164   -3.3140 H       1  UNL1        0.0336
     54 H          -2.2655   -4.3406   -1.9849 H       1  UNL1        0.0336
     55 H          -4.6414   -2.8036   -4.3302 H       1  UNL1        0.0621
     56 H          -6.7327   -3.8303   -5.0224 H       1  UNL1        0.0654
     57 H          -9.2080   -7.5748   -3.9545 H       1  UNL1        0.0660
     58 H          -7.5764   -7.8226   -3.1781 H       1  UNL1        0.0660
     59 H          -8.8979   -6.8303   -2.3540 H       1  UNL1        0.0660
     60 H          -6.3201   -6.7721   -1.9733 H       1  UNL1        0.0654
     61 H          -4.1826   -5.7326   -1.2845 H       1  UNL1        0.0621
     62 H          -1.0363   -2.2684   -1.2242 H       1  UNL1        0.1495
     63 H           0.0242    0.3212   -1.7297 H       1  UNL1        0.0399
     64 H          -2.0311    1.8937   -0.1820 H       1  UNL1        0.0273
     65 H          -1.7028    1.9155   -1.8972 H       1  UNL1        0.0273
     66 H          -0.9692    3.9601   -0.9613 H       1  UNL1        0.0267
     67 H           0.3938    3.1522   -1.6966 H       1  UNL1        0.0267
     68 H           1.4432    2.8561    0.5466 H       1  UNL1        0.0298
     69 H           0.9399    4.4846    0.2164 H       1  UNL1        0.0298
     70 H          -0.4867    2.5508    2.1289 H       1  UNL1        0.0696
     71 H           0.5802    3.9072    2.4288 H       1  UNL1        0.0696
     72 H          -3.4563    5.6284    1.9262 H       1  UNL1        0.0654
     73 H          -3.8165    8.0746    1.7732 H       1  UNL1        0.0619
     74 H          -1.9288    9.6163    1.4385 H       1  UNL1        0.0618
     75 H           0.4077    8.6565    1.2515 H       1  UNL1        0.0619
     76 H           0.7021    6.3043    1.4299 H       1  UNL1        0.0654
     77 H          -0.6696    0.2743    1.2787 H       1  UNL1        0.0371
     78 H           0.8695    0.8416    0.6557 H       1  UNL1        0.0371
     79 H          -0.4761   -2.4796    2.1710 H       1  UNL1        0.2176
     80 H           1.6419   -0.8516    2.7770 H       1  UNL1        0.0413
     81 H           2.3352   -2.4045    2.2504 H       1  UNL1        0.0413
     82 H           2.7351    1.2394    2.1949 H       1  UNL1        0.0621
     83 H           4.7271    2.4214    1.3091 H       1  UNL1        0.0620
     84 H           6.6116    2.4806    0.0084 H       1  UNL1        0.0361
     85 H           6.8199    1.2238   -1.2402 H       1  UNL1        0.0361
     86 H           7.7834    2.5662    2.0601 H       1  UNL1        0.0620
     87 H           9.8305    1.8858    3.2503 H       1  UNL1        0.0618
     88 H          11.1557   -0.0600    2.4170 H       1  UNL1        0.0618
     89 H          10.4530   -1.3221    0.4122 H       1  UNL1        0.0618
     90 H           8.3991   -0.6244   -0.7618 H       1  UNL1        0.0620
     91 H           6.0778   -1.1795   -0.4488 H       1  UNL1        0.0620
     92 H           4.0655   -2.3568    0.4577 H       1  UNL1        0.0621
@<TRIPOS>BOND
     1     1     2    1
     2     2     3   am
     3     3     4    2
     4     3     5    1
     5     5     6    1
     6     6     7    1
     7     7     8   ar
     8     8     9   ar
     9     9    10   ar
    10    10    11    1
    11    11    12    1
    12    10    13   ar
    13    13    14   ar
    14     5    15    1
    15    15    16   am
    16    16    17    2
    17    16    18    1
    18    18    19    1
    19    19    20    1
    20    20    21    1
    21    21    22    1
    22    22    23    1
    23    23    24    1
    24    24    25   ar
    25    25    26   ar
    26    26    27   ar
    27    27    28   ar
    28    28    29   ar
    29    18    30    1
    30    30    31    1
    31    31    32    2
    32    31    33    1
    33    31    34    1
    34    34    35    1
    35    35    36   ar
    36    36    37   ar
    37    37    38   ar
    38    38    39    1
    39    39    40    1
    40    40    41   ar
    41    41    42   ar
    42    42    43   ar
    43    43    44   ar
    44    44    45   ar
    45    38    46   ar
    46    46    47   ar
    47    14     7   ar
    48    29    24   ar
    49    47    35   ar
    50    45    40   ar
    51     1    48    1
    52     1    49    1
    53     1    50    1
    54     2    51    1
    55     5    52    1
    56     6    53    1
    57     6    54    1
    58     8    55    1
    59     9    56    1
    60    12    57    1
    61    12    58    1
    62    12    59    1
    63    13    60    1
    64    14    61    1
    65    15    62    1
    66    18    63    1
    67    19    64    1
    68    19    65    1
    69    20    66    1
    70    20    67    1
    71    21    68    1
    72    21    69    1
    73    22    70    1
    74    22    71    1
    75    25    72    1
    76    26    73    1
    77    27    74    1
    78    28    75    1
    79    29    76    1
    80    30    77    1
    81    30    78    1
    82    33    79    1
    83    34    80    1
    84    34    81    1
    85    36    82    1
    86    37    83    1
    87    39    84    1
    88    39    85    1
    89    41    86    1
    90    42    87    1
    91    43    88    1
    92    44    89    1
    93    45    90    1
    94    46    91    1
    95    47    92    1
