@<TRIPOS>MOLECULE
*****
 52 55 0 0 0
SMALL
GASTEIGER

@<TRIPOS>ATOM
      1 N          -7.7059    0.5976   -0.2224 N.3     1  UNL1       -0.3272
      2 C          -6.4441    1.1644    0.2068 C.3     1  UNL1        0.0049
      3 C          -5.8169    0.2072    1.1982 C.3     1  UNL1       -0.0363
      4 C          -5.2301   -0.9456    0.4110 C.3     1  UNL1       -0.0361
      5 C          -4.0274   -0.5150   -0.4001 C.3     1  UNL1        0.0080
      6 N          -2.8655   -0.6908    0.4586 N.3     1  UNL1       -0.3099
      7 C          -1.6337   -0.3138   -0.2025 C.3     1  UNL1        0.0153
      8 C          -1.2389   -1.0089   -1.4274 C.3     1  UNL1       -0.0287
      9 C          -0.4931   -1.2466   -0.0995 C.3     1  UNL1        0.0010
     10 C           0.9013   -0.8079   -0.1469 C.ar    1  UNL1       -0.0427
     11 C           1.3251    0.3467   -0.7663 C.ar    1  UNL1       -0.0577
     12 C           2.6598    0.7269   -0.7893 C.ar    1  UNL1       -0.0538
     13 C           3.6049   -0.0592   -0.1808 C.ar    1  UNL1       -0.0179
     14 C           5.0296    0.2605   -0.1554 C.ar    1  UNL1       -0.0174
     15 C           5.6577    0.9349   -1.1787 C.ar    1  UNL1       -0.0540
     16 C           7.0024    1.2113   -1.1041 C.ar    1  UNL1       -0.0607
     17 C           7.7464    0.8297   -0.0254 C.ar    1  UNL1       -0.0501
     18 C           7.1513    0.1487    1.0257 C.ar    1  UNL1        0.0554
     19 C           7.9338   -0.2800    2.2145 C.3     1  UNL1        0.4174
     20 F           7.6244   -1.5925    2.5557 F       1  UNL1       -0.1659
     21 F           9.2761   -0.2222    1.9333 F       1  UNL1       -0.1659
     22 F           7.6348    0.5551    3.2800 F       1  UNL1       -0.1659
     23 C           5.8080   -0.1199    0.9366 C.ar    1  UNL1       -0.0424
     24 C           3.2158   -1.2212    0.4484 C.ar    1  UNL1       -0.0538
     25 C           1.8684   -1.5807    0.4572 C.ar    1  UNL1       -0.0577
     26 C          -4.1386    0.9459   -0.7454 C.3     1  UNL1       -0.0361
     27 C          -5.5869    1.3649   -0.9974 C.3     1  UNL1       -0.0363
     28 H          -7.5284   -0.2025   -0.8523 H       1  UNL1        0.1185
     29 H          -8.2482    0.2679    0.5943 H       1  UNL1        0.1185
     30 H          -6.5893    2.1235    0.7261 H       1  UNL1        0.0458
     31 H          -4.9823    0.6991    1.7360 H       1  UNL1        0.0281
     32 H          -6.5813   -0.2154    1.8786 H       1  UNL1        0.0281
     33 H          -4.8990   -1.7654    1.1120 H       1  UNL1        0.0281
     34 H          -5.9650   -1.3827   -0.2884 H       1  UNL1        0.0281
     35 H          -3.9736   -1.1640   -1.2903 H       1  UNL1        0.0460
     36 H          -2.8226   -1.6455    0.8695 H       1  UNL1        0.1225
     37 H          -1.4633    0.8017   -0.1507 H       1  UNL1        0.0466
     38 H          -0.7431   -0.3956   -2.2053 H       1  UNL1        0.0287
     39 H          -1.7072   -1.9103   -1.8114 H       1  UNL1        0.0287
     40 H          -0.6873   -2.1886    0.4293 H       1  UNL1        0.0364
     41 H           0.5903    0.9698   -1.2465 H       1  UNL1        0.0621
     42 H           2.9932    1.6337   -1.2757 H       1  UNL1        0.0624
     43 H           5.0304    1.2252   -2.0273 H       1  UNL1        0.0624
     44 H           7.4420    1.7504   -1.9505 H       1  UNL1        0.0618
     45 H           8.8168    1.0455    0.0426 H       1  UNL1        0.0623
     46 H           5.3723   -0.6586    1.7838 H       1  UNL1        0.0629
     47 H           3.9535   -1.8525    0.9338 H       1  UNL1        0.0624
     48 H           1.6408   -2.5102    0.9729 H       1  UNL1        0.0621
     49 H          -3.5743    1.2404   -1.6385 H       1  UNL1        0.0281
     50 H          -3.7885    1.5614    0.1102 H       1  UNL1        0.0281
     51 H          -5.9913    0.8481   -1.8980 H       1  UNL1        0.0281
     52 H          -5.5530    2.4464   -1.2384 H       1  UNL1        0.0281
@<TRIPOS>BOND
     1     1     2    1
     2     2     3    1
     3     3     4    1
     4     4     5    1
     5     5     6    1
     6     6     7    1
     7     7     8    1
     8     8     9    1
     9     9    10    1
    10    10    11   ar
    11    11    12   ar
    12    12    13   ar
    13    13    14    1
    14    14    15   ar
    15    15    16   ar
    16    16    17   ar
    17    17    18   ar
    18    18    19    1
    19    19    20    1
    20    19    21    1
    21    19    22    1
    22    18    23   ar
    23    13    24   ar
    24    24    25   ar
    25     5    26    1
    26    26    27    1
    27    27     2    1
    28     9     7    1
    29    25    10   ar
    30    23    14   ar
    31     1    28    1
    32     1    29    1
    33     2    30    1
    34     3    31    1
    35     3    32    1
    36     4    33    1
    37     4    34    1
    38     5    35    1
    39     6    36    1
    40     7    37    1
    41     8    38    1
    42     8    39    1
    43     9    40    1
    44    11    41    1
    45    12    42    1
    46    15    43    1
    47    16    44    1
    48    17    45    1
    49    23    46    1
    50    24    47    1
    51    25    48    1
    52    26    49    1
    53    26    50    1
    54    27    51    1
    55    27    52    1
