
     RDKit          3D

 52 55  0  0  0  0  0  0  0  0999 V2000
   -7.7059    0.5976   -0.2224 N   0  0  0  0  0  0  0  0  0  0  0  0
   -6.4441    1.1644    0.2068 C   0  0  1  0  0  0  0  0  0  0  0  0
   -5.8169    0.2072    1.1982 C   0  0  0  0  0  0  0  0  0  0  0  0
   -5.2301   -0.9456    0.4110 C   0  0  0  0  0  0  0  0  0  0  0  0
   -4.0274   -0.5150   -0.4001 C   0  0  2  0  0  0  0  0  0  0  0  0
   -2.8655   -0.6908    0.4586 N   0  0  0  0  0  0  0  0  0  0  0  0
   -1.6337   -0.3138   -0.2025 C   0  0  2  0  0  0  0  0  0  0  0  0
   -1.2389   -1.0089   -1.4274 C   0  0  0  0  0  0  0  0  0  0  0  0
   -0.4931   -1.2466   -0.0995 C   0  0  1  0  0  0  0  0  0  0  0  0
    0.9013   -0.8079   -0.1469 C   0  0  0  0  0  0  0  0  0  0  0  0
    1.3251    0.3467   -0.7663 C   0  0  0  0  0  0  0  0  0  0  0  0
    2.6598    0.7269   -0.7893 C   0  0  0  0  0  0  0  0  0  0  0  0
    3.6049   -0.0592   -0.1808 C   0  0  0  0  0  0  0  0  0  0  0  0
    5.0296    0.2605   -0.1554 C   0  0  0  0  0  0  0  0  0  0  0  0
    5.6577    0.9349   -1.1787 C   0  0  0  0  0  0  0  0  0  0  0  0
    7.0024    1.2113   -1.1041 C   0  0  0  0  0  0  0  0  0  0  0  0
    7.7464    0.8297   -0.0254 C   0  0  0  0  0  0  0  0  0  0  0  0
    7.1513    0.1487    1.0257 C   0  0  0  0  0  0  0  0  0  0  0  0
    7.9338   -0.2800    2.2145 C   0  0  0  0  0  0  0  0  0  0  0  0
    7.6244   -1.5925    2.5557 F   0  0  0  0  0  0  0  0  0  0  0  0
    9.2761   -0.2222    1.9333 F   0  0  0  0  0  0  0  0  0  0  0  0
    7.6348    0.5551    3.2800 F   0  0  0  0  0  0  0  0  0  0  0  0
    5.8080   -0.1199    0.9366 C   0  0  0  0  0  0  0  0  0  0  0  0
    3.2158   -1.2212    0.4484 C   0  0  0  0  0  0  0  0  0  0  0  0
    1.8684   -1.5807    0.4572 C   0  0  0  0  0  0  0  0  0  0  0  0
   -4.1386    0.9459   -0.7454 C   0  0  0  0  0  0  0  0  0  0  0  0
   -5.5869    1.3649   -0.9974 C   0  0  0  0  0  0  0  0  0  0  0  0
   -7.5284   -0.2025   -0.8523 H   0  0  0  0  0  0  0  0  0  0  0  0
   -8.2482    0.2679    0.5943 H   0  0  0  0  0  0  0  0  0  0  0  0
   -6.5893    2.1235    0.7261 H   0  0  0  0  0  0  0  0  0  0  0  0
   -4.9823    0.6991    1.7360 H   0  0  0  0  0  0  0  0  0  0  0  0
   -6.5813   -0.2154    1.8786 H   0  0  0  0  0  0  0  0  0  0  0  0
   -4.8990   -1.7654    1.1120 H   0  0  0  0  0  0  0  0  0  0  0  0
   -5.9650   -1.3827   -0.2884 H   0  0  0  0  0  0  0  0  0  0  0  0
   -3.9736   -1.1640   -1.2903 H   0  0  0  0  0  0  0  0  0  0  0  0
   -2.8226   -1.6455    0.8695 H   0  0  0  0  0  0  0  0  0  0  0  0
   -1.4633    0.8017   -0.1507 H   0  0  0  0  0  0  0  0  0  0  0  0
   -0.7431   -0.3956   -2.2053 H   0  0  0  0  0  0  0  0  0  0  0  0
   -1.7072   -1.9103   -1.8114 H   0  0  0  0  0  0  0  0  0  0  0  0
   -0.6873   -2.1886    0.4293 H   0  0  0  0  0  0  0  0  0  0  0  0
    0.5903    0.9698   -1.2465 H   0  0  0  0  0  0  0  0  0  0  0  0
    2.9932    1.6337   -1.2757 H   0  0  0  0  0  0  0  0  0  0  0  0
    5.0304    1.2252   -2.0273 H   0  0  0  0  0  0  0  0  0  0  0  0
    7.4420    1.7504   -1.9505 H   0  0  0  0  0  0  0  0  0  0  0  0
    8.8168    1.0455    0.0426 H   0  0  0  0  0  0  0  0  0  0  0  0
    5.3723   -0.6586    1.7838 H   0  0  0  0  0  0  0  0  0  0  0  0
    3.9535   -1.8525    0.9338 H   0  0  0  0  0  0  0  0  0  0  0  0
    1.6408   -2.5102    0.9729 H   0  0  0  0  0  0  0  0  0  0  0  0
   -3.5743    1.2404   -1.6385 H   0  0  0  0  0  0  0  0  0  0  0  0
   -3.7885    1.5614    0.1102 H   0  0  0  0  0  0  0  0  0  0  0  0
   -5.9913    0.8481   -1.8980 H   0  0  0  0  0  0  0  0  0  0  0  0
   -5.5530    2.4464   -1.2384 H   0  0  0  0  0  0  0  0  0  0  0  0
  1  2  1  0
  2  3  1  0
  3  4  1  0
  4  5  1  0
  5  6  1  0
  6  7  1  0
  7  8  1  0
  8  9  1  0
  9 10  1  0
 10 11  2  0
 11 12  1  0
 12 13  2  0
 13 14  1  0
 14 15  2  0
 15 16  1  0
 16 17  2  0
 17 18  1  0
 18 19  1  0
 19 20  1  0
 19 21  1  0
 19 22  1  0
 18 23  2  0
 13 24  1  0
 24 25  2  0
  5 26  1  0
 26 27  1  0
 27  2  1  0
  9  7  1  0
 25 10  1  0
 23 14  1  0
  1 28  1  0
  1 29  1  0
  2 30  1  1
  3 31  1  0
  3 32  1  0
  4 33  1  0
  4 34  1  0
  5 35  1  6
  6 36  1  0
  7 37  1  6
  8 38  1  0
  8 39  1  0
  9 40  1  1
 11 41  1  0
 12 42  1  0
 15 43  1  0
 16 44  1  0
 17 45  1  0
 23 46  1  0
 24 47  1  0
 25 48  1  0
 26 49  1  0
 26 50  1  0
 27 51  1  0
 27 52  1  0
M  END
$$$$
