@<TRIPOS>MOLECULE
*****
 51 53 0 0 0
SMALL
GASTEIGER

@<TRIPOS>ATOM
      1 C           5.9269   -0.8246    2.1466 C.3     1  UNL1        0.0788
      2 O           6.2911   -1.3402    0.8782 O.3     1  UNL1       -0.4951
      3 C           5.4496   -1.0421   -0.1853 C.ar    1  UNL1        0.1207
      4 C           4.2823   -0.2962   -0.1740 C.ar    1  UNL1       -0.0122
      5 C           3.5934   -0.1224   -1.3590 C.ar    1  UNL1       -0.0144
      6 C           4.0086   -0.6559   -2.5625 C.ar    1  UNL1       -0.0538
      7 C           5.1895   -1.4053   -2.5507 C.ar    1  UNL1       -0.0577
      8 C           5.8939   -1.5897   -1.3691 C.ar    1  UNL1       -0.0199
      9 C           2.3746    0.6770   -1.2541 C.ar    1  UNL1       -0.0175
     10 C           1.5725    0.7075   -0.1328 C.ar    1  UNL1       -0.0508
     11 C           0.4060    1.4830   -0.0542 C.ar    1  UNL1       -0.0467
     12 C          -0.2397    1.3659    1.2574 C.3     1  UNL1       -0.0241
     13 C          -1.1519    0.2294    1.4970 C.3     1  UNL1       -0.0087
     14 C          -2.3461    0.1203    0.6320 C.3     1  UNL1        0.1324
     15 C          -2.0020   -0.0515   -0.8227 C.3     1  UNL1       -0.0244
     16 C          -3.1728    1.3865    0.8514 C.3     1  UNL1        0.0789
     17 C          -4.5495    1.2599    0.3005 C.2     1  UNL1        0.2810
     18 O          -5.1538    2.0774   -0.4786 O.2     1  UNL1       -0.2571
     19 N          -5.2459    0.0817    0.7079 N.am    1  UNL1       -0.1652
     20 C          -6.6964    0.0243    0.7562 C.3     1  UNL1        0.0571
     21 C          -4.4081   -1.0144    1.0556 C.2     1  UNL1        0.3718
     22 N          -5.0377   -2.2046    1.4664 N.pl3   1  UNL1       -0.2512
     23 N          -3.1356   -1.0555    1.0417 N.2     1  UNL1       -0.1100
     24 C           0.1104    2.2301   -1.2024 C.ar    1  UNL1       -0.0585
     25 C           0.9143    2.1958   -2.3182 C.ar    1  UNL1       -0.0609
     26 C           2.0549    1.4248   -2.3684 C.ar    1  UNL1       -0.0540
     27 H           6.2515    0.2228    2.2990 H       1  UNL1        0.0660
     28 H           6.4292   -1.5090    2.8912 H       1  UNL1        0.0660
     29 H           4.8332   -0.9661    2.3265 H       1  UNL1        0.0660
     30 H           4.0148    0.0876    0.7824 H       1  UNL1        0.0660
     31 H           3.4017   -0.4633   -3.4282 H       1  UNL1        0.0624
     32 H           5.5159   -1.8247   -3.4992 H       1  UNL1        0.0619
     33 H           6.7947   -2.1917   -1.4946 H       1  UNL1        0.0654
     34 H           1.9546    0.0714    0.6533 H       1  UNL1        0.0626
     35 H          -0.7746    2.3698    1.4012 H       1  UNL1        0.0314
     36 H           0.5604    1.4423    2.0622 H       1  UNL1        0.0314
     37 H          -1.5000    0.2879    2.5770 H       1  UNL1        0.0306
     38 H          -0.5224   -0.7069    1.4896 H       1  UNL1        0.0306
     39 H          -2.3246    0.8234   -1.4142 H       1  UNL1        0.0267
     40 H          -2.6325   -0.9052   -1.2533 H       1  UNL1        0.0267
     41 H          -0.9608   -0.3814   -1.0045 H       1  UNL1        0.0267
     42 H          -3.2768    1.5870    1.9368 H       1  UNL1        0.0411
     43 H          -2.7005    2.2188    0.3104 H       1  UNL1        0.0411
     44 H          -7.0868    0.1646    1.7884 H       1  UNL1        0.0602
     45 H          -7.0254   -0.9826    0.4056 H       1  UNL1        0.0602
     46 H          -7.1289    0.7867    0.0745 H       1  UNL1        0.0602
     47 H          -5.7304   -2.6467    0.8076 H       1  UNL1        0.2412
     48 H          -5.3517   -3.0486    1.9919 H       1  UNL1        0.2412
     49 H          -0.8061    2.7921   -1.0388 H       1  UNL1        0.0620
     50 H           0.5454    2.8316   -3.1208 H       1  UNL1        0.0618
     51 H           2.5914    1.4918   -3.3029 H       1  UNL1        0.0624
@<TRIPOS>BOND
     1     1     2    1
     2     2     3    1
     3     3     4   ar
     4     4     5   ar
     5     5     6   ar
     6     6     7   ar
     7     7     8   ar
     8     5     9    1
     9     9    10   ar
    10    10    11   ar
    11    11    12    1
    12    12    13    1
    13    14    13    1
    14    14    15    1
    15    14    16    1
    16    16    17    1
    17    17    18    2
    18    17    19   am
    19    19    20    1
    20    19    21    1
    21    21    22    1
    22    21    23    2
    23    11    24   ar
    24    24    25   ar
    25    25    26   ar
    26     8     3   ar
    27    26     9   ar
    28    23    14    1
    29     1    27    1
    30     1    28    1
    31     1    29    1
    32     4    30    1
    33     6    31    1
    34     7    32    1
    35     8    33    1
    36    10    34    1
    37    12    35    1
    38    12    36    1
    39    13    37    1
    40    13    38    1
    41    15    39    1
    42    15    40    1
    43    15    41    1
    44    16    42    1
    45    16    43    1
    46    20    44    1
    47    20    45    1
    48    20    46    1
    49    22    47    1
    50    22    48    1
    51    24    49    1
    52    25    50    1
    53    26    51    1
