
     RDKit          3D

 32 33  0  0  0  0  0  0  0  0999 V2000
   -1.6833    0.1634   -1.1886 C   0  0  1  0  0  0  0  0  0  0  0  0
   -2.2276    1.5975   -1.2158 C   0  0  0  0  0  0  0  0  0  0  0  0
   -1.7120    2.3688   -0.1780 O   0  0  0  0  0  0  0  0  0  0  0  0
   -0.3430    0.2488   -1.3124 O   0  0  0  0  0  0  0  0  0  0  0  0
    0.4484   -0.3061   -0.3527 C   0  0  2  0  0  0  0  0  0  0  0  0
    0.7277    0.7219    0.6360 N   0  0  0  0  0  0  0  0  0  0  0  0
    1.9999    0.9256    0.7144 C   0  0  0  0  0  0  0  0  0  0  0  0
    2.5288    1.8774    1.6038 O   0  0  0  0  0  0  0  0  0  0  0  0
    2.7465    0.1013   -0.1719 N   0  0  0  0  0  0  0  0  0  0  0  0
    4.1731    0.0721   -0.3383 C   0  0  0  0  0  0  0  0  0  0  0  0
    1.7920   -0.6935   -0.8649 C   0  0  0  0  0  0  0  0  0  0  0  0
    2.0600   -1.5445   -1.7315 O   0  0  0  0  0  0  0  0  0  0  0  0
   -0.1305   -1.5486    0.2780 C   0  0  2  0  0  0  0  0  0  0  0  0
   -0.5668   -2.3810   -0.7329 O   0  0  0  0  0  0  0  0  0  0  0  0
   -1.3604   -1.0405    1.0160 C   0  0  1  0  0  0  0  0  0  0  0  0
   -0.9980   -0.0493    1.9406 O   0  0  0  0  0  0  0  0  0  0  0  0
   -2.2860   -0.5383   -0.0439 C   0  0  2  0  0  0  0  0  0  0  0  0
   -3.0464   -1.6620   -0.4427 O   0  0  0  0  0  0  0  0  0  0  0  0
   -2.0658   -0.2962   -2.1332 H   0  0  0  0  0  0  0  0  0  0  0  0
   -3.3510    1.5748   -1.1025 H   0  0  0  0  0  0  0  0  0  0  0  0
   -2.0277    2.1173   -2.1591 H   0  0  0  0  0  0  0  0  0  0  0  0
   -1.7793    3.3180   -0.4522 H   0  0  0  0  0  0  0  0  0  0  0  0
    1.9905    2.7201    1.8218 H   0  0  0  0  0  0  0  0  0  0  0  0
    4.6793   -0.5174    0.4748 H   0  0  0  0  0  0  0  0  0  0  0  0
    4.5878    1.1071   -0.3476 H   0  0  0  0  0  0  0  0  0  0  0  0
    4.4348   -0.4349   -1.2884 H   0  0  0  0  0  0  0  0  0  0  0  0
    0.6155   -1.9955    0.9501 H   0  0  0  0  0  0  0  0  0  0  0  0
    0.1686   -2.9362   -1.1167 H   0  0  0  0  0  0  0  0  0  0  0  0
   -1.7848   -1.9036    1.5528 H   0  0  0  0  0  0  0  0  0  0  0  0
   -1.7127    0.6374    1.9593 H   0  0  0  0  0  0  0  0  0  0  0  0
   -3.0420    0.1003    0.5020 H   0  0  0  0  0  0  0  0  0  0  0  0
   -2.8358   -1.8041   -1.4115 H   0  0  0  0  0  0  0  0  0  0  0  0
  1  2  1  0
  2  3  1  0
  1  4  1  0
  5  4  1  6
  5  6  1  0
  6  7  2  0
  7  8  1  0
  7  9  1  0
  9 10  1  0
  9 11  1  0
 11 12  2  0
  5 13  1  0
 13 14  1  0
 13 15  1  0
 15 16  1  0
 15 17  1  0
 17 18  1  0
 17  1  1  0
 11  5  1  0
  1 19  1  6
  2 20  1  0
  2 21  1  0
  3 22  1  0
  8 23  1  0
 10 24  1  0
 10 25  1  0
 10 26  1  0
 13 27  1  1
 14 28  1  0
 15 29  1  1
 16 30  1  0
 17 31  1  1
 18 32  1  0
M  END
$$$$
