@<TRIPOS>MOLECULE
*****
 32 33 0 0 0
SMALL
GASTEIGER

@<TRIPOS>ATOM
      1 C          -1.6833    0.1634   -1.1886 C.3     1  UNL1        0.1133
      2 C          -2.2276    1.5975   -1.2158 C.3     1  UNL1        0.0730
      3 O          -1.7120    2.3688   -0.1780 O.3     1  UNL1       -0.3924
      4 O          -0.3430    0.2488   -1.3124 O.3     1  UNL1       -0.3347
      5 C           0.4484   -0.3061   -0.3527 C.3     1  UNL1        0.2713
      6 N           0.7277    0.7219    0.6360 N.2     1  UNL1       -0.1899
      7 C           1.9999    0.9256    0.7144 C.2     1  UNL1        0.2874
      8 O           2.5288    1.8774    1.6038 O.2     1  UNL1       -0.4813
      9 N           2.7465    0.1013   -0.1719 N.am    1  UNL1       -0.2251
     10 C           4.1731    0.0721   -0.3383 C.3     1  UNL1        0.0126
     11 C           1.7920   -0.6935   -0.8649 C.2     1  UNL1        0.2806
     12 O           2.0600   -1.5445   -1.7315 O.2     1  UNL1       -0.2697
     13 C          -0.1305   -1.5486    0.2780 C.3     1  UNL1        0.1419
     14 O          -0.5668   -2.3810   -0.7329 O.3     1  UNL1       -0.3838
     15 C          -1.3604   -1.0405    1.0160 C.3     1  UNL1        0.1144
     16 O          -0.9980   -0.0493    1.9406 O.3     1  UNL1       -0.3864
     17 C          -2.2860   -0.5383   -0.0439 C.3     1  UNL1        0.1119
     18 O          -3.0464   -1.6620   -0.4427 O.3     1  UNL1       -0.3865
     19 H          -2.0658   -0.2962   -2.1332 H       1  UNL1        0.0647
     20 H          -3.3510    1.5748   -1.1025 H       1  UNL1        0.0584
     21 H          -2.0277    2.1173   -2.1591 H       1  UNL1        0.0584
     22 H          -1.7793    3.3180   -0.4522 H       1  UNL1        0.2095
     23 H           1.9905    2.7201    1.8218 H       1  UNL1        0.2951
     24 H           4.6793   -0.5174    0.4748 H       1  UNL1        0.0434
     25 H           4.5878    1.1071   -0.3476 H       1  UNL1        0.0434
     26 H           4.4348   -0.4349   -1.2884 H       1  UNL1        0.0434
     27 H           0.6155   -1.9955    0.9501 H       1  UNL1        0.0674
     28 H           0.1686   -2.9362   -1.1167 H       1  UNL1        0.2101
     29 H          -1.7848   -1.9036    1.5528 H       1  UNL1        0.0648
     30 H          -1.7127    0.6374    1.9593 H       1  UNL1        0.2100
     31 H          -3.0420    0.1003    0.5020 H       1  UNL1        0.0647
     32 H          -2.8358   -1.8041   -1.4115 H       1  UNL1        0.2100
@<TRIPOS>BOND
     1     1     2    1
     2     2     3    1
     3     1     4    1
     4     5     4    1
     5     5     6    1
     6     6     7    2
     7     7     8    1
     8     7     9    1
     9     9    10    1
    10     9    11   am
    11    11    12    2
    12     5    13    1
    13    13    14    1
    14    13    15    1
    15    15    16    1
    16    15    17    1
    17    17    18    1
    18    17     1    1
    19    11     5    1
    20     1    19    1
    21     2    20    1
    22     2    21    1
    23     3    22    1
    24     8    23    1
    25    10    24    1
    26    10    25    1
    27    10    26    1
    28    13    27    1
    29    14    28    1
    30    15    29    1
    31    16    30    1
    32    17    31    1
    33    18    32    1
