@<TRIPOS>MOLECULE
*****
 42 43 0 0 0
SMALL
GASTEIGER

@<TRIPOS>ATOM
      1 N          -0.3097   -0.5480    2.5400 N.1     1  UNL1       -0.1958
      2 C           0.1516   -0.9159    1.4842 C.1     1  UNL1        0.0744
      3 C           0.7179   -1.3956    0.1861 C.3     1  UNL1        0.1152
      4 C          -0.4952   -1.5031   -0.6807 C.2     1  UNL1        0.0885
      5 N          -0.7851   -0.5877   -1.4765 N.2     1  UNL1       -0.2956
      6 S          -1.5733   -2.9357   -0.5563 S.3     1  UNL1       -0.0717
      7 C          -3.2202   -2.4190   -1.0893 C.ar    1  UNL1        0.0345
      8 C          -4.0984   -1.9108   -0.1079 C.ar    1  UNL1       -0.0462
      9 C          -5.3364   -1.4824   -0.5184 C.ar    1  UNL1       -0.0606
     10 C          -5.7430   -1.5309   -1.8307 C.ar    1  UNL1       -0.0600
     11 C          -4.8666   -2.0331   -2.7626 C.ar    1  UNL1       -0.0400
     12 C          -3.5812   -2.4872   -2.3885 C.ar    1  UNL1        0.0385
     13 N          -2.7235   -2.9896   -3.3957 N.pl3   1  UNL1       -0.3571
     14 C           1.7354   -0.4135   -0.2642 C.3     1  UNL1        0.1152
     15 C           2.3559   -0.7930   -1.5346 C.1     1  UNL1        0.0744
     16 N           2.8457   -1.0717   -2.5266 N.1     1  UNL1       -0.1958
     17 C           1.1766    0.9515   -0.3579 C.2     1  UNL1        0.0885
     18 N           0.9441    1.4786   -1.5491 N.2     1  UNL1       -0.2956
     19 S           0.8604    2.0657    0.9801 S.3     1  UNL1       -0.0717
     20 C           2.2598    2.1972    2.0533 C.ar    1  UNL1        0.0345
     21 C           2.4601    1.4873    3.1914 C.ar    1  UNL1       -0.0462
     22 C           3.5770    1.6763    4.0255 C.ar    1  UNL1       -0.0606
     23 C           4.4669    2.6196    3.6366 C.ar    1  UNL1       -0.0600
     24 C           4.3205    3.3633    2.5028 C.ar    1  UNL1       -0.0400
     25 C           3.2092    3.1532    1.6995 C.ar    1  UNL1        0.0385
     26 N           3.0545    3.8954    0.5254 N.pl3   1  UNL1       -0.3571
     27 H           1.1389   -2.3882    0.3565 H       1  UNL1        0.0540
     28 H          -1.6347   -0.6773   -2.0790 H       1  UNL1        0.1870
     29 H          -3.7425   -1.8898    0.9066 H       1  UNL1        0.0629
     30 H          -6.0391   -1.0783    0.2204 H       1  UNL1        0.0618
     31 H          -6.7371   -1.1769   -2.1301 H       1  UNL1        0.0618
     32 H          -5.1327   -2.0958   -3.8152 H       1  UNL1        0.0636
     33 H          -2.3039   -2.2727   -4.0585 H       1  UNL1        0.1424
     34 H          -2.4899   -3.9693   -3.5285 H       1  UNL1        0.1424
     35 H           2.5393   -0.3610    0.5388 H       1  UNL1        0.0540
     36 H           1.1589    0.9305   -2.4004 H       1  UNL1        0.1870
     37 H           1.7717    0.7442    3.5192 H       1  UNL1        0.0629
     38 H           3.6950    1.0854    4.9369 H       1  UNL1        0.0618
     39 H           5.3365    2.7940    4.2678 H       1  UNL1        0.0618
     40 H           5.0271    4.1146    2.1868 H       1  UNL1        0.0636
     41 H           3.8458    4.4584    0.1514 H       1  UNL1        0.1424
     42 H           2.1637    3.9112   -0.0070 H       1  UNL1        0.1424
@<TRIPOS>BOND
     1     1     2    3
     2     2     3    1
     3     3     4    1
     4     4     5    2
     5     4     6    1
     6     6     7    1
     7     7     8   ar
     8     8     9   ar
     9     9    10   ar
    10    10    11   ar
    11    11    12   ar
    12    12    13    1
    13     3    14    1
    14    14    15    1
    15    15    16    3
    16    14    17    1
    17    17    18    2
    18    17    19    1
    19    19    20    1
    20    20    21   ar
    21    21    22   ar
    22    22    23   ar
    23    23    24   ar
    24    24    25   ar
    25    25    26    1
    26    12     7   ar
    27    25    20   ar
    28     3    27    1
    29     5    28    1
    30     8    29    1
    31     9    30    1
    32    10    31    1
    33    11    32    1
    34    13    33    1
    35    13    34    1
    36    14    35    1
    37    18    36    1
    38    21    37    1
    39    22    38    1
    40    23    39    1
    41    24    40    1
    42    26    41    1
    43    26    42    1
