
     RDKit          3D

 42 43  0  0  0  0  0  0  0  0999 V2000
   -0.3097   -0.5480    2.5400 N   0  0  0  0  0  0  0  0  0  0  0  0
    0.1516   -0.9159    1.4842 C   0  0  0  0  0  0  0  0  0  0  0  0
    0.7179   -1.3956    0.1861 C   0  0  0  0  0  0  0  0  0  0  0  0
   -0.4952   -1.5031   -0.6807 C   0  0  0  0  0  0  0  0  0  0  0  0
   -0.7851   -0.5877   -1.4765 N   0  0  0  0  0  0  0  0  0  0  0  0
   -1.5733   -2.9357   -0.5563 S   0  0  0  0  0  0  0  0  0  0  0  0
   -3.2202   -2.4190   -1.0893 C   0  0  0  0  0  0  0  0  0  0  0  0
   -4.0984   -1.9108   -0.1079 C   0  0  0  0  0  0  0  0  0  0  0  0
   -5.3364   -1.4824   -0.5184 C   0  0  0  0  0  0  0  0  0  0  0  0
   -5.7430   -1.5309   -1.8307 C   0  0  0  0  0  0  0  0  0  0  0  0
   -4.8666   -2.0331   -2.7626 C   0  0  0  0  0  0  0  0  0  0  0  0
   -3.5812   -2.4872   -2.3885 C   0  0  0  0  0  0  0  0  0  0  0  0
   -2.7235   -2.9896   -3.3957 N   0  0  0  0  0  0  0  0  0  0  0  0
    1.7354   -0.4135   -0.2642 C   0  0  0  0  0  0  0  0  0  0  0  0
    2.3559   -0.7930   -1.5346 C   0  0  0  0  0  0  0  0  0  0  0  0
    2.8457   -1.0717   -2.5266 N   0  0  0  0  0  0  0  0  0  0  0  0
    1.1766    0.9515   -0.3579 C   0  0  0  0  0  0  0  0  0  0  0  0
    0.9441    1.4786   -1.5491 N   0  0  0  0  0  0  0  0  0  0  0  0
    0.8604    2.0657    0.9801 S   0  0  0  0  0  0  0  0  0  0  0  0
    2.2598    2.1972    2.0533 C   0  0  0  0  0  0  0  0  0  0  0  0
    2.4601    1.4873    3.1914 C   0  0  0  0  0  0  0  0  0  0  0  0
    3.5770    1.6763    4.0255 C   0  0  0  0  0  0  0  0  0  0  0  0
    4.4669    2.6196    3.6366 C   0  0  0  0  0  0  0  0  0  0  0  0
    4.3205    3.3633    2.5028 C   0  0  0  0  0  0  0  0  0  0  0  0
    3.2092    3.1532    1.6995 C   0  0  0  0  0  0  0  0  0  0  0  0
    3.0545    3.8954    0.5254 N   0  0  0  0  0  0  0  0  0  0  0  0
    1.1389   -2.3882    0.3565 H   0  0  0  0  0  0  0  0  0  0  0  0
   -1.6347   -0.6773   -2.0790 H   0  0  0  0  0  0  0  0  0  0  0  0
   -3.7425   -1.8898    0.9066 H   0  0  0  0  0  0  0  0  0  0  0  0
   -6.0391   -1.0783    0.2204 H   0  0  0  0  0  0  0  0  0  0  0  0
   -6.7371   -1.1769   -2.1301 H   0  0  0  0  0  0  0  0  0  0  0  0
   -5.1327   -2.0958   -3.8152 H   0  0  0  0  0  0  0  0  0  0  0  0
   -2.3039   -2.2727   -4.0585 H   0  0  0  0  0  0  0  0  0  0  0  0
   -2.4899   -3.9693   -3.5285 H   0  0  0  0  0  0  0  0  0  0  0  0
    2.5393   -0.3610    0.5388 H   0  0  0  0  0  0  0  0  0  0  0  0
    1.1589    0.9305   -2.4004 H   0  0  0  0  0  0  0  0  0  0  0  0
    1.7717    0.7442    3.5192 H   0  0  0  0  0  0  0  0  0  0  0  0
    3.6950    1.0854    4.9369 H   0  0  0  0  0  0  0  0  0  0  0  0
    5.3365    2.7940    4.2678 H   0  0  0  0  0  0  0  0  0  0  0  0
    5.0271    4.1146    2.1868 H   0  0  0  0  0  0  0  0  0  0  0  0
    3.8458    4.4584    0.1514 H   0  0  0  0  0  0  0  0  0  0  0  0
    2.1637    3.9112   -0.0070 H   0  0  0  0  0  0  0  0  0  0  0  0
  1  2  3  0
  2  3  1  0
  3  4  1  0
  4  5  2  3
  4  6  1  0
  6  7  1  0
  7  8  2  0
  8  9  1  0
  9 10  2  0
 10 11  1  0
 11 12  2  0
 12 13  1  0
  3 14  1  0
 14 15  1  0
 15 16  3  0
 14 17  1  0
 17 18  2  3
 17 19  1  0
 19 20  1  0
 20 21  2  0
 21 22  1  0
 22 23  2  0
 23 24  1  0
 24 25  2  0
 25 26  1  0
 12  7  1  0
 25 20  1  0
  3 27  1  0
  5 28  1  0
  8 29  1  0
  9 30  1  0
 10 31  1  0
 11 32  1  0
 13 33  1  0
 13 34  1  0
 14 35  1  0
 18 36  1  0
 21 37  1  0
 22 38  1  0
 23 39  1  0
 24 40  1  0
 26 41  1  0
 26 42  1  0
M  END
$$$$
