@<TRIPOS>MOLECULE
*****
 44 46 0 0 0
SMALL
GASTEIGER

@<TRIPOS>ATOM
      1 O          -4.3545    1.0109   -1.8808 O.2     1  UNL1       -0.2262
      2 C          -3.8290    0.6617   -0.7972 C.2     1  UNL1        0.4037
      3 O          -4.6237    0.1118    0.1722 O.3     1  UNL1       -0.4285
      4 C          -5.9972   -0.1062    0.0754 C.3     1  UNL1        0.2921
      5 C          -6.2129   -1.6234    0.1508 C.3     1  UNL1        0.4352
      6 F          -5.6949   -2.0211    1.3890 F       1  UNL1       -0.1665
      7 F          -5.3994   -2.1879   -0.8084 F       1  UNL1       -0.1665
      8 F          -7.5271   -1.9521    0.0204 F       1  UNL1       -0.1665
      9 C          -6.7846    0.5241    1.2033 C.3     1  UNL1        0.4352
     10 F          -6.5794    1.8899    1.2011 F       1  UNL1       -0.1665
     11 F          -8.1258    0.2889    0.9676 F       1  UNL1       -0.1665
     12 F          -6.4474   -0.0403    2.4150 F       1  UNL1       -0.1665
     13 N          -2.4384    0.8232   -0.5561 N.am    1  UNL1       -0.2661
     14 C          -1.5048    0.5535    0.5205 C.3     1  UNL1        0.0275
     15 C          -0.4327    0.3708   -0.5499 C.3     1  UNL1        0.0332
     16 C           0.8539    0.8764   -0.0669 C.ar    1  UNL1        0.0524
     17 C           1.0439    2.1137    0.4741 C.ar    1  UNL1       -0.0217
     18 C           2.2993    2.4796    0.8939 C.ar    1  UNL1        0.0329
     19 N           3.3366    1.6012    0.7637 N.ar    1  UNL1       -0.2227
     20 C           3.1443    0.3863    0.2312 C.ar    1  UNL1        0.2181
     21 N           4.2219   -0.5541    0.0848 N.pl3   1  UNL1       -0.2953
     22 C           5.5720   -0.2335    0.5067 C.3     1  UNL1        0.0384
     23 C           6.5618   -0.6673   -0.5535 C.3     1  UNL1        0.0635
     24 O           6.3635   -1.9605   -0.9765 O.3     1  UNL1       -0.3767
     25 C           5.1045   -2.2017   -1.4731 C.3     1  UNL1        0.0635
     26 C           4.0061   -1.8653   -0.4917 C.3     1  UNL1        0.0384
     27 N           1.9284    0.0462   -0.1696 N.ar    1  UNL1       -0.2189
     28 C          -1.2901    1.3502   -1.3096 C.3     1  UNL1        0.0275
     29 H          -6.4426    0.2095   -0.8906 H       1  UNL1        0.0920
     30 H          -1.2974    1.4481    1.1236 H       1  UNL1        0.0472
     31 H          -1.7467   -0.3672    1.0664 H       1  UNL1        0.0472
     32 H          -0.4210   -0.6386   -0.9551 H       1  UNL1        0.0395
     33 H           0.1789    2.7677    0.5509 H       1  UNL1        0.0651
     34 H           2.4321    3.4596    1.3186 H       1  UNL1        0.0831
     35 H           5.6889    0.8308    0.7095 H       1  UNL1        0.0487
     36 H           5.7594   -0.7944    1.4531 H       1  UNL1        0.0487
     37 H           7.5700   -0.6248   -0.0684 H       1  UNL1        0.0575
     38 H           6.5823    0.0724   -1.3688 H       1  UNL1        0.0575
     39 H           4.9018   -1.7384   -2.4442 H       1  UNL1        0.0575
     40 H           5.0330   -3.3159   -1.6392 H       1  UNL1        0.0575
     41 H           4.0744   -2.5994    0.3432 H       1  UNL1        0.0487
     42 H           3.0366   -1.9332   -1.0256 H       1  UNL1        0.0487
     43 H          -1.1162    2.3947   -1.0205 H       1  UNL1        0.0472
     44 H          -1.4278    1.1543   -2.3810 H       1  UNL1        0.0472
@<TRIPOS>BOND
     1     1     2    2
     2     2     3    1
     3     3     4    1
     4     4     5    1
     5     5     6    1
     6     5     7    1
     7     5     8    1
     8     4     9    1
     9     9    10    1
    10     9    11    1
    11     9    12    1
    12     2    13   am
    13    13    14    1
    14    14    15    1
    15    15    16    1
    16    16    17   ar
    17    17    18   ar
    18    18    19   ar
    19    19    20   ar
    20    20    21    1
    21    21    22    1
    22    22    23    1
    23    23    24    1
    24    24    25    1
    25    25    26    1
    26    20    27   ar
    27    15    28    1
    28    28    13    1
    29    27    16   ar
    30    26    21    1
    31     4    29    1
    32    14    30    1
    33    14    31    1
    34    15    32    1
    35    17    33    1
    36    18    34    1
    37    22    35    1
    38    22    36    1
    39    23    37    1
    40    23    38    1
    41    25    39    1
    42    25    40    1
    43    26    41    1
    44    26    42    1
    45    28    43    1
    46    28    44    1
