
     RDKit          3D

 44 46  0  0  0  0  0  0  0  0999 V2000
   -4.3545    1.0109   -1.8808 O   0  0  0  0  0  0  0  0  0  0  0  0
   -3.8290    0.6617   -0.7972 C   0  0  0  0  0  0  0  0  0  0  0  0
   -4.6237    0.1118    0.1722 O   0  0  0  0  0  0  0  0  0  0  0  0
   -5.9972   -0.1062    0.0754 C   0  0  0  0  0  0  0  0  0  0  0  0
   -6.2129   -1.6234    0.1508 C   0  0  0  0  0  0  0  0  0  0  0  0
   -5.6949   -2.0211    1.3890 F   0  0  0  0  0  0  0  0  0  0  0  0
   -5.3994   -2.1879   -0.8084 F   0  0  0  0  0  0  0  0  0  0  0  0
   -7.5271   -1.9521    0.0204 F   0  0  0  0  0  0  0  0  0  0  0  0
   -6.7846    0.5241    1.2033 C   0  0  0  0  0  0  0  0  0  0  0  0
   -6.5794    1.8899    1.2011 F   0  0  0  0  0  0  0  0  0  0  0  0
   -8.1258    0.2889    0.9676 F   0  0  0  0  0  0  0  0  0  0  0  0
   -6.4474   -0.0403    2.4150 F   0  0  0  0  0  0  0  0  0  0  0  0
   -2.4384    0.8232   -0.5561 N   0  0  0  0  0  0  0  0  0  0  0  0
   -1.5048    0.5535    0.5205 C   0  0  0  0  0  0  0  0  0  0  0  0
   -0.4327    0.3708   -0.5499 C   0  0  0  0  0  0  0  0  0  0  0  0
    0.8539    0.8764   -0.0669 C   0  0  0  0  0  0  0  0  0  0  0  0
    1.0439    2.1137    0.4741 C   0  0  0  0  0  0  0  0  0  0  0  0
    2.2993    2.4796    0.8939 C   0  0  0  0  0  0  0  0  0  0  0  0
    3.3366    1.6012    0.7637 N   0  0  0  0  0  0  0  0  0  0  0  0
    3.1443    0.3863    0.2312 C   0  0  0  0  0  0  0  0  0  0  0  0
    4.2219   -0.5541    0.0848 N   0  0  0  0  0  0  0  0  0  0  0  0
    5.5720   -0.2335    0.5067 C   0  0  0  0  0  0  0  0  0  0  0  0
    6.5618   -0.6673   -0.5535 C   0  0  0  0  0  0  0  0  0  0  0  0
    6.3635   -1.9605   -0.9765 O   0  0  0  0  0  0  0  0  0  0  0  0
    5.1045   -2.2017   -1.4731 C   0  0  0  0  0  0  0  0  0  0  0  0
    4.0061   -1.8653   -0.4917 C   0  0  0  0  0  0  0  0  0  0  0  0
    1.9284    0.0462   -0.1696 N   0  0  0  0  0  0  0  0  0  0  0  0
   -1.2901    1.3502   -1.3096 C   0  0  0  0  0  0  0  0  0  0  0  0
   -6.4426    0.2095   -0.8906 H   0  0  0  0  0  0  0  0  0  0  0  0
   -1.2974    1.4481    1.1236 H   0  0  0  0  0  0  0  0  0  0  0  0
   -1.7467   -0.3672    1.0664 H   0  0  0  0  0  0  0  0  0  0  0  0
   -0.4210   -0.6386   -0.9551 H   0  0  0  0  0  0  0  0  0  0  0  0
    0.1789    2.7677    0.5509 H   0  0  0  0  0  0  0  0  0  0  0  0
    2.4321    3.4596    1.3186 H   0  0  0  0  0  0  0  0  0  0  0  0
    5.6889    0.8308    0.7095 H   0  0  0  0  0  0  0  0  0  0  0  0
    5.7594   -0.7944    1.4531 H   0  0  0  0  0  0  0  0  0  0  0  0
    7.5700   -0.6248   -0.0684 H   0  0  0  0  0  0  0  0  0  0  0  0
    6.5823    0.0724   -1.3688 H   0  0  0  0  0  0  0  0  0  0  0  0
    4.9018   -1.7384   -2.4442 H   0  0  0  0  0  0  0  0  0  0  0  0
    5.0330   -3.3159   -1.6392 H   0  0  0  0  0  0  0  0  0  0  0  0
    4.0744   -2.5994    0.3432 H   0  0  0  0  0  0  0  0  0  0  0  0
    3.0366   -1.9332   -1.0256 H   0  0  0  0  0  0  0  0  0  0  0  0
   -1.1162    2.3947   -1.0205 H   0  0  0  0  0  0  0  0  0  0  0  0
   -1.4278    1.1543   -2.3810 H   0  0  0  0  0  0  0  0  0  0  0  0
  1  2  2  0
  2  3  1  0
  3  4  1  0
  4  5  1  0
  5  6  1  0
  5  7  1  0
  5  8  1  0
  4  9  1  0
  9 10  1  0
  9 11  1  0
  9 12  1  0
  2 13  1  0
 13 14  1  0
 14 15  1  0
 15 16  1  0
 16 17  2  0
 17 18  1  0
 18 19  2  0
 19 20  1  0
 20 21  1  0
 21 22  1  0
 22 23  1  0
 23 24  1  0
 24 25  1  0
 25 26  1  0
 20 27  2  0
 15 28  1  0
 28 13  1  0
 27 16  1  0
 26 21  1  0
  4 29  1  0
 14 30  1  0
 14 31  1  0
 15 32  1  0
 17 33  1  0
 18 34  1  0
 22 35  1  0
 22 36  1  0
 23 37  1  0
 23 38  1  0
 25 39  1  0
 25 40  1  0
 26 41  1  0
 26 42  1  0
 28 43  1  0
 28 44  1  0
M  END
$$$$
