@<TRIPOS>MOLECULE
*****
 67 69 0 0 0
SMALL
GASTEIGER

@<TRIPOS>ATOM
      1 C          -0.3158    0.9353    2.0298 C.3     1  UNL1        0.0370
      2 O          -0.3577    1.5439    0.8037 O.3     1  UNL1       -0.3756
      3 C          -1.0603    0.8600   -0.1807 C.3     1  UNL1        0.1033
      4 C          -0.0441    0.4027   -1.1890 C.3     1  UNL1        0.1299
      5 C           0.3624    1.3574   -2.2331 C.3     1  UNL1       -0.0105
      6 C          -0.3618    2.6683   -2.0334 C.3     1  UNL1       -0.0177
      7 C          -1.8335    2.3591   -2.0262 C.3     1  UNL1        0.1009
      8 C          -2.7100    3.4768   -2.4291 C.3     1  UNL1        0.0779
      9 O          -2.5973    2.2999   -3.1525 O.3     1  UNL1       -0.3678
     10 C          -2.1755    1.6590   -0.7446 C.3     1  UNL1        0.0512
     11 C          -3.3839    0.7315   -0.9708 C.3     1  UNL1        0.1015
     12 C          -3.8859    0.1008    0.3135 C.3     1  UNL1       -0.0329
     13 O          -4.2389    1.0322   -1.9977 O.3     1  UNL1       -0.3642
     14 C          -3.4098   -0.0969   -2.1708 C.3     1  UNL1        0.0920
     15 C          -4.2026   -1.3460   -2.3528 C.3     1  UNL1       -0.0054
     16 C          -5.6655   -1.1897   -2.2435 C.2     1  UNL1       -0.0828
     17 C          -6.9432   -1.2773   -2.6720 C.2     1  UNL1       -0.0795
     18 C          -7.4045   -1.8129   -4.0061 C.3     1  UNL1       -0.0440
     19 C          -8.1182   -0.8620   -1.8999 C.3     1  UNL1       -0.0440
     20 O           1.1203   -0.1135   -0.5444 O.3     1  UNL1       -0.4556
     21 C           1.4887   -1.4421   -0.6489 C.2     1  UNL1        0.3323
     22 O           0.8813   -2.3101   -1.2945 O.2     1  UNL1       -0.2456
     23 C           2.7103   -1.8359    0.0797 C.2     1  UNL1        0.0225
     24 C           3.4632   -1.0112    0.8180 C.2     1  UNL1       -0.0550
     25 C           4.6604   -1.4880    1.5072 C.2     1  UNL1       -0.0615
     26 C           5.3626   -0.6064    2.2284 C.2     1  UNL1       -0.0618
     27 C           6.5621   -1.1196    2.9127 C.2     1  UNL1       -0.0618
     28 C           7.3166   -0.3142    3.6514 C.2     1  UNL1       -0.0615
     29 C           8.4986   -0.8549    4.3158 C.2     1  UNL1       -0.0550
     30 C           9.3052   -0.1406    5.0610 C.2     1  UNL1        0.0223
     31 C          10.5079   -0.5881    5.7639 C.2     1  UNL1        0.3295
     32 O          11.3023    0.2609    6.5319 O.3     1  UNL1       -0.4775
     33 O          10.7402   -1.8084    5.5975 O.2     1  UNL1       -0.2458
     34 H           0.1852   -0.0660    1.8577 H       1  UNL1        0.0524
     35 H           0.3290    1.4322    2.7631 H       1  UNL1        0.0524
     36 H          -1.2708    0.7136    2.5080 H       1  UNL1        0.0524
     37 H          -1.4561   -0.0620    0.2848 H       1  UNL1        0.0637
     38 H          -0.4781   -0.5048   -1.7009 H       1  UNL1        0.0760
     39 H           0.1153    0.9792   -3.2581 H       1  UNL1        0.0303
     40 H           1.4684    1.5272   -2.1725 H       1  UNL1        0.0303
     41 H          -0.1173    3.0193   -1.0026 H       1  UNL1        0.0295
     42 H          -0.0882    3.4243   -2.7955 H       1  UNL1        0.0295
     43 H          -2.2585    4.3487   -2.9474 H       1  UNL1        0.0589
     44 H          -3.6330    3.7330   -1.8774 H       1  UNL1        0.0589
     45 H          -2.5429    2.4335   -0.0402 H       1  UNL1        0.0385
     46 H          -3.8736   -0.9942    0.2397 H       1  UNL1        0.0258
     47 H          -4.9291    0.4132    0.5729 H       1  UNL1        0.0258
     48 H          -3.2133    0.3574    1.1784 H       1  UNL1        0.0258
     49 H          -2.5423   -0.0078   -2.8627 H       1  UNL1        0.0628
     50 H          -3.8432   -2.2096   -1.7141 H       1  UNL1        0.0333
     51 H          -4.0327   -1.7420   -3.4063 H       1  UNL1        0.0333
     52 H          -5.6830   -0.7737   -1.2587 H       1  UNL1        0.0572
     53 H          -8.0279   -2.7214   -3.8259 H       1  UNL1        0.0274
     54 H          -6.5169   -2.0479   -4.6177 H       1  UNL1        0.0274
     55 H          -7.9778   -1.0160   -4.5117 H       1  UNL1        0.0274
     56 H          -7.8347   -0.4462   -0.9072 H       1  UNL1        0.0274
     57 H          -8.8028   -1.7282   -1.8080 H       1  UNL1        0.0274
     58 H          -8.6659   -0.0613   -2.4225 H       1  UNL1        0.0274
     59 H           3.0641   -2.8665    0.0431 H       1  UNL1        0.0689
     60 H           3.1290    0.0158    0.8678 H       1  UNL1        0.0620
     61 H           4.9224   -2.5287    1.4006 H       1  UNL1        0.0618
     62 H           5.1138    0.4356    2.3445 H       1  UNL1        0.0618
     63 H           6.8685   -2.1523    2.8533 H       1  UNL1        0.0618
     64 H           7.0851    0.7324    3.7825 H       1  UNL1        0.0618
     65 H           8.7526   -1.9059    4.2139 H       1  UNL1        0.0620
     66 H           9.0584    0.8969    5.1718 H       1  UNL1        0.0689
     67 H          12.1229   -0.0978    6.9941 H       1  UNL1        0.2954
@<TRIPOS>BOND
     1     1     2    1
     2     2     3    1
     3     3     4    1
     4     4     5    1
     5     5     6    1
     6     6     7    1
     7     7     8    1
     8     8     9    1
     9     7    10    1
    10    10    11    1
    11    11    12    1
    12    11    13    1
    13    13    14    1
    14    14    15    1
    15    15    16    1
    16    16    17    2
    17    17    18    1
    18    17    19    1
    19     4    20    1
    20    20    21    1
    21    21    22    2
    22    21    23    1
    23    23    24    2
    24    24    25    1
    25    25    26    2
    26    26    27    1
    27    27    28    2
    28    28    29    1
    29    29    30    2
    30    30    31    1
    31    31    32    1
    32    31    33    2
    33    10     3    1
    34    14    11    1
    35     7     9    1
    36     1    34    1
    37     1    35    1
    38     1    36    1
    39     3    37    1
    40     4    38    1
    41     5    39    1
    42     5    40    1
    43     6    41    1
    44     6    42    1
    45     8    43    1
    46     8    44    1
    47    10    45    1
    48    12    46    1
    49    12    47    1
    50    12    48    1
    51    14    49    1
    52    15    50    1
    53    15    51    1
    54    16    52    1
    55    18    53    1
    56    18    54    1
    57    18    55    1
    58    19    56    1
    59    19    57    1
    60    19    58    1
    61    23    59    1
    62    24    60    1
    63    25    61    1
    64    26    62    1
    65    27    63    1
    66    28    64    1
    67    29    65    1
    68    30    66    1
    69    32    67    1
