
     RDKit          3D

 59 62  0  0  0  0  0  0  0  0999 V2000
   -7.8835   -2.2772   -1.2841 C   0  0  0  0  0  0  0  0  0  0  0  0
   -7.6554   -0.9594   -0.6634 C   0  0  0  0  0  0  0  0  0  0  0  0
   -8.5697   -0.0367   -0.3473 N   0  0  0  0  0  0  0  0  0  0  0  0
   -7.9662    1.0324    0.2029 C   0  0  0  0  0  0  0  0  0  0  0  0
   -8.4040    2.2106    0.6651 N   0  0  0  0  0  0  0  0  0  0  0  0
   -7.5750    3.1488    1.1611 C   0  0  0  0  0  0  0  0  0  0  0  0
   -6.2686    2.8985    1.1962 N   0  0  0  0  0  0  0  0  0  0  0  0
   -5.7172    1.7232    0.7492 C   0  0  0  0  0  0  0  0  0  0  0  0
   -4.2802    1.5449    0.8227 C   0  0  0  0  0  0  0  0  0  0  0  0
   -3.4019    2.4499    0.2165 C   0  0  0  0  0  0  0  0  0  0  0  0
   -2.0437    2.3529    0.3170 C   0  0  0  0  0  0  0  0  0  0  0  0
   -1.4653    1.3129    1.0525 C   0  0  0  0  0  0  0  0  0  0  0  0
   -0.0552    1.1989    1.1657 N   0  0  0  0  0  0  0  0  0  0  0  0
    0.6749    0.4280    0.1933 C   0  0  0  0  0  0  0  0  0  0  0  0
    0.0494   -0.1218   -0.7263 O   0  0  0  0  0  0  0  0  0  0  0  0
    2.0637    0.3087    0.2947 N   0  0  0  0  0  0  0  0  0  0  0  0
    2.9174   -0.4057   -0.5715 C   0  0  0  0  0  0  0  0  0  0  0  0
    2.4668   -1.0951   -1.6589 C   0  0  0  0  0  0  0  0  0  0  0  0
    3.3701   -1.7873   -2.4831 C   0  0  0  0  0  0  0  0  0  0  0  0
    4.7156   -1.7952   -2.2290 C   0  0  0  0  0  0  0  0  0  0  0  0
    5.1970   -1.0992   -1.1262 C   0  0  0  0  0  0  0  0  0  0  0  0
    6.6315   -1.0895   -0.8292 C   0  0  0  0  0  0  0  0  0  0  0  0
    7.4246   -1.7314   -1.6024 O   0  0  0  0  0  0  0  0  0  0  0  0
    7.2280   -0.4284    0.2460 N   0  0  0  0  0  0  0  0  0  0  0  0
    8.6738   -0.4710    0.4695 C   0  0  0  0  0  0  0  0  0  0  0  0
    8.9992   -1.1368    1.7880 C   0  0  0  0  0  0  0  0  0  0  0  0
    9.2639    0.9141    0.4877 C   0  0  0  0  0  0  0  0  0  0  0  0
    4.2969   -0.4384   -0.3467 C   0  0  0  0  0  0  0  0  0  0  0  0
   -2.3236    0.4157    1.6542 C   0  0  0  0  0  0  0  0  0  0  0  0
   -3.6920    0.5343    1.5388 C   0  0  0  0  0  0  0  0  0  0  0  0
   -6.5909    0.7930    0.2487 C   0  0  0  0  0  0  0  0  0  0  0  0
   -6.4087   -0.4452   -0.2932 C   0  0  0  0  0  0  0  0  0  0  0  0
   -5.1479   -1.1492   -0.5132 C   0  0  0  0  0  0  0  0  0  0  0  0
   -8.8127   -2.7702   -0.8952 H   0  0  0  0  0  0  0  0  0  0  0  0
   -7.0618   -2.9914   -1.0815 H   0  0  0  0  0  0  0  0  0  0  0  0
   -8.0128   -2.1986   -2.3951 H   0  0  0  0  0  0  0  0  0  0  0  0
   -9.6043   -0.0944   -0.4878 H   0  0  0  0  0  0  0  0  0  0  0  0
   -8.0045    4.0777    1.5151 H   0  0  0  0  0  0  0  0  0  0  0  0
   -3.8312    3.2634   -0.3582 H   0  0  0  0  0  0  0  0  0  0  0  0
   -1.3510    3.0428   -0.1446 H   0  0  0  0  0  0  0  0  0  0  0  0
    0.4562    1.6596    1.9339 H   0  0  0  0  0  0  0  0  0  0  0  0
    2.5519    0.8078    1.1137 H   0  0  0  0  0  0  0  0  0  0  0  0
    1.4323   -1.1555   -1.9504 H   0  0  0  0  0  0  0  0  0  0  0  0
    2.9645   -2.3196   -3.3340 H   0  0  0  0  0  0  0  0  0  0  0  0
    5.4338   -2.3146   -2.8396 H   0  0  0  0  0  0  0  0  0  0  0  0
    6.6254    0.1140    0.9128 H   0  0  0  0  0  0  0  0  0  0  0  0
    9.1112   -1.0855   -0.3342 H   0  0  0  0  0  0  0  0  0  0  0  0
    8.1766   -0.9565    2.5142 H   0  0  0  0  0  0  0  0  0  0  0  0
    9.2208   -2.2164    1.6694 H   0  0  0  0  0  0  0  0  0  0  0  0
    9.9082   -0.6663    2.2053 H   0  0  0  0  0  0  0  0  0  0  0  0
    9.5265    1.2665   -0.5372 H   0  0  0  0  0  0  0  0  0  0  0  0
    8.5895    1.6268    0.9979 H   0  0  0  0  0  0  0  0  0  0  0  0
   10.2293    0.8438    1.0665 H   0  0  0  0  0  0  0  0  0  0  0  0
    4.6598    0.1068    0.5143 H   0  0  0  0  0  0  0  0  0  0  0  0
   -1.9067   -0.4069    2.2350 H   0  0  0  0  0  0  0  0  0  0  0  0
   -4.3224   -0.1985    2.0488 H   0  0  0  0  0  0  0  0  0  0  0  0
   -5.3281   -1.9281   -1.3338 H   0  0  0  0  0  0  0  0  0  0  0  0
   -4.3409   -0.5326   -0.9618 H   0  0  0  0  0  0  0  0  0  0  0  0
   -4.8334   -1.7734    0.3437 H   0  0  0  0  0  0  0  0  0  0  0  0
  1  2  1  0
  2  3  1  0
  3  4  1  0
  4  5  2  0
  5  6  1  0
  6  7  2  0
  7  8  1  0
  8  9  1  0
  9 10  2  0
 10 11  1  0
 11 12  2  0
 12 13  1  0
 13 14  1  0
 14 15  2  0
 14 16  1  0
 16 17  1  0
 17 18  2  0
 18 19  1  0
 19 20  2  0
 20 21  1  0
 21 22  1  0
 22 23  2  0
 22 24  1  0
 24 25  1  0
 25 26  1  0
 25 27  1  0
 21 28  2  0
 12 29  1  0
 29 30  2  0
  8 31  2  0
 31 32  1  0
 32 33  1  0
 32  2  2  0
 31  4  1  0
 30  9  1  0
 28 17  1  0
  1 34  1  0
  1 35  1  0
  1 36  1  0
  3 37  1  0
  6 38  1  0
 10 39  1  0
 11 40  1  0
 13 41  1  0
 16 42  1  0
 18 43  1  0
 19 44  1  0
 20 45  1  0
 24 46  1  0
 25 47  1  0
 26 48  1  0
 26 49  1  0
 26 50  1  0
 27 51  1  0
 27 52  1  0
 27 53  1  0
 28 54  1  0
 29 55  1  0
 30 56  1  0
 33 57  1  0
 33 58  1  0
 33 59  1  0
M  END
$$$$
