@<TRIPOS>MOLECULE
*****
 59 62 0 0 0
SMALL
GASTEIGER

@<TRIPOS>ATOM
      1 C          -7.8835   -2.2772   -1.2841 C.3     1  UNL1       -0.0241
      2 C          -7.6554   -0.9594   -0.6634 C.ar    1  UNL1        0.0181
      3 N          -8.5697   -0.0367   -0.3473 N.ar    1  UNL1       -0.3429
      4 C          -7.9662    1.0324    0.2029 C.ar    1  UNL1        0.1424
      5 N          -8.4040    2.2106    0.6651 N.ar    1  UNL1       -0.2179
      6 C          -7.5750    3.1488    1.1611 C.ar    1  UNL1        0.1189
      7 N          -6.2686    2.8985    1.1962 N.ar    1  UNL1       -0.2347
      8 C          -5.7172    1.7232    0.7492 C.ar    1  UNL1        0.0836
      9 C          -4.2802    1.5449    0.8227 C.ar    1  UNL1        0.0012
     10 C          -3.4019    2.4499    0.2165 C.ar    1  UNL1       -0.0508
     11 C          -2.0437    2.3529    0.3170 C.ar    1  UNL1       -0.0398
     12 C          -1.4653    1.3129    1.0525 C.ar    1  UNL1        0.0348
     13 N          -0.0552    1.1989    1.1657 N.am    1  UNL1       -0.2692
     14 C           0.6749    0.4280    0.1933 C.2     1  UNL1        0.3081
     15 O           0.0494   -0.1218   -0.7263 O.2     1  UNL1       -0.2522
     16 N           2.0637    0.3087    0.2947 N.am    1  UNL1       -0.2692
     17 C           2.9174   -0.4057   -0.5715 C.ar    1  UNL1        0.0355
     18 C           2.4668   -1.0951   -1.6589 C.ar    1  UNL1       -0.0404
     19 C           3.3701   -1.7873   -2.4831 C.ar    1  UNL1       -0.0593
     20 C           4.7156   -1.7952   -2.2290 C.ar    1  UNL1       -0.0495
     21 C           5.1970   -1.0992   -1.1262 C.ar    1  UNL1        0.0385
     22 C           6.6315   -1.0895   -0.8292 C.2     1  UNL1        0.2443
     23 O           7.4246   -1.7314   -1.6024 O.2     1  UNL1       -0.2702
     24 N           7.2280   -0.4284    0.2460 N.am    1  UNL1       -0.3090
     25 C           8.6738   -0.4710    0.4695 C.3     1  UNL1        0.0178
     26 C           8.9992   -1.1368    1.7880 C.3     1  UNL1       -0.0469
     27 C           9.2639    0.9141    0.4877 C.3     1  UNL1       -0.0469
     28 C           4.2969   -0.4384   -0.3467 C.ar    1  UNL1       -0.0283
     29 C          -2.3236    0.4157    1.6542 C.ar    1  UNL1       -0.0398
     30 C          -3.6920    0.5343    1.5388 C.ar    1  UNL1       -0.0508
     31 C          -6.5909    0.7930    0.2487 C.ar    1  UNL1        0.0478
     32 C          -6.4087   -0.4452   -0.2932 C.ar    1  UNL1       -0.0189
     33 C          -5.1479   -1.1492   -0.5132 C.3     1  UNL1       -0.0373
     34 H          -8.8127   -2.7702   -0.8952 H       1  UNL1        0.0292
     35 H          -7.0618   -2.9914   -1.0815 H       1  UNL1        0.0292
     36 H          -8.0128   -2.1986   -2.3951 H       1  UNL1        0.0292
     37 H          -9.6043   -0.0944   -0.4878 H       1  UNL1        0.1670
     38 H          -8.0045    4.0777    1.5151 H       1  UNL1        0.1048
     39 H          -3.8312    3.2634   -0.3582 H       1  UNL1        0.0625
     40 H          -1.3510    3.0428   -0.1446 H       1  UNL1        0.0636
     41 H           0.4562    1.6596    1.9339 H       1  UNL1        0.1564
     42 H           2.5519    0.8078    1.1137 H       1  UNL1        0.1564
     43 H           1.4323   -1.1555   -1.9504 H       1  UNL1        0.0636
     44 H           2.9645   -2.3196   -3.3340 H       1  UNL1        0.0618
     45 H           5.4338   -2.3146   -2.8396 H       1  UNL1        0.0625
     46 H           6.6254    0.1140    0.9128 H       1  UNL1        0.1493
     47 H           9.1112   -1.0855   -0.3342 H       1  UNL1        0.0493
     48 H           8.1766   -0.9565    2.5142 H       1  UNL1        0.0247
     49 H           9.2208   -2.2164    1.6694 H       1  UNL1        0.0247
     50 H           9.9082   -0.6663    2.2053 H       1  UNL1        0.0247
     51 H           9.5265    1.2665   -0.5372 H       1  UNL1        0.0247
     52 H           8.5895    1.6268    0.9979 H       1  UNL1        0.0247
     53 H          10.2293    0.8438    1.0665 H       1  UNL1        0.0247
     54 H           4.6598    0.1068    0.5143 H       1  UNL1        0.0644
     55 H          -1.9067   -0.4069    2.2350 H       1  UNL1        0.0636
     56 H          -4.3224   -0.1985    2.0488 H       1  UNL1        0.0625
     57 H          -5.3281   -1.9281   -1.3338 H       1  UNL1        0.0278
     58 H          -4.3409   -0.5326   -0.9618 H       1  UNL1        0.0278
     59 H          -4.8334   -1.7734    0.3437 H       1  UNL1        0.0278
@<TRIPOS>BOND
     1     1     2    1
     2     2     3   ar
     3     3     4   ar
     4     4     5   ar
     5     5     6   ar
     6     6     7   ar
     7     7     8   ar
     8     8     9    1
     9     9    10   ar
    10    10    11   ar
    11    11    12   ar
    12    12    13    1
    13    13    14   am
    14    14    15    2
    15    14    16   am
    16    16    17    1
    17    17    18   ar
    18    18    19   ar
    19    19    20   ar
    20    20    21   ar
    21    21    22    1
    22    22    23    2
    23    22    24   am
    24    24    25    1
    25    25    26    1
    26    25    27    1
    27    21    28   ar
    28    12    29   ar
    29    29    30   ar
    30     8    31   ar
    31    31    32   ar
    32    32    33    1
    33    32     2   ar
    34    31     4   ar
    35    30     9   ar
    36    28    17   ar
    37     1    34    1
    38     1    35    1
    39     1    36    1
    40     3    37    1
    41     6    38    1
    42    10    39    1
    43    11    40    1
    44    13    41    1
    45    16    42    1
    46    18    43    1
    47    19    44    1
    48    20    45    1
    49    24    46    1
    50    25    47    1
    51    26    48    1
    52    26    49    1
    53    26    50    1
    54    27    51    1
    55    27    52    1
    56    27    53    1
    57    28    54    1
    58    29    55    1
    59    30    56    1
    60    33    57    1
    61    33    58    1
    62    33    59    1
