@<TRIPOS>MOLECULE
*****
 68 72 0 0 0
SMALL
GASTEIGER

@<TRIPOS>ATOM
      1 C          -5.5376    6.7211   -0.5829 C.3     1  UNL1        0.0788
      2 O          -5.9013    5.3733   -0.6461 O.3     1  UNL1       -0.4951
      3 C          -5.0084    4.3207   -0.5814 C.ar    1  UNL1        0.1207
      4 C          -3.6525    4.5319   -0.4456 C.ar    1  UNL1       -0.0194
      5 C          -2.7542    3.4644   -0.3807 C.ar    1  UNL1       -0.0506
      6 C          -3.2400    2.1789   -0.4544 C.ar    1  UNL1       -0.0170
      7 C          -2.3211    1.1312   -0.3870 C.ar    1  UNL1       -0.0448
      8 C          -2.7722   -0.1531   -0.4577 C.ar    1  UNL1        0.0007
      9 C          -1.9105   -1.3216   -0.4102 C.ar    1  UNL1        0.0702
     10 C          -2.1809   -2.3838    0.4675 C.ar    1  UNL1       -0.0084
     11 C          -1.2248   -3.3530    0.2947 C.ar    1  UNL1        0.0934
     12 C          -1.1248   -4.6288    1.0055 C.ar    1  UNL1        0.0049
     13 C          -2.0513   -4.9689    1.9668 C.ar    1  UNL1       -0.0341
     14 C          -1.9831   -6.1669    2.6551 C.ar    1  UNL1        0.0430
     15 CL         -3.2137   -6.5239    3.8733 Cl      1  UNL1       -0.0835
     16 C          -0.9759   -7.0715    2.4009 C.ar    1  UNL1       -0.0250
     17 C          -0.0445   -6.7464    1.4449 C.ar    1  UNL1        0.0430
     18 CL          1.2334   -7.8953    1.1231 Cl      1  UNL1       -0.0835
     19 C          -0.1182   -5.5337    0.7520 C.ar    1  UNL1       -0.0341
     20 N          -0.4138   -2.8846   -0.6527 N.ar    1  UNL1       -0.1701
     21 N          -0.8146   -1.6690   -1.0833 N.ar    1  UNL1       -0.2560
     22 C          -0.1332   -0.9184   -2.1399 C.3     1  UNL1        0.0754
     23 C          -1.0246   -0.0617   -2.9537 C.3     1  UNL1       -0.0384
     24 C           1.1311   -0.2966   -1.6802 C.ar    1  UNL1       -0.0233
     25 C           2.2414   -1.1102   -1.4058 C.ar    1  UNL1       -0.0558
     26 C           3.4512   -0.6013   -0.9856 C.ar    1  UNL1       -0.0493
     27 C           3.6292    0.7470   -0.8132 C.ar    1  UNL1        0.0367
     28 C           4.9046    1.3513   -0.3642 C.2     1  UNL1        0.2441
     29 O           4.9938    2.6011   -0.2278 O.2     1  UNL1       -0.2702
     30 N           6.0136    0.5545   -0.0889 N.am    1  UNL1       -0.3108
     31 C           7.2650    1.1236    0.3560 C.3     1  UNL1        0.0220
     32 C           7.0839    1.8352    1.6669 C.3     1  UNL1        0.0603
     33 C           6.5899    0.8381    2.6646 C.2     1  UNL1        0.3062
     34 O           6.3795    1.2529    3.8261 O.2     1  UNL1       -0.2510
     35 O           6.3763   -0.4810    2.3171 O.3     1  UNL1       -0.4806
     36 C           2.5518    1.5671   -1.0770 C.ar    1  UNL1       -0.0493
     37 C           1.3273    1.0472   -1.5029 C.ar    1  UNL1       -0.0558
     38 C          -4.1455   -0.3642   -0.5949 C.ar    1  UNL1       -0.0520
     39 C          -5.0405    0.6559   -0.6604 C.ar    1  UNL1       -0.0533
     40 C          -4.5941    1.9583   -0.5902 C.ar    1  UNL1       -0.0144
     41 C          -5.4868    3.0325   -0.6544 C.ar    1  UNL1       -0.0122
     42 H          -6.4601    7.3251   -0.4589 H       1  UNL1        0.0660
     43 H          -5.0495    7.0455   -1.5219 H       1  UNL1        0.0660
     44 H          -4.8718    6.8939    0.3057 H       1  UNL1        0.0660
     45 H          -3.3159    5.5615   -0.3917 H       1  UNL1        0.0654
     46 H          -1.6924    3.6918   -0.2731 H       1  UNL1        0.0625
     47 H          -1.2842    1.3356   -0.2739 H       1  UNL1        0.0630
     48 H          -3.0026   -2.4311    1.1618 H       1  UNL1        0.0661
     49 H          -2.8508   -4.2449    2.1650 H       1  UNL1        0.0639
     50 H          -0.9214   -8.0179    2.9441 H       1  UNL1        0.0647
     51 H           0.6125   -5.2959    0.0127 H       1  UNL1        0.0639
     52 H           0.2089   -1.7481   -2.8653 H       1  UNL1        0.0592
     53 H          -0.9167    1.0155   -2.8716 H       1  UNL1        0.0253
     54 H          -2.0661   -0.4226   -2.8008 H       1  UNL1        0.0253
     55 H          -0.8293   -0.2782   -4.0514 H       1  UNL1        0.0253
     56 H           2.0876   -2.1873   -1.5471 H       1  UNL1        0.0621
     57 H           4.2712   -1.2721   -0.7890 H       1  UNL1        0.0625
     58 H           6.0056   -0.4922   -0.1869 H       1  UNL1        0.1490
     59 H           7.6271    1.8972   -0.3821 H       1  UNL1        0.0467
     60 H           8.0868    0.3725    0.4126 H       1  UNL1        0.0467
     61 H           6.3756    2.6626    1.5580 H       1  UNL1        0.0393
     62 H           8.0646    2.2605    2.0088 H       1  UNL1        0.0393
     63 H           6.3756   -1.1533    3.0887 H       1  UNL1        0.2951
     64 H           2.6798    2.6464   -0.9435 H       1  UNL1        0.0625
     65 H           0.5222    1.7336   -1.7015 H       1  UNL1        0.0621
     66 H          -4.5079   -1.3950   -0.6513 H       1  UNL1        0.0624
     67 H          -6.1020    0.5055   -0.7662 H       1  UNL1        0.0624
     68 H          -6.5510    2.8396   -0.7615 H       1  UNL1        0.0660
@<TRIPOS>BOND
     1     1     2    1
     2     2     3    1
     3     3     4   ar
     4     4     5   ar
     5     5     6   ar
     6     6     7   ar
     7     7     8   ar
     8     8     9    1
     9     9    10   ar
    10    10    11   ar
    11    11    12    1
    12    12    13   ar
    13    13    14   ar
    14    14    15    1
    15    14    16   ar
    16    16    17   ar
    17    17    18    1
    18    17    19   ar
    19    11    20   ar
    20    20    21   ar
    21    21    22    1
    22    22    23    1
    23    22    24    1
    24    24    25   ar
    25    25    26   ar
    26    26    27   ar
    27    27    28    1
    28    28    29    2
    29    28    30   am
    30    30    31    1
    31    31    32    1
    32    32    33    1
    33    33    34    2
    34    33    35    1
    35    27    36   ar
    36    36    37   ar
    37     8    38   ar
    38    38    39   ar
    39    39    40   ar
    40    40    41   ar
    41    41     3   ar
    42    40     6   ar
    43    21     9   ar
    44    37    24   ar
    45    19    12   ar
    46     1    42    1
    47     1    43    1
    48     1    44    1
    49     4    45    1
    50     5    46    1
    51     7    47    1
    52    10    48    1
    53    13    49    1
    54    16    50    1
    55    19    51    1
    56    22    52    1
    57    23    53    1
    58    23    54    1
    59    23    55    1
    60    25    56    1
    61    26    57    1
    62    30    58    1
    63    31    59    1
    64    31    60    1
    65    32    61    1
    66    32    62    1
    67    35    63    1
    68    36    64    1
    69    37    65    1
    70    38    66    1
    71    39    67    1
    72    41    68    1
