
     RDKit          3D

 66 69  0  0  0  0  0  0  0  0999 V2000
   -5.6663    5.4496    0.7453 C   0  0  0  0  0  0  0  0  0  0  0  0
   -4.2288    5.0638    0.7681 C   0  0  0  0  0  0  0  0  0  0  0  0
   -3.4680    5.7202    0.0765 O   0  0  0  0  0  0  0  0  0  0  0  0
   -3.6997    3.9454    1.5759 C   0  0  0  0  0  0  0  0  0  0  0  0
   -4.3402    2.6345    1.1713 C   0  0  0  0  0  0  0  0  0  0  0  0
   -3.1979    1.6735    0.9086 C   0  0  1  0  0  0  0  0  0  0  0  0
   -3.5185    0.7747   -0.1878 N   0  0  0  0  0  0  0  0  0  0  0  0
   -3.6419   -0.6099    0.0163 C   0  0  0  0  0  0  0  0  0  0  0  0
   -3.4708   -1.0679    1.1996 O   0  0  0  0  0  0  0  0  0  0  0  0
   -3.9552   -1.5106   -1.0754 C   0  0  0  0  0  0  0  0  0  0  0  0
   -4.1821   -2.8503   -0.7897 C   0  0  0  0  0  0  0  0  0  0  0  0
   -4.4722   -3.8014   -1.7393 C   0  0  0  0  0  0  0  0  0  0  0  0
   -4.5469   -3.4164   -3.0664 C   0  0  0  0  0  0  0  0  0  0  0  0
   -4.8420   -4.3782   -4.0399 O   0  0  0  0  0  0  0  0  0  0  0  0
   -4.3281   -2.0961   -3.3891 C   0  0  0  0  0  0  0  0  0  0  0  0
   -4.0342   -1.1492   -2.3994 C   0  0  0  0  0  0  0  0  0  0  0  0
   -2.0279    2.5555    0.5249 C   0  0  2  0  0  0  0  0  0  0  0  0
   -0.8284    1.8838    0.8361 O   0  0  0  0  0  0  0  0  0  0  0  0
    0.0835    1.5763   -0.1775 C   0  0  0  0  0  0  0  0  0  0  0  0
   -0.1964    1.9133   -1.3605 O   0  0  0  0  0  0  0  0  0  0  0  0
    1.3242    0.8803    0.1484 C   0  0  0  0  0  0  0  0  0  0  0  0
    1.6307    0.5195    1.4376 C   0  0  0  0  0  0  0  0  0  0  0  0
    2.8026   -0.1367    1.7192 C   0  0  0  0  0  0  0  0  0  0  0  0
    3.0323   -0.4640    3.0532 O   0  0  0  0  0  0  0  0  0  0  0  0
    3.7373   -0.4777    0.7702 C   0  0  0  0  0  0  0  0  0  0  0  0
    5.0178   -1.0596    1.0794 C   0  0  0  0  0  0  0  0  0  0  0  0
    5.3911   -0.8116    2.3101 O   0  0  0  0  0  0  0  0  0  0  0  0
    5.9115   -1.8254    0.2730 C   0  0  0  0  0  0  0  0  0  0  0  0
    7.2832   -1.5216    0.4599 C   0  0  0  0  0  0  0  0  0  0  0  0
    7.6324   -0.5368    1.3668 O   0  0  0  0  0  0  0  0  0  0  0  0
    8.2218   -2.2111   -0.2621 C   0  0  0  0  0  0  0  0  0  0  0  0
    7.9008   -3.1890   -1.1647 C   0  0  0  0  0  0  0  0  0  0  0  0
    6.5790   -3.4850   -1.3422 C   0  0  0  0  0  0  0  0  0  0  0  0
    5.5646   -2.7957   -0.6095 C   0  0  0  0  0  0  0  0  0  0  0  0
    4.2183   -3.3256   -0.6987 C   0  0  0  0  0  0  0  0  0  0  0  0
    3.9367   -4.1389   -1.6231 O   0  0  0  0  0  0  0  0  0  0  0  0
    3.2294   -3.0000    0.1756 O   0  0  0  0  0  0  0  0  0  0  0  0
    3.4070   -0.1002   -0.5381 C   0  0  0  0  0  0  0  0  0  0  0  0
    4.2298   -0.3541   -1.6273 O   0  0  0  0  0  0  0  0  0  0  0  0
    2.2248    0.5618   -0.8241 C   0  0  0  0  0  0  0  0  0  0  0  0
   -2.2127    3.8231    1.3362 C   0  0  0  0  0  0  0  0  0  0  0  0
   -6.2461    4.9446    1.5217 H   0  0  0  0  0  0  0  0  0  0  0  0
   -5.8149    6.5344    0.7876 H   0  0  0  0  0  0  0  0  0  0  0  0
   -6.0506    5.1119   -0.2538 H   0  0  0  0  0  0  0  0  0  0  0  0
   -3.9090    4.1708    2.6486 H   0  0  0  0  0  0  0  0  0  0  0  0
   -4.9778    2.7254    0.2865 H   0  0  0  0  0  0  0  0  0  0  0  0
   -4.9591    2.2717    2.0246 H   0  0  0  0  0  0  0  0  0  0  0  0
   -3.0181    1.1013    1.8120 H   0  0  0  0  0  0  0  0  0  0  0  0
   -3.6610    1.1623   -1.1454 H   0  0  0  0  0  0  0  0  0  0  0  0
   -4.1250   -3.1529    0.2591 H   0  0  0  0  0  0  0  0  0  0  0  0
   -4.6356   -4.8261   -1.4384 H   0  0  0  0  0  0  0  0  0  0  0  0
   -5.7857   -4.6067   -4.3138 H   0  0  0  0  0  0  0  0  0  0  0  0
   -4.3912   -1.8232   -4.4335 H   0  0  0  0  0  0  0  0  0  0  0  0
   -3.8630   -0.1178   -2.6693 H   0  0  0  0  0  0  0  0  0  0  0  0
   -2.0565    2.7469   -0.5554 H   0  0  0  0  0  0  0  0  0  0  0  0
    0.9113    0.7767    2.2051 H   0  0  0  0  0  0  0  0  0  0  0  0
    2.3048   -1.0341    3.4900 H   0  0  0  0  0  0  0  0  0  0  0  0
    7.9216   -0.8366    2.3107 H   0  0  0  0  0  0  0  0  0  0  0  0
    9.2947   -1.9925   -0.1341 H   0  0  0  0  0  0  0  0  0  0  0  0
    8.6670   -3.7282   -1.7371 H   0  0  0  0  0  0  0  0  0  0  0  0
    6.2563   -4.2386   -2.0315 H   0  0  0  0  0  0  0  0  0  0  0  0
    2.4539   -3.5948    0.4366 H   0  0  0  0  0  0  0  0  0  0  0  0
    4.7348    0.4656   -1.9790 H   0  0  0  0  0  0  0  0  0  0  0  0
    1.9780    0.8510   -1.8578 H   0  0  0  0  0  0  0  0  0  0  0  0
   -1.6947    3.7593    2.3154 H   0  0  0  0  0  0  0  0  0  0  0  0
   -1.8353    4.6674    0.7307 H   0  0  0  0  0  0  0  0  0  0  0  0
  1  2  1  0
  2  3  2  0
  2  4  1  0
  4  5  1  0
  5  6  1  0
  6  7  1  0
  7  8  1  0
  8  9  2  0
  8 10  1  0
 10 11  2  0
 11 12  1  0
 12 13  2  0
 13 14  1  0
 13 15  1  0
 15 16  2  0
  6 17  1  0
 17 18  1  0
 18 19  1  0
 19 20  2  0
 19 21  1  0
 21 22  2  0
 22 23  1  0
 23 24  1  0
 23 25  2  0
 25 26  1  0
 26 27  2  0
 26 28  1  0
 28 29  2  0
 29 30  1  0
 29 31  1  0
 31 32  2  0
 32 33  1  0
 33 34  2  0
 34 35  1  0
 35 36  2  0
 35 37  1  0
 25 38  1  0
 38 39  1  0
 38 40  2  0
 17 41  1  0
 41  4  1  0
 16 10  1  0
 40 21  1  0
 34 28  1  0
  1 42  1  0
  1 43  1  0
  1 44  1  0
  4 45  1  0
  5 46  1  0
  5 47  1  0
  6 48  1  1
  7 49  1  0
 11 50  1  0
 12 51  1  0
 14 52  1  0
 15 53  1  0
 16 54  1  0
 17 55  1  6
 22 56  1  0
 24 57  1  0
 30 58  1  0
 31 59  1  0
 32 60  1  0
 33 61  1  0
 37 62  1  0
 39 63  1  0
 40 64  1  0
 41 65  1  0
 41 66  1  0
M  END
$$$$
