@<TRIPOS>MOLECULE
*****
 66 69 0 0 0
SMALL
GASTEIGER

@<TRIPOS>ATOM
      1 C          -5.6663    5.4496    0.7453 C.3     1  UNL1       -0.0058
      2 C          -4.2288    5.0638    0.7681 C.2     1  UNL1        0.1335
      3 O          -3.4680    5.7202    0.0765 O.2     1  UNL1       -0.2974
      4 C          -3.6997    3.9454    1.5759 C.3     1  UNL1        0.0224
      5 C          -4.3402    2.6345    1.1713 C.3     1  UNL1       -0.0214
      6 C          -3.1979    1.6735    0.9086 C.3     1  UNL1        0.0610
      7 N          -3.5185    0.7747   -0.1878 N.am    1  UNL1       -0.3049
      8 C          -3.6419   -0.6099    0.0163 C.2     1  UNL1        0.2444
      9 O          -3.4708   -1.0679    1.1996 O.2     1  UNL1       -0.2702
     10 C          -3.9552   -1.5106   -1.0754 C.ar    1  UNL1        0.0369
     11 C          -4.1821   -2.8503   -0.7897 C.ar    1  UNL1       -0.0462
     12 C          -4.4722   -3.8014   -1.7393 C.ar    1  UNL1       -0.0195
     13 C          -4.5469   -3.4164   -3.0664 C.ar    1  UNL1        0.1169
     14 O          -4.8420   -4.3782   -4.0399 O.3     1  UNL1       -0.5068
     15 C          -4.3281   -2.0961   -3.3891 C.ar    1  UNL1       -0.0195
     16 C          -4.0342   -1.1492   -2.3994 C.ar    1  UNL1       -0.0462
     17 C          -2.0279    2.5555    0.5249 C.3     1  UNL1        0.1223
     18 O          -0.8284    1.8838    0.8361 O.3     1  UNL1       -0.4560
     19 C           0.0835    1.5763   -0.1775 C.2     1  UNL1        0.3397
     20 O          -0.1964    1.9133   -1.3605 O.2     1  UNL1       -0.2449
     21 C           1.3242    0.8803    0.1484 C.ar    1  UNL1        0.0659
     22 C           1.6307    0.5195    1.4376 C.ar    1  UNL1       -0.0053
     23 C           2.8026   -0.1367    1.7192 C.ar    1  UNL1        0.1320
     24 O           3.0323   -0.4640    3.0532 O.3     1  UNL1       -0.5059
     25 C           3.7373   -0.4777    0.7702 C.ar    1  UNL1        0.1050
     26 C           5.0178   -1.0596    1.0794 C.2     1  UNL1        0.2044
     27 O           5.3911   -0.8116    2.3101 O.2     1  UNL1       -0.2863
     28 C           5.9115   -1.8254    0.2730 C.ar    1  UNL1        0.0778
     29 C           7.2832   -1.5216    0.4599 C.ar    1  UNL1        0.1285
     30 O           7.6324   -0.5368    1.3668 O.3     1  UNL1       -0.5060
     31 C           8.2218   -2.2111   -0.2621 C.ar    1  UNL1       -0.0194
     32 C           7.9008   -3.1890   -1.1647 C.ar    1  UNL1       -0.0575
     33 C           6.5790   -3.4850   -1.3422 C.ar    1  UNL1       -0.0468
     34 C           5.5646   -2.7957   -0.6095 C.ar    1  UNL1        0.0731
     35 C           4.2183   -3.3256   -0.6987 C.2     1  UNL1        0.3376
     36 O           3.9367   -4.1389   -1.6231 O.2     1  UNL1       -0.2451
     37 O           3.2294   -3.0000    0.1756 O.3     1  UNL1       -0.4771
     38 C           3.4070   -0.1002   -0.5381 C.ar    1  UNL1        0.1320
     39 O           4.2298   -0.3541   -1.6273 O.3     1  UNL1       -0.5059
     40 C           2.2248    0.5618   -0.8241 C.ar    1  UNL1       -0.0053
     41 C          -2.2127    3.8231    1.3362 C.3     1  UNL1       -0.0043
     42 H          -6.2461    4.9446    1.5217 H       1  UNL1        0.0306
     43 H          -5.8149    6.5344    0.7876 H       1  UNL1        0.0306
     44 H          -6.0506    5.1119   -0.2538 H       1  UNL1        0.0306
     45 H          -3.9090    4.1708    2.6486 H       1  UNL1        0.0379
     46 H          -4.9778    2.7254    0.2865 H       1  UNL1        0.0291
     47 H          -4.9591    2.2717    2.0246 H       1  UNL1        0.0291
     48 H          -3.0181    1.1013    1.8120 H       1  UNL1        0.0535
     49 H          -3.6610    1.1623   -1.1454 H       1  UNL1        0.1494
     50 H          -4.1250   -3.1529    0.2591 H       1  UNL1        0.0626
     51 H          -4.6356   -4.8261   -1.4384 H       1  UNL1        0.0654
     52 H          -5.7857   -4.6067   -4.3138 H       1  UNL1        0.2921
     53 H          -4.3912   -1.8232   -4.4335 H       1  UNL1        0.0654
     54 H          -3.8630   -0.1178   -2.6693 H       1  UNL1        0.0626
     55 H          -2.0565    2.7469   -0.5554 H       1  UNL1        0.0753
     56 H           0.9113    0.7767    2.2051 H       1  UNL1        0.0662
     57 H           2.3048   -1.0341    3.4900 H       1  UNL1        0.2922
     58 H           7.9216   -0.8366    2.3107 H       1  UNL1        0.2922
     59 H           9.2947   -1.9925   -0.1341 H       1  UNL1        0.0654
     60 H           8.6670   -3.7282   -1.7371 H       1  UNL1        0.0619
     61 H           6.2563   -4.2386   -2.0315 H       1  UNL1        0.0626
     62 H           2.4539   -3.5948    0.4366 H       1  UNL1        0.2954
     63 H           4.7348    0.4656   -1.9790 H       1  UNL1        0.2922
     64 H           1.9780    0.8510   -1.8578 H       1  UNL1        0.0662
     65 H          -1.6947    3.7593    2.3154 H       1  UNL1        0.0308
     66 H          -1.8353    4.6674    0.7307 H       1  UNL1        0.0308
@<TRIPOS>BOND
     1     1     2    1
     2     2     3    2
     3     2     4    1
     4     4     5    1
     5     5     6    1
     6     6     7    1
     7     7     8   am
     8     8     9    2
     9     8    10    1
    10    10    11   ar
    11    11    12   ar
    12    12    13   ar
    13    13    14    1
    14    13    15   ar
    15    15    16   ar
    16     6    17    1
    17    17    18    1
    18    18    19    1
    19    19    20    2
    20    19    21    1
    21    21    22   ar
    22    22    23   ar
    23    23    24    1
    24    23    25   ar
    25    25    26    1
    26    26    27    2
    27    26    28    1
    28    28    29   ar
    29    29    30    1
    30    29    31   ar
    31    31    32   ar
    32    32    33   ar
    33    33    34   ar
    34    34    35    1
    35    35    36    2
    36    35    37    1
    37    25    38   ar
    38    38    39    1
    39    38    40   ar
    40    17    41    1
    41    41     4    1
    42    16    10   ar
    43    40    21   ar
    44    34    28   ar
    45     1    42    1
    46     1    43    1
    47     1    44    1
    48     4    45    1
    49     5    46    1
    50     5    47    1
    51     6    48    1
    52     7    49    1
    53    11    50    1
    54    12    51    1
    55    14    52    1
    56    15    53    1
    57    16    54    1
    58    17    55    1
    59    22    56    1
    60    24    57    1
    61    30    58    1
    62    31    59    1
    63    32    60    1
    64    33    61    1
    65    37    62    1
    66    39    63    1
    67    40    64    1
    68    41    65    1
    69    41    66    1
