@<TRIPOS>MOLECULE
*****
 44 47 0 0 0
SMALL
GASTEIGER

@<TRIPOS>ATOM
      1 C          -3.6177    3.4637    1.5820 C.3     1  UNL1        0.0596
      2 S          -4.4636    1.9169    1.4203 S.O2    1  UNL1       -0.0044
      3 O          -5.5041    2.0472    0.3695 O.2     1  UNL1       -0.1696
      4 O          -5.1700    1.6365    2.7252 O.2     1  UNL1       -0.1696
      5 C          -3.3583    0.5998    1.1336 C.ar    1  UNL1        0.1060
      6 C          -2.9810    0.2089   -0.1326 C.ar    1  UNL1       -0.0319
      7 C          -2.0955   -0.8486   -0.3191 C.ar    1  UNL1       -0.0156
      8 C          -1.5723   -1.5336    0.7693 C.ar    1  UNL1        0.1547
      9 N          -0.6602   -2.6232    0.5825 N.ar    1  UNL1       -0.2136
     10 N          -0.8551   -3.8901    0.8506 N.ar    1  UNL1       -0.1604
     11 C           0.2024   -4.6337    0.5550 C.ar    1  UNL1        0.1662
     12 C           0.3746   -6.1203    0.7146 C.3     1  UNL1        0.4360
     13 F           0.6250   -6.3490    2.0544 F       1  UNL1       -0.1644
     14 F          -0.8155   -6.7002    0.3121 F       1  UNL1       -0.1644
     15 F           1.4500   -6.5612   -0.0181 F       1  UNL1       -0.1644
     16 C           1.1533   -3.7994    0.0605 C.ar    1  UNL1       -0.0038
     17 C           0.6011   -2.5187    0.0791 C.ar    1  UNL1        0.0769
     18 C           1.2366   -1.2955   -0.3526 C.ar    1  UNL1        0.0019
     19 C           1.9495   -1.1798   -1.5223 C.ar    1  UNL1       -0.0518
     20 C           2.5374    0.0100   -1.8901 C.ar    1  UNL1       -0.0491
     21 C           2.4280    1.1494   -1.0794 C.ar    1  UNL1        0.0356
     22 C           3.0786    2.3619   -1.5432 C.ar    1  UNL1        0.1362
     23 C           3.1263    3.5795   -0.9615 C.ar    1  UNL1       -0.0158
     24 C           3.8777    4.4280   -1.7983 C.ar    1  UNL1       -0.0233
     25 C           4.2471    3.6496   -2.8619 C.ar    1  UNL1        0.0926
     26 O           3.7713    2.4734   -2.6805 O.2     1  UNL1       -0.4629
     27 C           1.7315    1.0513    0.0715 C.ar    1  UNL1        0.0522
     28 CL          1.5199    2.3928    1.1690 Cl      1  UNL1       -0.0828
     29 C           1.1453   -0.1683    0.4201 C.ar    1  UNL1       -0.0335
     30 N          -1.9627   -1.1247    1.9882 N.ar    1  UNL1       -0.2343
     31 C          -2.8095   -0.1152    2.2019 C.ar    1  UNL1        0.0547
     32 H          -3.4776    3.9673    0.6014 H       1  UNL1        0.0468
     33 H          -4.2770    4.1321    2.2076 H       1  UNL1        0.0468
     34 H          -2.6689    3.3359    2.1317 H       1  UNL1        0.0468
     35 H          -3.3852    0.7386   -0.9819 H       1  UNL1        0.0638
     36 H          -1.7999   -1.1550   -1.3082 H       1  UNL1        0.0655
     37 H           2.1706   -4.0124   -0.3003 H       1  UNL1        0.0660
     38 H           2.0189   -2.0737   -2.1300 H       1  UNL1        0.0624
     39 H           3.0811    0.0786   -2.7928 H       1  UNL1        0.0625
     40 H           2.7124    3.9561   -0.0401 H       1  UNL1        0.0655
     41 H           4.0994    5.4635   -1.6169 H       1  UNL1        0.0649
     42 H           4.8514    4.0547   -3.6860 H       1  UNL1        0.1029
     43 H           0.6002   -0.1969    1.3470 H       1  UNL1        0.0639
     44 H          -3.1154    0.2036    3.1904 H       1  UNL1        0.0850
@<TRIPOS>BOND
     1     1     2    1
     2     2     3    2
     3     2     4    2
     4     2     5    1
     5     5     6   ar
     6     6     7   ar
     7     7     8   ar
     8     8     9    1
     9     9    10   ar
    10    10    11   ar
    11    11    12    1
    12    12    13    1
    13    12    14    1
    14    12    15    1
    15    11    16   ar
    16    16    17   ar
    17    17    18    1
    18    18    19   ar
    19    19    20   ar
    20    20    21   ar
    21    21    22    1
    22    22    23   ar
    23    23    24   ar
    24    24    25   ar
    25    25    26   ar
    26    21    27   ar
    27    27    28    1
    28    27    29   ar
    29     8    30   ar
    30    30    31   ar
    31    31     5   ar
    32    17     9   ar
    33    29    18   ar
    34    26    22   ar
    35     1    32    1
    36     1    33    1
    37     1    34    1
    38     6    35    1
    39     7    36    1
    40    16    37    1
    41    19    38    1
    42    20    39    1
    43    23    40    1
    44    24    41    1
    45    25    42    1
    46    29    43    1
    47    31    44    1
