@<TRIPOS>MOLECULE
*****
 53 55 0 0 0
SMALL
GASTEIGER

@<TRIPOS>ATOM
      1 C           2.7523   -1.5155   -0.8956 C.3     1  UNL1       -0.0220
      2 C           2.6589   -0.1266   -0.3832 C.ar    1  UNL1        0.0450
      3 C           1.5284    0.6056   -0.0901 C.ar    1  UNL1       -0.0059
      4 C           0.1472    0.1418   -0.2313 C.3     1  UNL1       -0.0136
      5 C          -0.2801   -0.7994    0.8532 C.3     1  UNL1        0.0371
      6 C          -0.2144   -0.2329    2.2294 C.3     1  UNL1       -0.0538
      7 C          -1.7482   -1.1851    0.6327 C.2     1  UNL1        0.2201
      8 O          -2.0459   -2.3404    0.4382 O.2     1  UNL1       -0.2752
      9 N          -2.7032   -0.1713    0.6655 N.am    1  UNL1       -0.2884
     10 C          -4.0354    0.0366    0.5451 C.2     1  UNL1        0.0204
     11 C          -5.1129   -0.6163    0.3372 C.2     1  UNL1        0.0534
     12 C          -5.1344   -2.0138    0.1471 C.2     1  UNL1        0.3342
     13 O          -4.2746   -2.8596    0.1510 O.2     1  UNL1       -0.2454
     14 O          -6.4337   -2.5702   -0.1086 O.3     1  UNL1       -0.4773
     15 C          -6.4466    0.1252    0.3080 C.3     1  UNL1       -0.0194
     16 C          -6.4418    1.3076   -0.5820 C.3     1  UNL1       -0.0485
     17 C          -5.0921    1.9522   -0.5877 C.3     1  UNL1       -0.0476
     18 C          -4.3916    1.5722    0.6739 C.3     1  UNL1       -0.0140
     19 C           1.9347    1.8321    0.3514 C.ar    1  UNL1        0.0532
     20 N           3.2729    1.8174    0.3173 N.ar    1  UNL1       -0.1743
     21 N           3.7304    0.6416   -0.1242 N.ar    1  UNL1       -0.2367
     22 C           5.1231    0.3471   -0.2629 C.ar    1  UNL1        0.0659
     23 C           5.7820   -0.5166    0.5860 C.ar    1  UNL1       -0.0328
     24 C           7.1279   -0.7948    0.4461 C.ar    1  UNL1       -0.0182
     25 C           7.8463   -0.2124   -0.5504 C.ar    1  UNL1        0.1170
     26 O           9.2117   -0.5194   -0.6609 O.3     1  UNL1       -0.5068
     27 C           7.2256    0.6512   -1.4133 C.ar    1  UNL1       -0.0182
     28 C           5.8793    0.9277   -1.2710 C.ar    1  UNL1       -0.0328
     29 H           3.6580   -1.6061   -1.5399 H       1  UNL1        0.0293
     30 H           2.7849   -2.2674   -0.0564 H       1  UNL1        0.0293
     31 H           1.8863   -1.7965   -1.5158 H       1  UNL1        0.0293
     32 H           0.0127   -0.4269   -1.1997 H       1  UNL1        0.0321
     33 H          -0.5160    1.0225   -0.3247 H       1  UNL1        0.0321
     34 H           0.2803   -1.7428    0.8206 H       1  UNL1        0.0395
     35 H          -0.6088    0.7835    2.2333 H       1  UNL1        0.0237
     36 H          -0.9141   -0.8463    2.8688 H       1  UNL1        0.0237
     37 H           0.7818   -0.3330    2.7069 H       1  UNL1        0.0237
     38 H          -2.1405    0.8064    0.8635 H       1  UNL1        0.1545
     39 H          -6.3757   -3.4078   -0.7083 H       1  UNL1        0.2954
     40 H          -6.6729    0.3830    1.3434 H       1  UNL1        0.0316
     41 H          -7.1984   -0.6075   -0.0391 H       1  UNL1        0.0316
     42 H          -6.7206    0.9928   -1.6130 H       1  UNL1        0.0269
     43 H          -7.1905    2.0748   -0.2314 H       1  UNL1        0.0269
     44 H          -5.2078    3.0395   -0.5842 H       1  UNL1        0.0269
     45 H          -4.5073    1.6177   -1.4784 H       1  UNL1        0.0269
     46 H          -5.0867    1.5873    1.5168 H       1  UNL1        0.0326
     47 H          -3.4904    2.1155    0.9126 H       1  UNL1        0.0326
     48 H           1.3546    2.6908    0.6788 H       1  UNL1        0.0851
     49 H           5.2552   -0.9936    1.3795 H       1  UNL1        0.0640
     50 H           7.6334   -1.4826    1.1294 H       1  UNL1        0.0655
     51 H           9.8977    0.2083   -0.4904 H       1  UNL1        0.2921
     52 H           7.8105    1.1023   -2.1949 H       1  UNL1        0.0655
     53 H           5.4082    1.6021   -1.9497 H       1  UNL1        0.0640
@<TRIPOS>BOND
     1     1     2    1
     2     2     3   ar
     3     3     4    1
     4     4     5    1
     5     5     6    1
     6     5     7    1
     7     7     8    2
     8     7     9   am
     9     9    10    1
    10    10    11    2
    11    11    12    1
    12    12    13    2
    13    12    14    1
    14    11    15    1
    15    15    16    1
    16    16    17    1
    17    17    18    1
    18     3    19   ar
    19    19    20   ar
    20    20    21   ar
    21    21    22    1
    22    22    23   ar
    23    23    24   ar
    24    24    25   ar
    25    25    26    1
    26    25    27   ar
    27    27    28   ar
    28    21     2   ar
    29    28    22   ar
    30    18    10    1
    31     1    29    1
    32     1    30    1
    33     1    31    1
    34     4    32    1
    35     4    33    1
    36     5    34    1
    37     6    35    1
    38     6    36    1
    39     6    37    1
    40     9    38    1
    41    14    39    1
    42    15    40    1
    43    15    41    1
    44    16    42    1
    45    16    43    1
    46    17    44    1
    47    17    45    1
    48    18    46    1
    49    18    47    1
    50    19    48    1
    51    23    49    1
    52    24    50    1
    53    26    51    1
    54    27    52    1
    55    28    53    1
