
     RDKit          3D

 53 55  0  0  0  0  0  0  0  0999 V2000
    2.7523   -1.5155   -0.8956 C   0  0  0  0  0  0  0  0  0  0  0  0
    2.6589   -0.1266   -0.3832 C   0  0  0  0  0  0  0  0  0  0  0  0
    1.5284    0.6056   -0.0901 C   0  0  0  0  0  0  0  0  0  0  0  0
    0.1472    0.1418   -0.2313 C   0  0  0  0  0  0  0  0  0  0  0  0
   -0.2801   -0.7994    0.8532 C   0  0  1  0  0  0  0  0  0  0  0  0
   -0.2144   -0.2329    2.2294 C   0  0  0  0  0  0  0  0  0  0  0  0
   -1.7482   -1.1851    0.6327 C   0  0  0  0  0  0  0  0  0  0  0  0
   -2.0459   -2.3404    0.4382 O   0  0  0  0  0  0  0  0  0  0  0  0
   -2.7032   -0.1713    0.6655 N   0  0  0  0  0  0  0  0  0  0  0  0
   -4.0354    0.0366    0.5451 C   0  0  0  0  0  0  0  0  0  0  0  0
   -5.1129   -0.6163    0.3372 C   0  0  0  0  0  0  0  0  0  0  0  0
   -5.1344   -2.0138    0.1471 C   0  0  0  0  0  0  0  0  0  0  0  0
   -4.2746   -2.8596    0.1510 O   0  0  0  0  0  0  0  0  0  0  0  0
   -6.4337   -2.5702   -0.1086 O   0  0  0  0  0  0  0  0  0  0  0  0
   -6.4466    0.1252    0.3080 C   0  0  0  0  0  0  0  0  0  0  0  0
   -6.4418    1.3076   -0.5820 C   0  0  0  0  0  0  0  0  0  0  0  0
   -5.0921    1.9522   -0.5877 C   0  0  0  0  0  0  0  0  0  0  0  0
   -4.3916    1.5722    0.6739 C   0  0  0  0  0  0  0  0  0  0  0  0
    1.9347    1.8321    0.3514 C   0  0  0  0  0  0  0  0  0  0  0  0
    3.2729    1.8174    0.3173 N   0  0  0  0  0  0  0  0  0  0  0  0
    3.7304    0.6416   -0.1242 N   0  0  0  0  0  0  0  0  0  0  0  0
    5.1231    0.3471   -0.2629 C   0  0  0  0  0  0  0  0  0  0  0  0
    5.7820   -0.5166    0.5860 C   0  0  0  0  0  0  0  0  0  0  0  0
    7.1279   -0.7948    0.4461 C   0  0  0  0  0  0  0  0  0  0  0  0
    7.8463   -0.2124   -0.5504 C   0  0  0  0  0  0  0  0  0  0  0  0
    9.2117   -0.5194   -0.6609 O   0  0  0  0  0  0  0  0  0  0  0  0
    7.2256    0.6512   -1.4133 C   0  0  0  0  0  0  0  0  0  0  0  0
    5.8793    0.9277   -1.2710 C   0  0  0  0  0  0  0  0  0  0  0  0
    3.6580   -1.6061   -1.5399 H   0  0  0  0  0  0  0  0  0  0  0  0
    2.7849   -2.2674   -0.0564 H   0  0  0  0  0  0  0  0  0  0  0  0
    1.8863   -1.7965   -1.5158 H   0  0  0  0  0  0  0  0  0  0  0  0
    0.0127   -0.4269   -1.1997 H   0  0  0  0  0  0  0  0  0  0  0  0
   -0.5160    1.0225   -0.3247 H   0  0  0  0  0  0  0  0  0  0  0  0
    0.2803   -1.7428    0.8206 H   0  0  0  0  0  0  0  0  0  0  0  0
   -0.6088    0.7835    2.2333 H   0  0  0  0  0  0  0  0  0  0  0  0
   -0.9141   -0.8463    2.8688 H   0  0  0  0  0  0  0  0  0  0  0  0
    0.7818   -0.3330    2.7069 H   0  0  0  0  0  0  0  0  0  0  0  0
   -2.1405    0.8064    0.8635 H   0  0  0  0  0  0  0  0  0  0  0  0
   -6.3757   -3.4078   -0.7083 H   0  0  0  0  0  0  0  0  0  0  0  0
   -6.6729    0.3830    1.3434 H   0  0  0  0  0  0  0  0  0  0  0  0
   -7.1984   -0.6075   -0.0391 H   0  0  0  0  0  0  0  0  0  0  0  0
   -6.7206    0.9928   -1.6130 H   0  0  0  0  0  0  0  0  0  0  0  0
   -7.1905    2.0748   -0.2314 H   0  0  0  0  0  0  0  0  0  0  0  0
   -5.2078    3.0395   -0.5842 H   0  0  0  0  0  0  0  0  0  0  0  0
   -4.5073    1.6177   -1.4784 H   0  0  0  0  0  0  0  0  0  0  0  0
   -5.0867    1.5873    1.5168 H   0  0  0  0  0  0  0  0  0  0  0  0
   -3.4904    2.1155    0.9126 H   0  0  0  0  0  0  0  0  0  0  0  0
    1.3546    2.6908    0.6788 H   0  0  0  0  0  0  0  0  0  0  0  0
    5.2552   -0.9936    1.3795 H   0  0  0  0  0  0  0  0  0  0  0  0
    7.6334   -1.4826    1.1294 H   0  0  0  0  0  0  0  0  0  0  0  0
    9.8977    0.2083   -0.4904 H   0  0  0  0  0  0  0  0  0  0  0  0
    7.8105    1.1023   -2.1949 H   0  0  0  0  0  0  0  0  0  0  0  0
    5.4082    1.6021   -1.9497 H   0  0  0  0  0  0  0  0  0  0  0  0
  1  2  1  0
  2  3  2  0
  3  4  1  0
  4  5  1  0
  5  6  1  0
  5  7  1  0
  7  8  2  0
  7  9  1  0
  9 10  1  0
 10 11  2  0
 11 12  1  0
 12 13  2  0
 12 14  1  0
 11 15  1  0
 15 16  1  0
 16 17  1  0
 17 18  1  0
  3 19  1  0
 19 20  2  0
 20 21  1  0
 21 22  1  0
 22 23  2  0
 23 24  1  0
 24 25  2  0
 25 26  1  0
 25 27  1  0
 27 28  2  0
 21  2  1  0
 28 22  1  0
 18 10  1  0
  1 29  1  0
  1 30  1  0
  1 31  1  0
  4 32  1  0
  4 33  1  0
  5 34  1  1
  6 35  1  0
  6 36  1  0
  6 37  1  0
  9 38  1  0
 14 39  1  0
 15 40  1  0
 15 41  1  0
 16 42  1  0
 16 43  1  0
 17 44  1  0
 17 45  1  0
 18 46  1  0
 18 47  1  0
 19 48  1  0
 23 49  1  0
 24 50  1  0
 26 51  1  0
 27 52  1  0
 28 53  1  0
M  END
$$$$
