@<TRIPOS>MOLECULE
*****
 46 49 0 0 0
SMALL
GASTEIGER

@<TRIPOS>ATOM
      1 C          -3.9569   -2.7651   -1.3819 C.3     1  UNL1       -0.0376
      2 C          -2.5541   -2.8137   -0.9274 C.ar    1  UNL1       -0.0231
      3 C          -1.8183   -3.9743   -0.9792 C.ar    1  UNL1       -0.0384
      4 C          -0.5117   -4.0196   -0.5558 C.ar    1  UNL1        0.0419
      5 CL          0.3965   -5.5070   -0.6338 Cl      1  UNL1       -0.0835
      6 C           0.0653   -2.8524   -0.0655 C.ar    1  UNL1       -0.0334
      7 C          -0.6172   -1.6685    0.0100 C.ar    1  UNL1        0.0160
      8 C          -0.0347   -0.5249    0.4961 C.ar    1  UNL1        0.0702
      9 C           1.3378   -0.4891    0.9621 C.2     1  UNL1        0.3402
     10 O           1.7163    0.6715    1.3847 O.2     1  UNL1       -0.2449
     11 O           2.2593   -1.4484    1.0237 O.3     1  UNL1       -0.4564
     12 C           3.5633   -1.3319    1.4863 C.3     1  UNL1        0.1179
     13 C           4.3075   -0.3441    0.6843 C.ar    1  UNL1       -0.0088
     14 C           4.8433   -0.6564   -0.5603 C.ar    1  UNL1       -0.0539
     15 C           5.5670    0.2502   -1.3035 C.ar    1  UNL1       -0.0416
     16 C           5.7658    1.5116   -0.7931 C.ar    1  UNL1        0.0593
     17 CL          6.6797    2.7250   -1.6845 Cl      1  UNL1       -0.0820
     18 C           5.2528    1.8424    0.4221 C.ar    1  UNL1        0.0596
     19 CL          5.4827    3.4445    1.1132 Cl      1  UNL1       -0.0820
     20 C           4.5238    0.9210    1.1660 C.ar    1  UNL1       -0.0356
     21 C          -0.8399    0.6203    0.5208 C.ar    1  UNL1       -0.0211
     22 C          -2.1377    0.6386    0.0936 C.ar    1  UNL1        0.0725
     23 C          -2.9073    1.8694    0.1520 C.ar    1  UNL1        0.0004
     24 C          -4.2325    1.8939   -0.2828 C.ar    1  UNL1       -0.0515
     25 C          -5.0091    3.0121   -0.2554 C.ar    1  UNL1       -0.0471
     26 C          -4.4930    4.1931    0.2182 C.ar    1  UNL1        0.0179
     27 BR         -5.5548    5.7834    0.2713 Br      1  UNL1       -0.0503
     28 C          -3.1894    4.2343    0.6626 C.ar    1  UNL1       -0.0471
     29 C          -2.4167    3.0611    0.6199 C.ar    1  UNL1       -0.0515
     30 N          -2.6450   -0.5106   -0.3690 N.ar    1  UNL1       -0.2464
     31 C          -1.9517   -1.6681   -0.4341 C.ar    1  UNL1        0.0754
     32 H          -4.6250   -2.7069   -0.5190 H       1  UNL1        0.0278
     33 H          -4.1247   -1.9751   -2.1433 H       1  UNL1        0.0278
     34 H          -4.1866   -3.7330   -1.9053 H       1  UNL1        0.0278
     35 H          -2.3115   -4.8750   -1.3735 H       1  UNL1        0.0635
     36 H           1.0800   -2.9127    0.2568 H       1  UNL1        0.0639
     37 H           3.5530   -0.9363    2.5539 H       1  UNL1        0.0749
     38 H           4.0970   -2.3225    1.5000 H       1  UNL1        0.0749
     39 H           4.6825   -1.6657   -0.9654 H       1  UNL1        0.0622
     40 H           5.9781   -0.0195   -2.2796 H       1  UNL1        0.0633
     41 H           4.1663    1.2696    2.1429 H       1  UNL1        0.0636
     42 H          -0.3540    1.4999    0.9074 H       1  UNL1        0.0647
     43 H          -4.6326    0.9581   -0.6551 H       1  UNL1        0.0624
     44 H          -6.0442    3.0372   -0.5935 H       1  UNL1        0.0629
     45 H          -2.7678    5.1432    1.0352 H       1  UNL1        0.0629
     46 H          -1.4014    3.1402    0.9780 H       1  UNL1        0.0624
@<TRIPOS>BOND
     1     1     2    1
     2     2     3   ar
     3     3     4   ar
     4     4     5    1
     5     4     6   ar
     6     6     7   ar
     7     7     8   ar
     8     8     9    1
     9     9    10    2
    10     9    11    1
    11    11    12    1
    12    12    13    1
    13    13    14   ar
    14    14    15   ar
    15    15    16   ar
    16    16    17    1
    17    16    18   ar
    18    18    19    1
    19    18    20   ar
    20     8    21   ar
    21    21    22   ar
    22    22    23    1
    23    23    24   ar
    24    24    25   ar
    25    25    26   ar
    26    26    27    1
    27    26    28   ar
    28    28    29   ar
    29    22    30   ar
    30    30    31   ar
    31    31     2   ar
    32    31     7   ar
    33    20    13   ar
    34    29    23   ar
    35     1    32    1
    36     1    33    1
    37     1    34    1
    38     3    35    1
    39     6    36    1
    40    12    37    1
    41    12    38    1
    42    14    39    1
    43    15    40    1
    44    20    41    1
    45    21    42    1
    46    24    43    1
    47    25    44    1
    48    28    45    1
    49    29    46    1
