
     RDKit          3D

 46 49  0  0  0  0  0  0  0  0999 V2000
   -3.9569   -2.7651   -1.3819 C   0  0  0  0  0  0  0  0  0  0  0  0
   -2.5541   -2.8137   -0.9274 C   0  0  0  0  0  0  0  0  0  0  0  0
   -1.8183   -3.9743   -0.9792 C   0  0  0  0  0  0  0  0  0  0  0  0
   -0.5117   -4.0196   -0.5558 C   0  0  0  0  0  0  0  0  0  0  0  0
    0.3965   -5.5070   -0.6338 Cl  0  0  0  0  0  0  0  0  0  0  0  0
    0.0653   -2.8524   -0.0655 C   0  0  0  0  0  0  0  0  0  0  0  0
   -0.6172   -1.6685    0.0100 C   0  0  0  0  0  0  0  0  0  0  0  0
   -0.0347   -0.5249    0.4961 C   0  0  0  0  0  0  0  0  0  0  0  0
    1.3378   -0.4891    0.9621 C   0  0  0  0  0  0  0  0  0  0  0  0
    1.7163    0.6715    1.3847 O   0  0  0  0  0  0  0  0  0  0  0  0
    2.2593   -1.4484    1.0237 O   0  0  0  0  0  0  0  0  0  0  0  0
    3.5633   -1.3319    1.4863 C   0  0  0  0  0  0  0  0  0  0  0  0
    4.3075   -0.3441    0.6843 C   0  0  0  0  0  0  0  0  0  0  0  0
    4.8433   -0.6564   -0.5603 C   0  0  0  0  0  0  0  0  0  0  0  0
    5.5670    0.2502   -1.3035 C   0  0  0  0  0  0  0  0  0  0  0  0
    5.7658    1.5116   -0.7931 C   0  0  0  0  0  0  0  0  0  0  0  0
    6.6797    2.7250   -1.6845 Cl  0  0  0  0  0  0  0  0  0  0  0  0
    5.2528    1.8424    0.4221 C   0  0  0  0  0  0  0  0  0  0  0  0
    5.4827    3.4445    1.1132 Cl  0  0  0  0  0  0  0  0  0  0  0  0
    4.5238    0.9210    1.1660 C   0  0  0  0  0  0  0  0  0  0  0  0
   -0.8399    0.6203    0.5208 C   0  0  0  0  0  0  0  0  0  0  0  0
   -2.1377    0.6386    0.0936 C   0  0  0  0  0  0  0  0  0  0  0  0
   -2.9073    1.8694    0.1520 C   0  0  0  0  0  0  0  0  0  0  0  0
   -4.2325    1.8939   -0.2828 C   0  0  0  0  0  0  0  0  0  0  0  0
   -5.0091    3.0121   -0.2554 C   0  0  0  0  0  0  0  0  0  0  0  0
   -4.4930    4.1931    0.2182 C   0  0  0  0  0  0  0  0  0  0  0  0
   -5.5548    5.7834    0.2713 Br  0  0  0  0  0  0  0  0  0  0  0  0
   -3.1894    4.2343    0.6626 C   0  0  0  0  0  0  0  0  0  0  0  0
   -2.4167    3.0611    0.6199 C   0  0  0  0  0  0  0  0  0  0  0  0
   -2.6450   -0.5106   -0.3690 N   0  0  0  0  0  0  0  0  0  0  0  0
   -1.9517   -1.6681   -0.4341 C   0  0  0  0  0  0  0  0  0  0  0  0
   -4.6250   -2.7069   -0.5190 H   0  0  0  0  0  0  0  0  0  0  0  0
   -4.1247   -1.9751   -2.1433 H   0  0  0  0  0  0  0  0  0  0  0  0
   -4.1866   -3.7330   -1.9053 H   0  0  0  0  0  0  0  0  0  0  0  0
   -2.3115   -4.8750   -1.3735 H   0  0  0  0  0  0  0  0  0  0  0  0
    1.0800   -2.9127    0.2568 H   0  0  0  0  0  0  0  0  0  0  0  0
    3.5530   -0.9363    2.5539 H   0  0  0  0  0  0  0  0  0  0  0  0
    4.0970   -2.3225    1.5000 H   0  0  0  0  0  0  0  0  0  0  0  0
    4.6825   -1.6657   -0.9654 H   0  0  0  0  0  0  0  0  0  0  0  0
    5.9781   -0.0195   -2.2796 H   0  0  0  0  0  0  0  0  0  0  0  0
    4.1663    1.2696    2.1429 H   0  0  0  0  0  0  0  0  0  0  0  0
   -0.3540    1.4999    0.9074 H   0  0  0  0  0  0  0  0  0  0  0  0
   -4.6326    0.9581   -0.6551 H   0  0  0  0  0  0  0  0  0  0  0  0
   -6.0442    3.0372   -0.5935 H   0  0  0  0  0  0  0  0  0  0  0  0
   -2.7678    5.1432    1.0352 H   0  0  0  0  0  0  0  0  0  0  0  0
   -1.4014    3.1402    0.9780 H   0  0  0  0  0  0  0  0  0  0  0  0
  1  2  1  0
  2  3  2  0
  3  4  1  0
  4  5  1  0
  4  6  2  0
  6  7  1  0
  7  8  2  0
  8  9  1  0
  9 10  2  0
  9 11  1  0
 11 12  1  0
 12 13  1  0
 13 14  2  0
 14 15  1  0
 15 16  2  0
 16 17  1  0
 16 18  1  0
 18 19  1  0
 18 20  2  0
  8 21  1  0
 21 22  2  0
 22 23  1  0
 23 24  2  0
 24 25  1  0
 25 26  2  0
 26 27  1  0
 26 28  1  0
 28 29  2  0
 22 30  1  0
 30 31  2  0
 31  2  1  0
 31  7  1  0
 20 13  1  0
 29 23  1  0
  1 32  1  0
  1 33  1  0
  1 34  1  0
  3 35  1  0
  6 36  1  0
 12 37  1  0
 12 38  1  0
 14 39  1  0
 15 40  1  0
 20 41  1  0
 21 42  1  0
 24 43  1  0
 25 44  1  0
 28 45  1  0
 29 46  1  0
M  END
$$$$
