@<TRIPOS>MOLECULE
*****
 47 50 0 0 0
SMALL
GASTEIGER

@<TRIPOS>ATOM
      1 C          -2.4027   -0.7059   -3.0052 C.3     1  UNL1        0.0124
      2 C          -3.6325   -0.8866   -2.1821 C.2     1  UNL1        0.2128
      3 O          -4.7381   -0.6942   -2.7988 O.2     1  UNL1       -0.2759
      4 N          -3.5989   -1.2434   -0.8212 N.am    1  UNL1       -0.2968
      5 C          -4.8256   -1.3996   -0.0940 C.3     1  UNL1        0.0204
      6 C          -4.9170   -0.3683    1.0030 C.3     1  UNL1        0.0055
      7 C          -3.5764   -0.1112    1.5847 C.ar    1  UNL1        0.0469
      8 C          -2.3886   -0.5971    1.0798 C.ar    1  UNL1        0.0325
      9 C          -1.3376   -0.1734    1.8490 C.ar    1  UNL1        0.1508
     10 N           0.0297   -0.4550    1.6681 N.pl3   1  UNL1       -0.2827
     11 C           0.8914    0.3114    0.8479 C.ar    1  UNL1        0.1245
     12 C           2.2188   -0.0137    0.7235 C.ar    1  UNL1       -0.0137
     13 C           3.1003    0.6837   -0.0563 C.ar    1  UNL1       -0.0103
     14 C           4.5053    0.3435   -0.1934 C.ar    1  UNL1        0.0197
     15 C           5.3419   -0.2285    0.7451 C.ar    1  UNL1        0.0571
     16 N           6.5563   -0.3567    0.1617 N.ar    1  UNL1       -0.1793
     17 N           6.5413    0.0879   -1.0588 N.ar    1  UNL1       -0.2739
     18 C           7.6697    0.1002   -1.9676 C.3     1  UNL1        0.0302
     19 C           5.2960    0.5292   -1.3186 C.ar    1  UNL1        0.0329
     20 C           2.5704    1.7788   -0.7434 C.ar    1  UNL1       -0.0356
     21 C           1.2601    2.1165   -0.6333 C.ar    1  UNL1        0.0303
     22 N           0.4560    1.3847    0.1512 N.ar    1  UNL1       -0.2401
     23 N          -1.8797    0.5633    2.8131 N.ar    1  UNL1       -0.1556
     24 N          -3.1972    0.6170    2.6824 N.ar    1  UNL1       -0.2692
     25 C          -4.1373    1.3273    3.5476 C.3     1  UNL1        0.0306
     26 C          -2.3564   -1.4567   -0.1416 C.3     1  UNL1        0.0447
     27 H          -1.6558   -1.4821   -2.8014 H       1  UNL1        0.0323
     28 H          -1.9499    0.3046   -2.7886 H       1  UNL1        0.0323
     29 H          -2.6745   -0.7850   -4.0681 H       1  UNL1        0.0323
     30 H          -5.7105   -1.3416   -0.7708 H       1  UNL1        0.0468
     31 H          -4.8597   -2.4476    0.3137 H       1  UNL1        0.0468
     32 H          -5.6154   -0.8082    1.7654 H       1  UNL1        0.0343
     33 H          -5.4140    0.5640    0.6667 H       1  UNL1        0.0343
     34 H           0.4860   -1.2900    2.1617 H       1  UNL1        0.1550
     35 H           2.6351   -0.8758    1.2656 H       1  UNL1        0.0658
     36 H           5.0933   -0.5192    1.7426 H       1  UNL1        0.0854
     37 H           7.3565    0.4951   -2.9772 H       1  UNL1        0.0473
     38 H           8.4925    0.7415   -1.5660 H       1  UNL1        0.0473
     39 H           8.0578   -0.9171   -2.1717 H       1  UNL1        0.0473
     40 H           4.9866    0.9566   -2.2627 H       1  UNL1        0.0832
     41 H           3.2131    2.3625   -1.3701 H       1  UNL1        0.0639
     42 H           0.8927    2.9854   -1.1941 H       1  UNL1        0.0830
     43 H          -3.8039    1.2535    4.5938 H       1  UNL1        0.0473
     44 H          -4.1079    2.3947    3.2516 H       1  UNL1        0.0473
     45 H          -5.1612    0.9624    3.3822 H       1  UNL1        0.0473
     46 H          -1.5104   -1.1814   -0.8049 H       1  UNL1        0.0515
     47 H          -2.1997   -2.5256    0.1325 H       1  UNL1        0.0515
@<TRIPOS>BOND
     1     1     2    1
     2     2     3    2
     3     2     4   am
     4     4     5    1
     5     5     6    1
     6     6     7    1
     7     7     8   ar
     8     8     9   ar
     9     9    10    1
    10    10    11    1
    11    11    12   ar
    12    12    13   ar
    13    13    14    1
    14    14    15   ar
    15    15    16   ar
    16    16    17   ar
    17    17    18    1
    18    17    19   ar
    19    13    20   ar
    20    20    21   ar
    21    21    22   ar
    22     9    23   ar
    23    23    24   ar
    24    24    25    1
    25     8    26    1
    26    26     4    1
    27    24     7   ar
    28    22    11   ar
    29    19    14   ar
    30     1    27    1
    31     1    28    1
    32     1    29    1
    33     5    30    1
    34     5    31    1
    35     6    32    1
    36     6    33    1
    37    10    34    1
    38    12    35    1
    39    15    36    1
    40    18    37    1
    41    18    38    1
    42    18    39    1
    43    19    40    1
    44    20    41    1
    45    21    42    1
    46    25    43    1
    47    25    44    1
    48    25    45    1
    49    26    46    1
    50    26    47    1
