
     RDKit          3D

 47 50  0  0  0  0  0  0  0  0999 V2000
   -2.4027   -0.7059   -3.0052 C   0  0  0  0  0  0  0  0  0  0  0  0
   -3.6325   -0.8866   -2.1821 C   0  0  0  0  0  0  0  0  0  0  0  0
   -4.7381   -0.6942   -2.7988 O   0  0  0  0  0  0  0  0  0  0  0  0
   -3.5989   -1.2434   -0.8212 N   0  0  0  0  0  0  0  0  0  0  0  0
   -4.8256   -1.3996   -0.0940 C   0  0  0  0  0  0  0  0  0  0  0  0
   -4.9170   -0.3683    1.0030 C   0  0  0  0  0  0  0  0  0  0  0  0
   -3.5764   -0.1112    1.5847 C   0  0  0  0  0  0  0  0  0  0  0  0
   -2.3886   -0.5971    1.0798 C   0  0  0  0  0  0  0  0  0  0  0  0
   -1.3376   -0.1734    1.8490 C   0  0  0  0  0  0  0  0  0  0  0  0
    0.0297   -0.4550    1.6681 N   0  0  0  0  0  0  0  0  0  0  0  0
    0.8914    0.3114    0.8479 C   0  0  0  0  0  0  0  0  0  0  0  0
    2.2188   -0.0137    0.7235 C   0  0  0  0  0  0  0  0  0  0  0  0
    3.1003    0.6837   -0.0563 C   0  0  0  0  0  0  0  0  0  0  0  0
    4.5053    0.3435   -0.1934 C   0  0  0  0  0  0  0  0  0  0  0  0
    5.3419   -0.2285    0.7451 C   0  0  0  0  0  0  0  0  0  0  0  0
    6.5563   -0.3567    0.1617 N   0  0  0  0  0  0  0  0  0  0  0  0
    6.5413    0.0879   -1.0588 N   0  0  0  0  0  0  0  0  0  0  0  0
    7.6697    0.1002   -1.9676 C   0  0  0  0  0  0  0  0  0  0  0  0
    5.2960    0.5292   -1.3186 C   0  0  0  0  0  0  0  0  0  0  0  0
    2.5704    1.7788   -0.7434 C   0  0  0  0  0  0  0  0  0  0  0  0
    1.2601    2.1165   -0.6333 C   0  0  0  0  0  0  0  0  0  0  0  0
    0.4560    1.3847    0.1512 N   0  0  0  0  0  0  0  0  0  0  0  0
   -1.8797    0.5633    2.8131 N   0  0  0  0  0  0  0  0  0  0  0  0
   -3.1972    0.6170    2.6824 N   0  0  0  0  0  0  0  0  0  0  0  0
   -4.1373    1.3273    3.5476 C   0  0  0  0  0  0  0  0  0  0  0  0
   -2.3564   -1.4567   -0.1416 C   0  0  0  0  0  0  0  0  0  0  0  0
   -1.6558   -1.4821   -2.8014 H   0  0  0  0  0  0  0  0  0  0  0  0
   -1.9499    0.3046   -2.7886 H   0  0  0  0  0  0  0  0  0  0  0  0
   -2.6745   -0.7850   -4.0681 H   0  0  0  0  0  0  0  0  0  0  0  0
   -5.7105   -1.3416   -0.7708 H   0  0  0  0  0  0  0  0  0  0  0  0
   -4.8597   -2.4476    0.3137 H   0  0  0  0  0  0  0  0  0  0  0  0
   -5.6154   -0.8082    1.7654 H   0  0  0  0  0  0  0  0  0  0  0  0
   -5.4140    0.5640    0.6667 H   0  0  0  0  0  0  0  0  0  0  0  0
    0.4860   -1.2900    2.1617 H   0  0  0  0  0  0  0  0  0  0  0  0
    2.6351   -0.8758    1.2656 H   0  0  0  0  0  0  0  0  0  0  0  0
    5.0933   -0.5192    1.7426 H   0  0  0  0  0  0  0  0  0  0  0  0
    7.3565    0.4951   -2.9772 H   0  0  0  0  0  0  0  0  0  0  0  0
    8.4925    0.7415   -1.5660 H   0  0  0  0  0  0  0  0  0  0  0  0
    8.0578   -0.9171   -2.1717 H   0  0  0  0  0  0  0  0  0  0  0  0
    4.9866    0.9566   -2.2627 H   0  0  0  0  0  0  0  0  0  0  0  0
    3.2131    2.3625   -1.3701 H   0  0  0  0  0  0  0  0  0  0  0  0
    0.8927    2.9854   -1.1941 H   0  0  0  0  0  0  0  0  0  0  0  0
   -3.8039    1.2535    4.5938 H   0  0  0  0  0  0  0  0  0  0  0  0
   -4.1079    2.3947    3.2516 H   0  0  0  0  0  0  0  0  0  0  0  0
   -5.1612    0.9624    3.3822 H   0  0  0  0  0  0  0  0  0  0  0  0
   -1.5104   -1.1814   -0.8049 H   0  0  0  0  0  0  0  0  0  0  0  0
   -2.1997   -2.5256    0.1325 H   0  0  0  0  0  0  0  0  0  0  0  0
  1  2  1  0
  2  3  2  0
  2  4  1  0
  4  5  1  0
  5  6  1  0
  6  7  1  0
  7  8  2  0
  8  9  1  0
  9 10  1  0
 10 11  1  0
 11 12  2  0
 12 13  1  0
 13 14  1  0
 14 15  1  0
 15 16  2  0
 16 17  1  0
 17 18  1  0
 17 19  1  0
 13 20  2  0
 20 21  1  0
 21 22  2  0
  9 23  2  0
 23 24  1  0
 24 25  1  0
  8 26  1  0
 26  4  1  0
 24  7  1  0
 22 11  1  0
 19 14  2  0
  1 27  1  0
  1 28  1  0
  1 29  1  0
  5 30  1  0
  5 31  1  0
  6 32  1  0
  6 33  1  0
 10 34  1  0
 12 35  1  0
 15 36  1  0
 18 37  1  0
 18 38  1  0
 18 39  1  0
 19 40  1  0
 20 41  1  0
 21 42  1  0
 25 43  1  0
 25 44  1  0
 25 45  1  0
 26 46  1  0
 26 47  1  0
M  END
$$$$
