@<TRIPOS>MOLECULE
*****
 53 56 0 0 0
SMALL
GASTEIGER

@<TRIPOS>ATOM
      1 C          -4.8253    2.4785   -0.1743 C.3     1  UNL1       -0.0359
      2 C          -4.1943    1.1529   -0.5068 C.ar    1  UNL1       -0.0007
      3 C          -4.8741   -0.0437   -0.6264 C.ar    1  UNL1        0.0958
      4 C          -6.2985   -0.3200   -0.4738 C.ar    1  UNL1        0.0052
      5 C          -7.0045    0.2073    0.5864 C.ar    1  UNL1       -0.0343
      6 C          -8.3518   -0.1077    0.6520 C.ar    1  UNL1        0.0282
      7 N          -8.9382   -0.8800   -0.2611 N.ar    1  UNL1       -0.2632
      8 C          -8.2695   -1.4148   -1.3175 C.ar    1  UNL1        0.0282
      9 C          -6.9251   -1.1257   -1.4204 C.ar    1  UNL1       -0.0343
     10 N          -3.9306   -0.9535   -0.9286 N.ar    1  UNL1       -0.1733
     11 N          -2.7357   -0.3942   -0.9999 N.ar    1  UNL1       -0.2792
     12 C          -2.8649    0.9171   -0.7423 C.ar    1  UNL1        0.0565
     13 C          -1.8141    1.9713   -0.7125 C.3     1  UNL1        0.0512
     14 N          -0.5060    1.4542   -0.9412 N.pl3   1  UNL1       -0.3382
     15 C           0.1463    0.5395   -0.0541 C.ar    1  UNL1        0.0281
     16 C          -0.4367    0.1078    1.1133 C.ar    1  UNL1       -0.0408
     17 C           0.2289   -0.7773    1.9315 C.ar    1  UNL1       -0.0593
     18 C           1.4798   -1.2473    1.6058 C.ar    1  UNL1       -0.0495
     19 C           2.0897   -0.8187    0.4203 C.ar    1  UNL1        0.0384
     20 C           3.4156   -1.3582    0.1295 C.2     1  UNL1        0.2444
     21 O           3.9505   -2.1352    0.9585 O.2     1  UNL1       -0.2702
     22 N           4.1416   -1.0597   -1.0359 N.am    1  UNL1       -0.3072
     23 C           5.4522   -1.5789   -1.3411 C.3     1  UNL1        0.0371
     24 C           6.4747   -0.8387   -0.5898 C.ar    1  UNL1       -0.0303
     25 C           6.9891    0.3553   -1.0965 C.ar    1  UNL1       -0.0571
     26 C           7.9480    1.0706   -0.4469 C.ar    1  UNL1       -0.0615
     27 C           8.4233    0.5929    0.7532 C.ar    1  UNL1       -0.0617
     28 C           7.9313   -0.5712    1.2611 C.ar    1  UNL1       -0.0615
     29 C           6.9496   -1.3043    0.5962 C.ar    1  UNL1       -0.0571
     30 C           1.4138    0.0650   -0.3862 C.ar    1  UNL1       -0.0287
     31 H          -5.8449    2.5490   -0.6256 H       1  UNL1        0.0279
     32 H          -4.8024    2.6849    0.8933 H       1  UNL1        0.0279
     33 H          -4.2240    3.2808   -0.6734 H       1  UNL1        0.0279
     34 H          -6.5457    0.8385    1.3408 H       1  UNL1        0.0639
     35 H          -8.9047    0.3194    1.5025 H       1  UNL1        0.0830
     36 H          -8.7296   -2.0356   -2.0561 H       1  UNL1        0.0830
     37 H          -6.3457   -1.5348   -2.2558 H       1  UNL1        0.0639
     38 H          -1.8121   -0.8629   -1.2210 H       1  UNL1        0.1886
     39 H          -2.0812    2.7481   -1.4354 H       1  UNL1        0.0526
     40 H          -1.8050    2.4776    0.2932 H       1  UNL1        0.0526
     41 H           0.0019    1.7655   -1.8105 H       1  UNL1        0.1465
     42 H          -1.4213    0.4796    1.3657 H       1  UNL1        0.0636
     43 H          -0.2221   -1.1299    2.8657 H       1  UNL1        0.0618
     44 H           1.9730   -1.9413    2.2715 H       1  UNL1        0.0625
     45 H           3.6738   -0.4089   -1.7175 H       1  UNL1        0.1493
     46 H           5.6538   -1.6051   -2.4318 H       1  UNL1        0.0512
     47 H           5.4907   -2.6555   -1.0120 H       1  UNL1        0.0512
     48 H           6.5659    0.6771   -2.0573 H       1  UNL1        0.0621
     49 H           8.3101    1.9969   -0.8938 H       1  UNL1        0.0618
     50 H           9.1957    1.1751    1.2691 H       1  UNL1        0.0618
     51 H           8.2880   -0.9747    2.2092 H       1  UNL1        0.0618
     52 H           6.6223   -2.2167    1.0595 H       1  UNL1        0.0621
     53 H           1.8988    0.3895   -1.3012 H       1  UNL1        0.0643
@<TRIPOS>BOND
     1     1     2    1
     2     2     3   ar
     3     3     4    1
     4     4     5   ar
     5     5     6   ar
     6     6     7   ar
     7     7     8   ar
     8     8     9   ar
     9     3    10   ar
    10    10    11   ar
    11    11    12   ar
    12    12    13    1
    13    13    14    1
    14    14    15    1
    15    15    16   ar
    16    16    17   ar
    17    17    18   ar
    18    18    19   ar
    19    19    20    1
    20    20    21    2
    21    20    22   am
    22    22    23    1
    23    23    24    1
    24    24    25   ar
    25    25    26   ar
    26    26    27   ar
    27    27    28   ar
    28    28    29   ar
    29    19    30   ar
    30    12     2   ar
    31    30    15   ar
    32     9     4   ar
    33    29    24   ar
    34     1    31    1
    35     1    32    1
    36     1    33    1
    37     5    34    1
    38     6    35    1
    39     8    36    1
    40     9    37    1
    41    11    38    1
    42    13    39    1
    43    13    40    1
    44    14    41    1
    45    16    42    1
    46    17    43    1
    47    18    44    1
    48    22    45    1
    49    23    46    1
    50    23    47    1
    51    25    48    1
    52    26    49    1
    53    27    50    1
    54    28    51    1
    55    29    52    1
    56    30    53    1
