
     RDKit          3D

 61 65  0  0  0  0  0  0  0  0999 V2000
   -8.9305    2.7930   -1.6494 C   0  0  0  0  0  0  0  0  0  0  0  0
   -7.8716    1.9781   -0.9878 C   0  0  0  0  0  0  0  0  0  0  0  0
   -8.2494    0.9754   -0.1779 N   0  0  0  0  0  0  0  0  0  0  0  0
   -7.3237    0.2239    0.4336 C   0  0  0  0  0  0  0  0  0  0  0  0
   -7.7554   -0.7936    1.2566 C   0  0  0  0  0  0  0  0  0  0  0  0
   -6.8601   -1.5983    1.9123 C   0  0  0  0  0  0  0  0  0  0  0  0
   -5.5131   -1.3524    1.7179 C   0  0  0  0  0  0  0  0  0  0  0  0
   -4.5927   -2.1667    2.3795 C   0  0  0  0  0  0  0  0  0  0  0  0
   -3.2474   -1.9446    2.2025 C   0  0  0  0  0  0  0  0  0  0  0  0
   -2.7748   -0.9463    1.3949 C   0  0  0  0  0  0  0  0  0  0  0  0
   -1.3441   -0.6800    1.1787 C   0  0  0  0  0  0  0  0  0  0  0  0
   -0.8836   -1.4399    0.0511 N   0  0  0  0  0  0  0  0  0  0  0  0
    0.4833   -1.4279   -0.3813 C   0  0  0  0  0  0  0  0  0  0  0  0
    0.8975   -2.1639   -1.4688 C   0  0  0  0  0  0  0  0  0  0  0  0
    2.2202   -2.1731   -1.8984 C   0  0  0  0  0  0  0  0  0  0  0  0
    3.1658   -1.4189   -1.2167 C   0  0  0  0  0  0  0  0  0  0  0  0
    2.7644   -0.6782   -0.1283 C   0  0  0  0  0  0  0  0  0  0  0  0
    1.4406   -0.6801    0.2873 C   0  0  0  0  0  0  0  0  0  0  0  0
    3.9574    0.0498    0.4279 C   0  0  0  0  0  0  0  0  0  0  0  0
    5.0413   -0.3659   -0.3973 N   0  0  0  0  0  0  0  0  0  0  0  0
    6.4325    0.0904   -0.2163 C   0  0  1  0  0  0  0  0  0  0  0  0
    6.4162    1.5691   -0.3889 C   0  0  0  0  0  0  0  0  0  0  0  0
    7.7629    2.1846   -0.2271 C   0  0  0  0  0  0  0  0  0  0  0  0
    8.7711    1.7014   -1.1829 C   0  0  0  0  0  0  0  0  0  0  0  0
    9.9741    2.0966   -1.0265 O   0  0  0  0  0  0  0  0  0  0  0  0
    8.5010    0.8572   -2.2280 O   0  0  0  0  0  0  0  0  0  0  0  0
    6.9524   -0.3879    1.0848 C   0  0  0  0  0  0  0  0  0  0  0  0
    8.1110   -0.1559    1.5084 O   0  0  0  0  0  0  0  0  0  0  0  0
    6.1443   -1.1456    1.9213 O   0  0  0  0  0  0  0  0  0  0  0  0
    4.5969   -1.2467   -1.4191 C   0  0  0  0  0  0  0  0  0  0  0  0
    5.3236   -1.7723   -2.3258 O   0  0  0  0  0  0  0  0  0  0  0  0
   -3.7014   -0.1210    0.7245 C   0  0  0  0  0  0  0  0  0  0  0  0
   -5.0418   -0.3388    0.8982 C   0  0  0  0  0  0  0  0  0  0  0  0
   -5.9528    0.4827    0.2292 C   0  0  0  0  0  0  0  0  0  0  0  0
   -5.5761    1.5070   -0.5981 C   0  0  0  0  0  0  0  0  0  0  0  0
   -4.3951    1.7970   -0.8284 O   0  0  0  0  0  0  0  0  0  0  0  0
   -6.5712    2.2278   -1.1851 N   0  0  0  0  0  0  0  0  0  0  0  0
   -8.9834    3.8145   -1.1722 H   0  0  0  0  0  0  0  0  0  0  0  0
   -9.9245    2.3379   -1.5525 H   0  0  0  0  0  0  0  0  0  0  0  0
   -8.6137    2.9511   -2.6968 H   0  0  0  0  0  0  0  0  0  0  0  0
   -8.8151   -0.9841    1.4070 H   0  0  0  0  0  0  0  0  0  0  0  0
   -7.1783   -2.4005    2.5606 H   0  0  0  0  0  0  0  0  0  0  0  0
   -4.9410   -2.9671    3.0277 H   0  0  0  0  0  0  0  0  0  0  0  0
   -2.5341   -2.5847    2.7221 H   0  0  0  0  0  0  0  0  0  0  0  0
   -0.7334   -0.9186    2.0924 H   0  0  0  0  0  0  0  0  0  0  0  0
   -1.2023    0.4105    1.0263 H   0  0  0  0  0  0  0  0  0  0  0  0
   -1.5591   -2.0237   -0.4792 H   0  0  0  0  0  0  0  0  0  0  0  0
    0.1682   -2.7632   -2.0189 H   0  0  0  0  0  0  0  0  0  0  0  0
    2.5414   -2.7516   -2.7511 H   0  0  0  0  0  0  0  0  0  0  0  0
    1.1003   -0.1087    1.1376 H   0  0  0  0  0  0  0  0  0  0  0  0
    3.7893    1.1468    0.4054 H   0  0  0  0  0  0  0  0  0  0  0  0
    4.1141   -0.2774    1.4646 H   0  0  0  0  0  0  0  0  0  0  0  0
    7.0036   -0.3790   -1.0580 H   0  0  0  0  0  0  0  0  0  0  0  0
    5.7576    2.0562    0.3935 H   0  0  0  0  0  0  0  0  0  0  0  0
    5.9893    1.8873   -1.3662 H   0  0  0  0  0  0  0  0  0  0  0  0
    7.6666    3.3111   -0.3462 H   0  0  0  0  0  0  0  0  0  0  0  0
    8.1152    1.9935    0.8274 H   0  0  0  0  0  0  0  0  0  0  0  0
    9.2410    0.2208   -2.5189 H   0  0  0  0  0  0  0  0  0  0  0  0
    6.2524   -1.1615    2.9373 H   0  0  0  0  0  0  0  0  0  0  0  0
   -3.3265    0.6500    0.1004 H   0  0  0  0  0  0  0  0  0  0  0  0
   -6.2992    3.0045   -1.8123 H   0  0  0  0  0  0  0  0  0  0  0  0
  1  2  1  0
  2  3  2  0
  3  4  1  0
  4  5  2  0
  5  6  1  0
  6  7  2  0
  7  8  1  0
  8  9  2  0
  9 10  1  0
 10 11  1  0
 11 12  1  0
 12 13  1  0
 13 14  2  0
 14 15  1  0
 15 16  2  0
 16 17  1  0
 17 18  2  0
 17 19  1  0
 19 20  1  0
 20 21  1  0
 21 22  1  0
 22 23  1  0
 23 24  1  0
 24 25  2  0
 24 26  1  0
 21 27  1  0
 27 28  2  0
 27 29  1  0
 20 30  1  0
 30 31  2  0
 10 32  2  0
 32 33  1  0
 33 34  2  0
 34 35  1  0
 35 36  2  0
 35 37  1  0
 37  2  1  0
 34  4  1  0
 33  7  1  0
 18 13  1  0
 30 16  1  0
  1 38  1  0
  1 39  1  0
  1 40  1  0
  5 41  1  0
  6 42  1  0
  8 43  1  0
  9 44  1  0
 11 45  1  0
 11 46  1  0
 12 47  1  0
 14 48  1  0
 15 49  1  0
 18 50  1  0
 19 51  1  0
 19 52  1  0
 21 53  1  6
 22 54  1  0
 22 55  1  0
 23 56  1  0
 23 57  1  0
 26 58  1  0
 29 59  1  0
 32 60  1  0
 37 61  1  0
M  END
$$$$
