@<TRIPOS>MOLECULE
*****
 61 65 0 0 0
SMALL
GASTEIGER

@<TRIPOS>ATOM
      1 C          -8.9305    2.7930   -1.6494 C.3     1  UNL1       -0.0064
      2 C          -7.8716    1.9781   -0.9878 C.ar    1  UNL1        0.1072
      3 N          -8.2494    0.9754   -0.1779 N.ar    1  UNL1       -0.2340
      4 C          -7.3237    0.2239    0.4336 C.ar    1  UNL1        0.0787
      5 C          -7.7554   -0.7936    1.2566 C.ar    1  UNL1       -0.0349
      6 C          -6.8601   -1.5983    1.9123 C.ar    1  UNL1       -0.0520
      7 C          -5.5131   -1.3524    1.7179 C.ar    1  UNL1       -0.0170
      8 C          -4.5927   -2.1667    2.3795 C.ar    1  UNL1       -0.0537
      9 C          -3.2474   -1.9446    2.2025 C.ar    1  UNL1       -0.0565
     10 C          -2.7748   -0.9463    1.3949 C.ar    1  UNL1       -0.0298
     11 C          -1.3441   -0.6800    1.1787 C.3     1  UNL1        0.0344
     12 N          -0.8836   -1.4399    0.0511 N.pl3   1  UNL1       -0.3397
     13 C           0.4833   -1.4279   -0.3813 C.ar    1  UNL1        0.0277
     14 C           0.8975   -2.1639   -1.4688 C.ar    1  UNL1       -0.0401
     15 C           2.2202   -2.1731   -1.8984 C.ar    1  UNL1       -0.0476
     16 C           3.1658   -1.4189   -1.2167 C.ar    1  UNL1        0.0417
     17 C           2.7644   -0.6782   -0.1283 C.ar    1  UNL1       -0.0162
     18 C           1.4406   -0.6801    0.2873 C.ar    1  UNL1       -0.0354
     19 C           3.9574    0.0498    0.4279 C.3     1  UNL1        0.0416
     20 N           5.0413   -0.3659   -0.3973 N.am    1  UNL1       -0.2797
     21 C           6.4325    0.0904   -0.2163 C.3     1  UNL1        0.1239
     22 C           6.4162    1.5691   -0.3889 C.3     1  UNL1       -0.0138
     23 C           7.7629    2.1846   -0.2271 C.3     1  UNL1        0.0470
     24 C           8.7711    1.7014   -1.1829 C.2     1  UNL1        0.3048
     25 O           9.9741    2.0966   -1.0265 O.2     1  UNL1       -0.2510
     26 O           8.5010    0.8572   -2.2280 O.3     1  UNL1       -0.4806
     27 C           6.9524   -0.3879    1.0848 C.2     1  UNL1        0.3255
     28 O           8.1110   -0.1559    1.5084 O.2     1  UNL1       -0.2489
     29 O           6.1443   -1.1456    1.9213 O.3     1  UNL1       -0.4793
     30 C           4.5969   -1.2467   -1.4191 C.2     1  UNL1        0.2479
     31 O           5.3236   -1.7723   -2.3258 O.2     1  UNL1       -0.2699
     32 C          -3.7014   -0.1210    0.7245 C.ar    1  UNL1       -0.0486
     33 C          -5.0418   -0.3388    0.8982 C.ar    1  UNL1       -0.0032
     34 C          -5.9528    0.4827    0.2292 C.ar    1  UNL1        0.0724
     35 C          -5.5761    1.5070   -0.5981 C.ar    1  UNL1        0.2598
     36 O          -4.3951    1.7970   -0.8284 O.2     1  UNL1       -0.2671
     37 N          -6.5712    2.2278   -1.1851 N.ar    1  UNL1       -0.3106
     38 H          -8.9834    3.8145   -1.1722 H       1  UNL1        0.0307
     39 H          -9.9245    2.3379   -1.5525 H       1  UNL1        0.0307
     40 H          -8.6137    2.9511   -2.6968 H       1  UNL1        0.0307
     41 H          -8.8151   -0.9841    1.4070 H       1  UNL1        0.0639
     42 H          -7.1783   -2.4005    2.5606 H       1  UNL1        0.0624
     43 H          -4.9410   -2.9671    3.0277 H       1  UNL1        0.0624
     44 H          -2.5341   -2.5847    2.7221 H       1  UNL1        0.0621
     45 H          -0.7334   -0.9186    2.0924 H       1  UNL1        0.0511
     46 H          -1.2023    0.4105    1.0263 H       1  UNL1        0.0511
     47 H          -1.5591   -2.0237   -0.4792 H       1  UNL1        0.1464
     48 H           0.1682   -2.7632   -2.0189 H       1  UNL1        0.0636
     49 H           2.5414   -2.7516   -2.7511 H       1  UNL1        0.0626
     50 H           1.1003   -0.1087    1.1376 H       1  UNL1        0.0639
     51 H           3.7893    1.1468    0.4054 H       1  UNL1        0.0514
     52 H           4.1141   -0.2774    1.4646 H       1  UNL1        0.0514
     53 H           7.0036   -0.3790   -1.0580 H       1  UNL1        0.0617
     54 H           5.7576    2.0562    0.3935 H       1  UNL1        0.0294
     55 H           5.9893    1.8873   -1.3662 H       1  UNL1        0.0294
     56 H           7.6666    3.3111   -0.3462 H       1  UNL1        0.0378
     57 H           8.1152    1.9935    0.8274 H       1  UNL1        0.0378
     58 H           9.2410    0.2208   -2.5189 H       1  UNL1        0.2951
     59 H           6.2524   -1.1615    2.9373 H       1  UNL1        0.2951
     60 H          -3.3265    0.6500    0.1004 H       1  UNL1        0.0627
     61 H          -6.2992    3.0045   -1.8123 H       1  UNL1        0.1700
@<TRIPOS>BOND
     1     1     2    1
     2     2     3   ar
     3     3     4   ar
     4     4     5   ar
     5     5     6   ar
     6     6     7   ar
     7     7     8   ar
     8     8     9   ar
     9     9    10   ar
    10    10    11    1
    11    11    12    1
    12    12    13    1
    13    13    14   ar
    14    14    15   ar
    15    15    16   ar
    16    16    17   ar
    17    17    18   ar
    18    17    19    1
    19    19    20    1
    20    20    21    1
    21    21    22    1
    22    22    23    1
    23    23    24    1
    24    24    25    2
    25    24    26    1
    26    21    27    1
    27    27    28    2
    28    27    29    1
    29    20    30   am
    30    30    31    2
    31    10    32   ar
    32    32    33   ar
    33    33    34   ar
    34    34    35   ar
    35    35    36    2
    36    35    37   ar
    37    37     2   ar
    38    34     4   ar
    39    33     7   ar
    40    18    13   ar
    41    30    16    1
    42     1    38    1
    43     1    39    1
    44     1    40    1
    45     5    41    1
    46     6    42    1
    47     8    43    1
    48     9    44    1
    49    11    45    1
    50    11    46    1
    51    12    47    1
    52    14    48    1
    53    15    49    1
    54    18    50    1
    55    19    51    1
    56    19    52    1
    57    21    53    1
    58    22    54    1
    59    22    55    1
    60    23    56    1
    61    23    57    1
    62    26    58    1
    63    29    59    1
    64    32    60    1
    65    37    61    1
