
     RDKit          3D

 69 72  0  0  0  0  0  0  0  0999 V2000
   -1.5562    4.0604    1.1040 C   0  0  0  0  0  0  0  0  0  0  0  0
   -0.5520    2.9956    0.9201 N   0  0  0  0  0  0  0  0  0  0  0  0
   -0.8667    1.6296    1.2530 C   0  0  0  0  0  0  0  0  0  0  0  0
   -1.4716    0.8527    0.1013 C   0  0  0  0  0  0  0  0  0  0  0  0
   -1.7533   -0.5778    0.5959 C   0  0  0  0  0  0  0  0  0  0  0  0
   -2.3153   -1.3467   -0.5303 C   0  0  0  0  0  0  0  0  0  0  0  0
   -3.7895   -1.3947   -0.7091 C   0  0  0  0  0  0  0  0  0  0  0  0
   -4.5277   -1.3116    0.5100 N   0  0  0  0  0  0  0  0  0  0  0  0
   -5.4709   -0.2671    0.6349 C   0  0  0  0  0  0  0  0  0  0  0  0
   -6.7013   -0.5841   -0.1241 C   0  0  0  0  0  0  0  0  0  0  0  0
   -6.9224   -0.2602   -1.4382 C   0  0  0  0  0  0  0  0  0  0  0  0
   -8.0958   -0.5747   -2.1009 C   0  0  0  0  0  0  0  0  0  0  0  0
   -9.0977   -1.2373   -1.4427 C   0  0  0  0  0  0  0  0  0  0  0  0
   -8.9204   -1.5862   -0.1142 C   0  0  0  0  0  0  0  0  0  0  0  0
   -7.7450   -1.2627    0.5233 C   0  0  0  0  0  0  0  0  0  0  0  0
   -3.7131   -1.5900    1.6683 C   0  0  0  0  0  0  0  0  0  0  0  0
   -2.6117   -0.5710    1.8041 C   0  0  0  0  0  0  0  0  0  0  0  0
    0.7116    3.3416    0.4141 C   0  0  0  0  0  0  0  0  0  0  0  0
    0.9245    4.5692    0.1394 O   0  0  0  0  0  0  0  0  0  0  0  0
    1.7494    2.3438    0.2050 C   0  0  0  0  0  0  0  0  0  0  0  0
    2.1384    1.9728   -1.0873 C   0  0  0  0  0  0  0  0  0  0  0  0
    3.1323    1.0360   -1.3032 C   0  0  0  0  0  0  0  0  0  0  0  0
    3.7824    0.4265   -0.2568 C   0  0  0  0  0  0  0  0  0  0  0  0
    5.0456   -0.7545   -0.5200 S   0  0  0  0  0  6  0  0  0  0  0  0
    4.8716   -1.3068   -1.9083 O   0  0  0  0  0  0  0  0  0  0  0  0
    4.9223   -1.8129    0.5186 O   0  0  0  0  0  0  0  0  0  0  0  0
    6.5770    0.1198   -0.4465 C   0  0  0  0  0  0  0  0  0  0  0  0
    7.7691   -0.7109   -0.6404 C   0  0  0  0  0  0  0  0  0  0  0  0
    8.2933   -0.8779   -1.9144 C   0  0  0  0  0  0  0  0  0  0  0  0
    9.4283   -1.6588   -2.1223 C   0  0  0  0  0  0  0  0  0  0  0  0
   10.0553   -2.2830   -1.0683 C   0  0  0  0  0  0  0  0  0  0  0  0
    9.5418   -2.1229    0.1994 C   0  0  0  0  0  0  0  0  0  0  0  0
    8.4035   -1.3383    0.4020 C   0  0  0  0  0  0  0  0  0  0  0  0
    3.4003    0.7913    1.0266 C   0  0  0  0  0  0  0  0  0  0  0  0
    2.4050    1.7307    1.2501 C   0  0  0  0  0  0  0  0  0  0  0  0
   -2.0292    4.2891    0.1289 H   0  0  0  0  0  0  0  0  0  0  0  0
   -1.0955    4.9686    1.5296 H   0  0  0  0  0  0  0  0  0  0  0  0
   -2.3286    3.7057    1.8396 H   0  0  0  0  0  0  0  0  0  0  0  0
    0.1011    1.1031    1.4764 H   0  0  0  0  0  0  0  0  0  0  0  0
   -1.4649    1.5467    2.1744 H   0  0  0  0  0  0  0  0  0  0  0  0
   -0.7668    0.7447   -0.7447 H   0  0  0  0  0  0  0  0  0  0  0  0
   -2.3909    1.3411   -0.2716 H   0  0  0  0  0  0  0  0  0  0  0  0
   -0.7391   -0.9550    0.8909 H   0  0  0  0  0  0  0  0  0  0  0  0
   -1.8197   -1.0377   -1.4866 H   0  0  0  0  0  0  0  0  0  0  0  0
   -1.9751   -2.4227   -0.4092 H   0  0  0  0  0  0  0  0  0  0  0  0
   -4.0671   -0.5467   -1.3618 H   0  0  0  0  0  0  0  0  0  0  0  0
   -4.1307   -2.3245   -1.2421 H   0  0  0  0  0  0  0  0  0  0  0  0
   -5.7744   -0.0888    1.6896 H   0  0  0  0  0  0  0  0  0  0  0  0
   -5.0597    0.6720    0.1754 H   0  0  0  0  0  0  0  0  0  0  0  0
   -6.1530    0.2750   -1.9890 H   0  0  0  0  0  0  0  0  0  0  0  0
   -8.2241   -0.2990   -3.1384 H   0  0  0  0  0  0  0  0  0  0  0  0
  -10.0015   -1.4700   -1.9853 H   0  0  0  0  0  0  0  0  0  0  0  0
   -9.7166   -2.1096    0.3990 H   0  0  0  0  0  0  0  0  0  0  0  0
   -7.5597   -1.5190    1.5718 H   0  0  0  0  0  0  0  0  0  0  0  0
   -4.3678   -1.5162    2.5547 H   0  0  0  0  0  0  0  0  0  0  0  0
   -3.2565   -2.5941    1.6359 H   0  0  0  0  0  0  0  0  0  0  0  0
   -3.0416    0.4383    2.0332 H   0  0  0  0  0  0  0  0  0  0  0  0
   -2.0084   -0.8489    2.6958 H   0  0  0  0  0  0  0  0  0  0  0  0
    1.6214    2.4588   -1.9000 H   0  0  0  0  0  0  0  0  0  0  0  0
    3.4413    0.7417   -2.3105 H   0  0  0  0  0  0  0  0  0  0  0  0
    6.5280    0.9395   -1.1966 H   0  0  0  0  0  0  0  0  0  0  0  0
    6.5783    0.6704    0.5398 H   0  0  0  0  0  0  0  0  0  0  0  0
    7.7928   -0.3843   -2.7390 H   0  0  0  0  0  0  0  0  0  0  0  0
    9.8455   -1.7964   -3.1083 H   0  0  0  0  0  0  0  0  0  0  0  0
   10.9221   -2.8754   -1.2415 H   0  0  0  0  0  0  0  0  0  0  0  0
   10.0017   -2.5930    1.0403 H   0  0  0  0  0  0  0  0  0  0  0  0
    8.0446   -1.2517    1.4239 H   0  0  0  0  0  0  0  0  0  0  0  0
    3.8983    0.3232    1.8512 H   0  0  0  0  0  0  0  0  0  0  0  0
    2.1548    1.9756    2.2905 H   0  0  0  0  0  0  0  0  0  0  0  0
  1  2  1  0
  2  3  1  0
  3  4  1  0
  4  5  1  0
  5  6  1  0
  6  7  1  0
  7  8  1  0
  8  9  1  0
  9 10  1  0
 10 11  2  0
 11 12  1  0
 12 13  2  0
 13 14  1  0
 14 15  2  0
  8 16  1  0
 16 17  1  0
  2 18  1  0
 18 19  2  0
 18 20  1  0
 20 21  2  0
 21 22  1  0
 22 23  2  0
 23 24  1  0
 24 25  2  0
 24 26  2  0
 24 27  1  0
 27 28  1  0
 28 29  2  0
 29 30  1  0
 30 31  2  0
 31 32  1  0
 32 33  2  0
 23 34  1  0
 34 35  2  0
 17  5  1  0
 35 20  1  0
 15 10  1  0
 33 28  1  0
  1 36  1  0
  1 37  1  0
  1 38  1  0
  3 39  1  0
  3 40  1  0
  4 41  1  0
  4 42  1  0
  5 43  1  0
  6 44  1  0
  6 45  1  0
  7 46  1  0
  7 47  1  0
  9 48  1  0
  9 49  1  0
 11 50  1  0
 12 51  1  0
 13 52  1  0
 14 53  1  0
 15 54  1  0
 16 55  1  0
 16 56  1  0
 17 57  1  0
 17 58  1  0
 21 59  1  0
 22 60  1  0
 27 61  1  0
 27 62  1  0
 29 63  1  0
 30 64  1  0
 31 65  1  0
 32 66  1  0
 33 67  1  0
 34 68  1  0
 35 69  1  0
M  END
$$$$
