@<TRIPOS>MOLECULE
*****
 69 72 0 0 0
SMALL
GASTEIGER

@<TRIPOS>ATOM
      1 C          -1.5562    4.0604    1.1040 C.3     1  UNL1        0.0035
      2 N          -0.5520    2.9956    0.9201 N.am    1  UNL1       -0.3006
      3 C          -0.8667    1.6296    1.2530 C.3     1  UNL1        0.0149
      4 C          -1.4716    0.8527    0.1013 C.3     1  UNL1       -0.0342
      5 C          -1.7533   -0.5778    0.5959 C.3     1  UNL1       -0.0373
      6 C          -2.3153   -1.3467   -0.5303 C.3     1  UNL1       -0.0373
      7 C          -3.7895   -1.3947   -0.7091 C.3     1  UNL1       -0.0005
      8 N          -4.5277   -1.3116    0.5100 N.3     1  UNL1       -0.2981
      9 C          -5.4709   -0.2671    0.6349 C.3     1  UNL1        0.0240
     10 C          -6.7013   -0.5841   -0.1241 C.ar    1  UNL1       -0.0334
     11 C          -6.9224   -0.2602   -1.4382 C.ar    1  UNL1       -0.0573
     12 C          -8.0958   -0.5747   -2.1009 C.ar    1  UNL1       -0.0615
     13 C          -9.0977   -1.2373   -1.4427 C.ar    1  UNL1       -0.0617
     14 C          -8.9204   -1.5862   -0.1142 C.ar    1  UNL1       -0.0615
     15 C          -7.7450   -1.2627    0.5233 C.ar    1  UNL1       -0.0573
     16 C          -3.7131   -1.5900    1.6683 C.3     1  UNL1       -0.0005
     17 C          -2.6117   -0.5710    1.8041 C.3     1  UNL1       -0.0373
     18 C           0.7116    3.3416    0.4141 C.2     1  UNL1        0.2464
     19 O           0.9245    4.5692    0.1394 O.2     1  UNL1       -0.2700
     20 C           1.7494    2.3438    0.2050 C.ar    1  UNL1        0.0370
     21 C           2.1384    1.9728   -1.0873 C.ar    1  UNL1       -0.0478
     22 C           3.1323    1.0360   -1.3032 C.ar    1  UNL1       -0.0362
     23 C           3.7824    0.4265   -0.2568 C.ar    1  UNL1        0.0886
     24 S           5.0456   -0.7545   -0.5200 S.O2    1  UNL1        0.0010
     25 O           4.8716   -1.3068   -1.9083 O.2     1  UNL1       -0.1690
     26 O           4.9223   -1.8129    0.5186 O.2     1  UNL1       -0.1690
     27 C           6.5770    0.1198   -0.4465 C.3     1  UNL1        0.0958
     28 C           7.7691   -0.7109   -0.6404 C.ar    1  UNL1       -0.0261
     29 C           8.2933   -0.8779   -1.9144 C.ar    1  UNL1       -0.0570
     30 C           9.4283   -1.6588   -2.1223 C.ar    1  UNL1       -0.0615
     31 C          10.0553   -2.2830   -1.0683 C.ar    1  UNL1       -0.0617
     32 C           9.5418   -2.1229    0.1994 C.ar    1  UNL1       -0.0615
     33 C           8.4035   -1.3383    0.4020 C.ar    1  UNL1       -0.0570
     34 C           3.4003    0.7913    1.0266 C.ar    1  UNL1       -0.0362
     35 C           2.4050    1.7307    1.2501 C.ar    1  UNL1       -0.0478
     36 H          -2.0292    4.2891    0.1289 H       1  UNL1        0.0429
     37 H          -1.0955    4.9686    1.5296 H       1  UNL1        0.0429
     38 H          -2.3286    3.7057    1.8396 H       1  UNL1        0.0429
     39 H           0.1011    1.1031    1.4764 H       1  UNL1        0.0464
     40 H          -1.4649    1.5467    2.1744 H       1  UNL1        0.0464
     41 H          -0.7668    0.7447   -0.7447 H       1  UNL1        0.0283
     42 H          -2.3909    1.3411   -0.2716 H       1  UNL1        0.0283
     43 H          -0.7391   -0.9550    0.8909 H       1  UNL1        0.0302
     44 H          -1.8197   -1.0377   -1.4866 H       1  UNL1        0.0280
     45 H          -1.9751   -2.4227   -0.4092 H       1  UNL1        0.0280
     46 H          -4.0671   -0.5467   -1.3618 H       1  UNL1        0.0427
     47 H          -4.1307   -2.3245   -1.2421 H       1  UNL1        0.0427
     48 H          -5.7744   -0.0888    1.6896 H       1  UNL1        0.0476
     49 H          -5.0597    0.6720    0.1754 H       1  UNL1        0.0476
     50 H          -6.1530    0.2750   -1.9890 H       1  UNL1        0.0621
     51 H          -8.2241   -0.2990   -3.1384 H       1  UNL1        0.0618
     52 H         -10.0015   -1.4700   -1.9853 H       1  UNL1        0.0618
     53 H          -9.7166   -2.1096    0.3990 H       1  UNL1        0.0618
     54 H          -7.5597   -1.5190    1.5718 H       1  UNL1        0.0621
     55 H          -4.3678   -1.5162    2.5547 H       1  UNL1        0.0427
     56 H          -3.2565   -2.5941    1.6359 H       1  UNL1        0.0427
     57 H          -3.0416    0.4383    2.0332 H       1  UNL1        0.0280
     58 H          -2.0084   -0.8489    2.6958 H       1  UNL1        0.0280
     59 H           1.6214    2.4588   -1.9000 H       1  UNL1        0.0626
     60 H           3.4413    0.7417   -2.3105 H       1  UNL1        0.0637
     61 H           6.5280    0.9395   -1.1966 H       1  UNL1        0.0554
     62 H           6.5783    0.6704    0.5398 H       1  UNL1        0.0554
     63 H           7.7928   -0.3843   -2.7390 H       1  UNL1        0.0621
     64 H           9.8455   -1.7964   -3.1083 H       1  UNL1        0.0618
     65 H          10.9221   -2.8754   -1.2415 H       1  UNL1        0.0618
     66 H          10.0017   -2.5930    1.0403 H       1  UNL1        0.0618
     67 H           8.0446   -1.2517    1.4239 H       1  UNL1        0.0621
     68 H           3.8983    0.3232    1.8512 H       1  UNL1        0.0637
     69 H           2.1548    1.9756    2.2905 H       1  UNL1        0.0626
@<TRIPOS>BOND
     1     1     2    1
     2     2     3    1
     3     3     4    1
     4     4     5    1
     5     5     6    1
     6     6     7    1
     7     7     8    1
     8     8     9    1
     9     9    10    1
    10    10    11   ar
    11    11    12   ar
    12    12    13   ar
    13    13    14   ar
    14    14    15   ar
    15     8    16    1
    16    16    17    1
    17     2    18   am
    18    18    19    2
    19    18    20    1
    20    20    21   ar
    21    21    22   ar
    22    22    23   ar
    23    23    24    1
    24    24    25    2
    25    24    26    2
    26    24    27    1
    27    27    28    1
    28    28    29   ar
    29    29    30   ar
    30    30    31   ar
    31    31    32   ar
    32    32    33   ar
    33    23    34   ar
    34    34    35   ar
    35    17     5    1
    36    35    20   ar
    37    15    10   ar
    38    33    28   ar
    39     1    36    1
    40     1    37    1
    41     1    38    1
    42     3    39    1
    43     3    40    1
    44     4    41    1
    45     4    42    1
    46     5    43    1
    47     6    44    1
    48     6    45    1
    49     7    46    1
    50     7    47    1
    51     9    48    1
    52     9    49    1
    53    11    50    1
    54    12    51    1
    55    13    52    1
    56    14    53    1
    57    15    54    1
    58    16    55    1
    59    16    56    1
    60    17    57    1
    61    17    58    1
    62    21    59    1
    63    22    60    1
    64    27    61    1
    65    27    62    1
    66    29    63    1
    67    30    64    1
    68    31    65    1
    69    32    66    1
    70    33    67    1
    71    34    68    1
    72    35    69    1
