
     RDKit          3D

143148  0  0  0  0  0  0  0  0999 V2000
    3.6204    0.1927   -0.3530 C   0  0  0  0  0  0  0  0  0  0  0  0
    2.7119   -0.4829   -1.1099 C   0  0  0  0  0  0  0  0  0  0  0  0
    3.4906   -1.1154   -2.1855 C   0  0  0  0  0  0  0  0  0  0  0  0
    1.3436   -0.3935   -0.6265 C   0  0  1  0  0  0  0  0  0  0  0  0
    0.3985    0.0617   -1.5970 O   0  0  0  0  0  0  0  0  0  0  0  0
   -0.4019    1.1810   -1.4172 C   0  0  0  0  0  0  0  0  0  0  0  0
   -0.2364    1.7899   -0.3487 O   0  0  0  0  0  0  0  0  0  0  0  0
   -1.3919    1.6552   -2.3842 C   0  0  2  0  0  0  0  0  0  0  0  0
   -1.1673    3.1093   -2.8160 C   0  0  0  0  0  0  0  0  0  0  0  0
   -2.4812    3.4855   -3.5257 C   0  0  0  0  0  0  0  0  0  0  0  0
   -3.0372    2.2592   -4.2088 C   0  0  0  0  0  0  0  0  0  0  0  0
   -3.5430    1.2672   -3.1834 C   0  0  0  0  0  0  0  0  0  0  0  0
   -2.7937    1.6061   -1.9240 N   0  0  0  0  0  0  0  0  0  0  0  0
   -2.7162    1.9193   -0.5085 C   0  0  0  0  0  0  0  0  0  0  0  0
   -3.8894    1.7027   -0.8661 O   0  0  0  0  0  0  0  0  0  0  0  0
   -3.6227    2.0576    0.6227 C   0  0  0  0  0  0  0  0  0  0  0  0
   -2.6638    2.3938    1.4135 O   0  0  0  0  0  0  0  0  0  0  0  0
   -4.8240    2.0874    1.4893 C   0  0  2  0  0  0  0  0  0  0  0  0
   -4.5182    1.5217    2.7526 O   0  0  0  0  0  0  0  0  0  0  0  0
   -5.7492    1.2052    0.9474 O   0  0  0  0  0  0  0  0  0  0  0  0
   -7.0551    1.5715    1.2987 C   0  0  1  0  0  0  0  0  0  0  0  0
   -7.2853    2.8481    0.5452 C   0  0  2  0  0  0  0  0  0  0  0  0
   -6.6189    3.9064    1.4840 C   0  0  0  0  0  0  0  0  0  0  0  0
   -5.2179    3.4867    1.6857 C   0  0  1  0  0  0  0  0  0  0  0  0
   -4.8297    3.9370    3.1072 C   0  0  0  0  0  0  0  0  0  0  0  0
   -8.5526    3.2318    0.2751 O   0  0  0  0  0  0  0  0  0  0  0  0
   -8.7511    3.7009   -1.0238 C   0  0  0  0  0  0  0  0  0  0  0  0
   -8.0040    0.5121    0.9124 C   0  0  2  0  0  0  0  0  0  0  0  0
   -7.3454   -0.7001    0.3788 C   0  0  0  0  0  0  0  0  0  0  0  0
   -6.4151   -1.4442    1.2724 C   0  0  1  0  0  0  0  0  0  0  0  0
   -7.0651   -1.8523    2.5832 C   0  0  0  0  0  0  0  0  0  0  0  0
   -6.0784   -2.8035    0.6048 C   0  0  2  0  0  0  0  0  0  0  0  0
   -7.2292   -3.5603    0.4804 O   0  0  0  0  0  0  0  0  0  0  0  0
   -4.9216   -3.4716    1.1768 C   0  0  0  0  0  0  0  0  0  0  0  0
   -4.6349   -3.8849    2.5753 C   0  0  0  0  0  0  0  0  0  0  0  0
   -3.9094   -3.8351    0.3524 C   0  0  0  0  0  0  0  0  0  0  0  0
   -2.5757   -4.4876    0.3086 C   0  0  1  0  0  0  0  0  0  0  0  0
   -2.5993   -5.7728   -0.4739 C   0  0  0  0  0  0  0  0  0  0  0  0
   -3.0217   -5.5716   -1.8967 C   0  0  0  0  0  0  0  0  0  0  0  0
   -1.5201   -3.6017   -0.2238 C   0  0  0  0  0  0  0  0  0  0  0  0
   -2.2688   -2.6488   -0.3428 O   0  0  0  0  0  0  0  0  0  0  0  0
   -0.1060   -3.9839   -0.4456 C   0  0  0  0  0  0  0  0  0  0  0  0
    0.6705   -2.8042   -1.0385 C   0  0  2  0  0  0  0  0  0  0  0  0
    1.9789   -3.3182   -1.2015 O   0  0  0  0  0  0  0  0  0  0  0  0
    0.7355   -1.6646   -0.0827 C   0  0  1  0  0  0  0  0  0  0  0  0
    1.3723   -2.0567    1.2373 C   0  0  0  0  0  0  0  0  0  0  0  0
   -8.9816    1.0255    0.0602 O   0  0  0  0  0  0  0  0  0  0  0  0
  -10.2473    1.0335    0.6161 C   0  0  0  0  0  0  0  0  0  0  0  0
    5.1045    0.4287   -0.3481 C   0  0  2  0  0  0  0  0  0  0  0  0
    5.6247   -0.1006    0.9959 C   0  0  0  0  0  0  0  0  0  0  0  0
    6.6406    0.8427    1.5766 C   0  0  0  0  0  0  0  0  0  0  0  0
    7.6420    1.2938    0.5486 C   0  0  1  0  0  0  0  0  0  0  0  0
    8.4837    0.2613    0.1272 O   0  0  0  0  0  0  0  0  0  0  0  0
    9.8200    0.1103    0.3398 C   0  0  0  0  0  0  0  0  0  0  0  0
   10.3760   -1.0408   -0.2231 C   0  0  0  0  0  0  0  0  0  0  0  0
   11.7333   -1.3047   -0.0727 C   0  0  0  0  0  0  0  0  0  0  0  0
   12.5491   -0.4588    0.6192 C   0  0  0  0  0  0  0  0  0  0  0  0
   13.8668   -0.4265    0.9376 N   0  0  0  0  0  0  0  0  0  0  0  0
   14.8242   -1.4486    0.5401 C   0  0  0  0  0  0  0  0  0  0  0  0
   14.1619    0.6843    1.6707 C   0  0  0  0  0  0  0  0  0  0  0  0
   13.0131    1.4193    1.8496 C   0  0  0  0  0  0  0  0  0  0  0  0
   12.0452    0.6918    1.1935 C   0  0  0  0  0  0  0  0  0  0  0  0
   10.6985    0.9196    1.0240 C   0  0  0  0  0  0  0  0  0  0  0  0
    6.9609    2.0142   -0.5564 C   0  0  1  0  0  0  0  0  0  0  0  0
    5.4688    1.8708   -0.4536 C   0  0  0  0  0  0  0  0  0  0  0  0
    7.2765    3.3783   -0.5878 O   0  0  0  0  0  0  0  0  0  0  0  0
    7.8794    3.6471   -1.8138 C   0  0  0  0  0  0  0  0  0  0  0  0
    3.3099    0.7733    0.5236 H   0  0  0  0  0  0  0  0  0  0  0  0
    4.1862   -1.9070   -1.8675 H   0  0  0  0  0  0  0  0  0  0  0  0
    4.1343   -0.3751   -2.7302 H   0  0  0  0  0  0  0  0  0  0  0  0
    2.7952   -1.4800   -2.9924 H   0  0  0  0  0  0  0  0  0  0  0  0
    1.2313    0.3540    0.2136 H   0  0  0  0  0  0  0  0  0  0  0  0
   -1.2139    1.0668   -3.3004 H   0  0  0  0  0  0  0  0  0  0  0  0
   -0.3948    3.1430   -3.6147 H   0  0  0  0  0  0  0  0  0  0  0  0
   -0.9603    3.7731   -1.9704 H   0  0  0  0  0  0  0  0  0  0  0  0
   -3.1717    3.7441   -2.6949 H   0  0  0  0  0  0  0  0  0  0  0  0
   -2.3201    4.3112   -4.2279 H   0  0  0  0  0  0  0  0  0  0  0  0
   -3.8973    2.6161   -4.8464 H   0  0  0  0  0  0  0  0  0  0  0  0
   -2.3243    1.7950   -4.9203 H   0  0  0  0  0  0  0  0  0  0  0  0
   -3.2671    0.2181   -3.4251 H   0  0  0  0  0  0  0  0  0  0  0  0
   -4.6042    1.4489   -3.0485 H   0  0  0  0  0  0  0  0  0  0  0  0
   -5.1994    0.9043    3.0718 H   0  0  0  0  0  0  0  0  0  0  0  0
   -7.0836    1.7817    2.4159 H   0  0  0  0  0  0  0  0  0  0  0  0
   -6.6640    2.9030   -0.3819 H   0  0  0  0  0  0  0  0  0  0  0  0
   -7.2177    3.9225    2.4203 H   0  0  0  0  0  0  0  0  0  0  0  0
   -6.6863    4.8528    0.9151 H   0  0  0  0  0  0  0  0  0  0  0  0
   -4.5822    4.1698    1.0358 H   0  0  0  0  0  0  0  0  0  0  0  0
   -4.7410    5.0268    3.1210 H   0  0  0  0  0  0  0  0  0  0  0  0
   -3.9650    3.3637    3.4342 H   0  0  0  0  0  0  0  0  0  0  0  0
   -5.7353    3.6937    3.7312 H   0  0  0  0  0  0  0  0  0  0  0  0
   -8.1067    4.6027   -1.1789 H   0  0  0  0  0  0  0  0  0  0  0  0
   -8.5187    2.9049   -1.7338 H   0  0  0  0  0  0  0  0  0  0  0  0
   -9.8079    4.0247   -1.0932 H   0  0  0  0  0  0  0  0  0  0  0  0
   -8.6069    0.2717    1.8486 H   0  0  0  0  0  0  0  0  0  0  0  0
   -6.7350   -0.4438   -0.5412 H   0  0  0  0  0  0  0  0  0  0  0  0
   -8.0717   -1.4571   -0.0253 H   0  0  0  0  0  0  0  0  0  0  0  0
   -5.4525   -0.9785    1.4972 H   0  0  0  0  0  0  0  0  0  0  0  0
   -7.7703   -1.1191    2.9866 H   0  0  0  0  0  0  0  0  0  0  0  0
   -7.5163   -2.8817    2.5231 H   0  0  0  0  0  0  0  0  0  0  0  0
   -6.2502   -1.9250    3.3337 H   0  0  0  0  0  0  0  0  0  0  0  0
   -5.8389   -2.4906   -0.4644 H   0  0  0  0  0  0  0  0  0  0  0  0
   -6.9589   -4.5320    0.5266 H   0  0  0  0  0  0  0  0  0  0  0  0
   -4.1851   -3.1043    3.1992 H   0  0  0  0  0  0  0  0  0  0  0  0
   -4.0067   -4.8180    2.6161 H   0  0  0  0  0  0  0  0  0  0  0  0
   -5.5989   -4.1958    3.0753 H   0  0  0  0  0  0  0  0  0  0  0  0
   -3.9979   -3.6177   -0.7288 H   0  0  0  0  0  0  0  0  0  0  0  0
   -2.2519   -4.7491    1.3535 H   0  0  0  0  0  0  0  0  0  0  0  0
   -3.2509   -6.5357   -0.0148 H   0  0  0  0  0  0  0  0  0  0  0  0
   -1.5615   -6.1698   -0.4856 H   0  0  0  0  0  0  0  0  0  0  0  0
   -2.6755   -6.4045   -2.5518 H   0  0  0  0  0  0  0  0  0  0  0  0
   -4.1381   -5.5512   -2.0145 H   0  0  0  0  0  0  0  0  0  0  0  0
   -2.6544   -4.6388   -2.3451 H   0  0  0  0  0  0  0  0  0  0  0  0
   -0.1205   -4.7701   -1.2369 H   0  0  0  0  0  0  0  0  0  0  0  0
    0.4053   -4.3087    0.4770 H   0  0  0  0  0  0  0  0  0  0  0  0
    0.1978   -2.5557   -1.9979 H   0  0  0  0  0  0  0  0  0  0  0  0
    2.1598   -4.0777   -0.6094 H   0  0  0  0  0  0  0  0  0  0  0  0
   -0.3342   -1.3886    0.1650 H   0  0  0  0  0  0  0  0  0  0  0  0
    2.1208   -2.8617    1.0431 H   0  0  0  0  0  0  0  0  0  0  0  0
    0.6039   -2.4548    1.8969 H   0  0  0  0  0  0  0  0  0  0  0  0
    1.8301   -1.1339    1.6453 H   0  0  0  0  0  0  0  0  0  0  0  0
  -10.9256    1.4673   -0.1522 H   0  0  0  0  0  0  0  0  0  0  0  0
  -10.3651    1.6215    1.5303 H   0  0  0  0  0  0  0  0  0  0  0  0
  -10.6429   -0.0199    0.7421 H   0  0  0  0  0  0  0  0  0  0  0  0
    5.5834   -0.2021   -1.1129 H   0  0  0  0  0  0  0  0  0  0  0  0
    4.7715   -0.1120    1.7351 H   0  0  0  0  0  0  0  0  0  0  0  0
    5.9616   -1.1435    0.9244 H   0  0  0  0  0  0  0  0  0  0  0  0
    7.1461    0.2753    2.3982 H   0  0  0  0  0  0  0  0  0  0  0  0
    6.1337    1.6917    2.0383 H   0  0  0  0  0  0  0  0  0  0  0  0
    8.3094    2.0449    1.0646 H   0  0  0  0  0  0  0  0  0  0  0  0
    9.7910   -1.7501   -0.7814 H   0  0  0  0  0  0  0  0  0  0  0  0
   12.2226   -2.1872   -0.4897 H   0  0  0  0  0  0  0  0  0  0  0  0
   14.4223   -2.4564    0.6629 H   0  0  0  0  0  0  0  0  0  0  0  0
   15.0797   -1.2097   -0.5305 H   0  0  0  0  0  0  0  0  0  0  0  0
   15.7550   -1.3268    1.1567 H   0  0  0  0  0  0  0  0  0  0  0  0
   15.1653    0.9145    2.0384 H   0  0  0  0  0  0  0  0  0  0  0  0
   12.9491    2.3498    2.3914 H   0  0  0  0  0  0  0  0  0  0  0  0
   10.2668    1.8082    1.4601 H   0  0  0  0  0  0  0  0  0  0  0  0
    7.2839    1.5476   -1.5281 H   0  0  0  0  0  0  0  0  0  0  0  0
    5.1080    2.3913    0.4750 H   0  0  0  0  0  0  0  0  0  0  0  0
    5.0190    2.3608   -1.3527 H   0  0  0  0  0  0  0  0  0  0  0  0
    8.1611    4.7198   -1.9137 H   0  0  0  0  0  0  0  0  0  0  0  0
    7.2573    3.4027   -2.6878 H   0  0  0  0  0  0  0  0  0  0  0  0
    8.7886    2.9945   -1.8596 H   0  0  0  0  0  0  0  0  0  0  0  0
  1  2  2  0
  2  3  1  0
  2  4  1  0
  4  5  1  0
  5  6  1  0
  6  7  2  0
  6  8  1  0
  8  9  1  0
  9 10  1  0
 10 11  1  0
 11 12  1  0
 12 13  1  0
 13 14  1  0
 14 15  2  0
 14 16  1  0
 16 17  2  0
 16 18  1  0
 18 19  1  1
 18 20  1  0
 20 21  1  0
 21 22  1  0
 22 23  1  0
 23 24  1  0
 24 25  1  0
 22 26  1  0
 26 27  1  0
 21 28  1  0
 28 29  1  0
 29 30  1  0
 30 31  1  0
 30 32  1  0
 32 33  1  0
 32 34  1  0
 34 35  1  0
 34 36  2  0
 36 37  1  0
 37 38  1  0
 38 39  1  0
 37 40  1  0
 40 41  2  0
 40 42  1  0
 42 43  1  0
 43 44  1  0
 43 45  1  0
 45 46  1  0
 28 47  1  0
 47 48  1  0
  1 49  1  0
 49 50  1  0
 50 51  1  0
 51 52  1  0
 52 53  1  0
 53 54  1  0
 54 55  2  0
 55 56  1  0
 56 57  2  0
 57 58  1  0
 58 59  1  0
 58 60  1  0
 60 61  2  0
 61 62  1  0
 62 63  2  0
 52 64  1  0
 64 65  1  0
 64 66  1  0
 66 67  1  0
 45  4  1  0
 65 49  1  0
 13  8  1  0
 24 18  1  0
 63 54  1  0
 62 57  1  0
  1 68  1  0
  3 69  1  0
  3 70  1  0
  3 71  1  0
  4 72  1  1
  8 73  1  6
  9 74  1  0
  9 75  1  0
 10 76  1  0
 10 77  1  0
 11 78  1  0
 11 79  1  0
 12 80  1  0
 12 81  1  0
 19 82  1  0
 21 83  1  1
 22 84  1  6
 23 85  1  0
 23 86  1  0
 24 87  1  6
 25 88  1  0
 25 89  1  0
 25 90  1  0
 27 91  1  0
 27 92  1  0
 27 93  1  0
 28 94  1  1
 29 95  1  0
 29 96  1  0
 30 97  1  1
 31 98  1  0
 31 99  1  0
 31100  1  0
 32101  1  6
 33102  1  0
 35103  1  0
 35104  1  0
 35105  1  0
 36106  1  0
 37107  1  1
 38108  1  0
 38109  1  0
 39110  1  0
 39111  1  0
 39112  1  0
 42113  1  0
 42114  1  0
 43115  1  6
 44116  1  0
 45117  1  1
 46118  1  0
 46119  1  0
 46120  1  0
 48121  1  0
 48122  1  0
 48123  1  0
 49124  1  6
 50125  1  0
 50126  1  0
 51127  1  0
 51128  1  0
 52129  1  1
 55130  1  0
 56131  1  0
 59132  1  0
 59133  1  0
 59134  1  0
 60135  1  0
 61136  1  0
 63137  1  0
 64138  1  6
 65139  1  0
 65140  1  0
 67141  1  0
 67142  1  0
 67143  1  0
M  END
$$$$
