@<TRIPOS>MOLECULE
*****
 49 52 0 0 0
SMALL
GASTEIGER

@<TRIPOS>ATOM
      1 O          -0.6401    0.8846   -0.1185 O.2     1  UNL1       -0.2748
      2 C          -0.9274   -0.3085   -0.3241 C.2     1  UNL1        0.2271
      3 C           0.0469   -1.1430   -1.0908 C.3     1  UNL1        0.0826
      4 C           1.2315   -0.3789   -1.4893 C.ar    1  UNL1        0.1206
      5 N           2.3359   -0.2963   -0.7079 N.ar    1  UNL1       -0.2186
      6 C           3.4264    0.4035   -1.0680 C.ar    1  UNL1        0.1285
      7 N           4.5732    0.4745   -0.2293 N.pl3   1  UNL1       -0.3106
      8 C           4.5624   -0.2259    1.0424 C.3     1  UNL1        0.0370
      9 C           5.5282    0.4088    2.0080 C.3     1  UNL1        0.0634
     10 O           6.7921    0.5745    1.5191 O.3     1  UNL1       -0.3767
     11 C           6.9182    0.5728    0.1567 C.3     1  UNL1        0.0634
     12 C           5.7576    1.2098   -0.5736 C.3     1  UNL1        0.0370
     13 C           3.4086    1.0569   -2.2789 C.ar    1  UNL1        0.0427
     14 C           2.2726    0.9755   -3.0893 C.ar    1  UNL1        0.2533
     15 O           2.2404    1.5737   -4.2115 O.2     1  UNL1       -0.2677
     16 N           1.2145    0.2598   -2.6729 N.ar    1  UNL1       -0.3104
     17 N          -2.1478   -0.8426    0.1622 N.am    1  UNL1       -0.2704
     18 C          -2.6715   -2.1886    0.0366 C.3     1  UNL1        0.0240
     19 C          -4.1521   -1.9270   -0.1288 C.3     1  UNL1       -0.0062
     20 C          -4.3622   -0.7528    0.7537 C.ar    1  UNL1        0.0174
     21 C          -5.5008   -0.2770    1.3624 C.ar    1  UNL1        0.1350
     22 O          -6.7218   -0.9527    1.1780 O.3     1  UNL1       -0.4054
     23 C          -7.5048   -0.5282    0.0741 C.3     1  UNL1        0.5753
     24 F          -6.8402   -0.6804   -1.1185 F       1  UNL1       -0.1328
     25 F          -7.7040    0.8418    0.2522 F       1  UNL1       -0.1328
     26 F          -8.6880   -1.2092    0.0204 F       1  UNL1       -0.1328
     27 C          -5.4239    0.8564    2.1440 C.ar    1  UNL1       -0.0192
     28 C          -4.2275    1.5176    2.3241 C.ar    1  UNL1       -0.0565
     29 C          -3.1061    1.0085    1.6961 C.ar    1  UNL1       -0.0398
     30 C          -3.1412   -0.1283    0.9021 C.ar    1  UNL1        0.0430
     31 H          -0.4603   -1.5967   -1.9607 H       1  UNL1        0.0438
     32 H           0.3625   -2.0039   -0.4321 H       1  UNL1        0.0438
     33 H           3.5349   -0.0577    1.4729 H       1  UNL1        0.0487
     34 H           4.7634   -1.2965    0.9469 H       1  UNL1        0.0487
     35 H           5.1182    1.4245    2.2484 H       1  UNL1        0.0575
     36 H           5.4996   -0.1802    2.9423 H       1  UNL1        0.0575
     37 H           7.1097   -0.4082   -0.2996 H       1  UNL1        0.0575
     38 H           7.8202    1.2013   -0.0908 H       1  UNL1        0.0575
     39 H           6.0068    1.1832   -1.6507 H       1  UNL1        0.0487
     40 H           5.6156    2.2700   -0.2784 H       1  UNL1        0.0487
     41 H           4.2637    1.6318   -2.6089 H       1  UNL1        0.0706
     42 H           0.3869    0.2085   -3.2777 H       1  UNL1        0.1700
     43 H          -2.2869   -2.7245   -0.8458 H       1  UNL1        0.0472
     44 H          -2.5451   -2.7678    0.9781 H       1  UNL1        0.0472
     45 H          -4.3293   -1.6698   -1.2032 H       1  UNL1        0.0330
     46 H          -4.7666   -2.7969    0.1781 H       1  UNL1        0.0330
     47 H          -6.3474    1.1959    2.6050 H       1  UNL1        0.0654
     48 H          -4.1666    2.4062    2.9368 H       1  UNL1        0.0619
     49 H          -2.1282    1.5003    1.8084 H       1  UNL1        0.0636
@<TRIPOS>BOND
     1     1     2    2
     2     2     3    1
     3     3     4    1
     4     4     5   ar
     5     5     6   ar
     6     6     7    1
     7     7     8    1
     8     8     9    1
     9     9    10    1
    10    10    11    1
    11    11    12    1
    12     6    13   ar
    13    13    14   ar
    14    14    15    2
    15    14    16   ar
    16     2    17   am
    17    17    18    1
    18    18    19    1
    19    19    20    1
    20    20    21   ar
    21    21    22    1
    22    22    23    1
    23    23    24    1
    24    23    25    1
    25    23    26    1
    26    21    27   ar
    27    27    28   ar
    28    28    29   ar
    29    29    30   ar
    30    16     4   ar
    31    30    17    1
    32    12     7    1
    33    30    20   ar
    34     3    31    1
    35     3    32    1
    36     8    33    1
    37     8    34    1
    38     9    35    1
    39     9    36    1
    40    11    37    1
    41    11    38    1
    42    12    39    1
    43    12    40    1
    44    13    41    1
    45    16    42    1
    46    18    43    1
    47    18    44    1
    48    19    45    1
    49    19    46    1
    50    27    47    1
    51    28    48    1
    52    29    49    1
