
     RDKit          3D

 49 52  0  0  0  0  0  0  0  0999 V2000
   -0.6401    0.8846   -0.1185 O   0  0  0  0  0  0  0  0  0  0  0  0
   -0.9274   -0.3085   -0.3241 C   0  0  0  0  0  0  0  0  0  0  0  0
    0.0469   -1.1430   -1.0908 C   0  0  0  0  0  0  0  0  0  0  0  0
    1.2315   -0.3789   -1.4893 C   0  0  0  0  0  0  0  0  0  0  0  0
    2.3359   -0.2963   -0.7079 N   0  0  0  0  0  0  0  0  0  0  0  0
    3.4264    0.4035   -1.0680 C   0  0  0  0  0  0  0  0  0  0  0  0
    4.5732    0.4745   -0.2293 N   0  0  0  0  0  0  0  0  0  0  0  0
    4.5624   -0.2259    1.0424 C   0  0  0  0  0  0  0  0  0  0  0  0
    5.5282    0.4088    2.0080 C   0  0  0  0  0  0  0  0  0  0  0  0
    6.7921    0.5745    1.5191 O   0  0  0  0  0  0  0  0  0  0  0  0
    6.9182    0.5728    0.1567 C   0  0  0  0  0  0  0  0  0  0  0  0
    5.7576    1.2098   -0.5736 C   0  0  0  0  0  0  0  0  0  0  0  0
    3.4086    1.0569   -2.2789 C   0  0  0  0  0  0  0  0  0  0  0  0
    2.2726    0.9755   -3.0893 C   0  0  0  0  0  0  0  0  0  0  0  0
    2.2404    1.5737   -4.2115 O   0  0  0  0  0  0  0  0  0  0  0  0
    1.2145    0.2598   -2.6729 N   0  0  0  0  0  0  0  0  0  0  0  0
   -2.1478   -0.8426    0.1622 N   0  0  0  0  0  0  0  0  0  0  0  0
   -2.6715   -2.1886    0.0366 C   0  0  0  0  0  0  0  0  0  0  0  0
   -4.1521   -1.9270   -0.1288 C   0  0  0  0  0  0  0  0  0  0  0  0
   -4.3622   -0.7528    0.7537 C   0  0  0  0  0  0  0  0  0  0  0  0
   -5.5008   -0.2770    1.3624 C   0  0  0  0  0  0  0  0  0  0  0  0
   -6.7218   -0.9527    1.1780 O   0  0  0  0  0  0  0  0  0  0  0  0
   -7.5048   -0.5282    0.0741 C   0  0  0  0  0  0  0  0  0  0  0  0
   -6.8402   -0.6804   -1.1185 F   0  0  0  0  0  0  0  0  0  0  0  0
   -7.7040    0.8418    0.2522 F   0  0  0  0  0  0  0  0  0  0  0  0
   -8.6880   -1.2092    0.0204 F   0  0  0  0  0  0  0  0  0  0  0  0
   -5.4239    0.8564    2.1440 C   0  0  0  0  0  0  0  0  0  0  0  0
   -4.2275    1.5176    2.3241 C   0  0  0  0  0  0  0  0  0  0  0  0
   -3.1061    1.0085    1.6961 C   0  0  0  0  0  0  0  0  0  0  0  0
   -3.1412   -0.1283    0.9021 C   0  0  0  0  0  0  0  0  0  0  0  0
   -0.4603   -1.5967   -1.9607 H   0  0  0  0  0  0  0  0  0  0  0  0
    0.3625   -2.0039   -0.4321 H   0  0  0  0  0  0  0  0  0  0  0  0
    3.5349   -0.0577    1.4729 H   0  0  0  0  0  0  0  0  0  0  0  0
    4.7634   -1.2965    0.9469 H   0  0  0  0  0  0  0  0  0  0  0  0
    5.1182    1.4245    2.2484 H   0  0  0  0  0  0  0  0  0  0  0  0
    5.4996   -0.1802    2.9423 H   0  0  0  0  0  0  0  0  0  0  0  0
    7.1097   -0.4082   -0.2996 H   0  0  0  0  0  0  0  0  0  0  0  0
    7.8202    1.2013   -0.0908 H   0  0  0  0  0  0  0  0  0  0  0  0
    6.0068    1.1832   -1.6507 H   0  0  0  0  0  0  0  0  0  0  0  0
    5.6156    2.2700   -0.2784 H   0  0  0  0  0  0  0  0  0  0  0  0
    4.2637    1.6318   -2.6089 H   0  0  0  0  0  0  0  0  0  0  0  0
    0.3869    0.2085   -3.2777 H   0  0  0  0  0  0  0  0  0  0  0  0
   -2.2869   -2.7245   -0.8458 H   0  0  0  0  0  0  0  0  0  0  0  0
   -2.5451   -2.7678    0.9781 H   0  0  0  0  0  0  0  0  0  0  0  0
   -4.3293   -1.6698   -1.2032 H   0  0  0  0  0  0  0  0  0  0  0  0
   -4.7666   -2.7969    0.1781 H   0  0  0  0  0  0  0  0  0  0  0  0
   -6.3474    1.1959    2.6050 H   0  0  0  0  0  0  0  0  0  0  0  0
   -4.1666    2.4062    2.9368 H   0  0  0  0  0  0  0  0  0  0  0  0
   -2.1282    1.5003    1.8084 H   0  0  0  0  0  0  0  0  0  0  0  0
  1  2  2  0
  2  3  1  0
  3  4  1  0
  4  5  2  0
  5  6  1  0
  6  7  1  0
  7  8  1  0
  8  9  1  0
  9 10  1  0
 10 11  1  0
 11 12  1  0
  6 13  2  0
 13 14  1  0
 14 15  2  0
 14 16  1  0
  2 17  1  0
 17 18  1  0
 18 19  1  0
 19 20  1  0
 20 21  2  0
 21 22  1  0
 22 23  1  0
 23 24  1  0
 23 25  1  0
 23 26  1  0
 21 27  1  0
 27 28  2  0
 28 29  1  0
 29 30  2  0
 16  4  1  0
 30 17  1  0
 12  7  1  0
 30 20  1  0
  3 31  1  0
  3 32  1  0
  8 33  1  0
  8 34  1  0
  9 35  1  0
  9 36  1  0
 11 37  1  0
 11 38  1  0
 12 39  1  0
 12 40  1  0
 13 41  1  0
 16 42  1  0
 18 43  1  0
 18 44  1  0
 19 45  1  0
 19 46  1  0
 27 47  1  0
 28 48  1  0
 29 49  1  0
M  END
$$$$
