@<TRIPOS>MOLECULE
*****
 46 48 0 0 0
SMALL
GASTEIGER

@<TRIPOS>ATOM
      1 C           1.6088   -0.8735   -1.8661 C.3     1  UNL1        0.0732
      2 C           2.5182   -0.3553   -3.0060 C.3     1  UNL1       -0.0370
      3 O           0.3333   -0.3898   -2.2651 O.3     1  UNL1       -0.3900
      4 C           1.9786   -0.1889   -0.5981 C.3     1  UNL1        0.0641
      5 C           1.1933   -0.6218    0.6011 C.3     1  UNL1        0.0047
      6 C          -0.2509   -0.3723    0.4280 C.3     1  UNL1        0.0915
      7 O          -1.0154   -0.7421    1.5804 O.3     1  UNL1       -0.4919
      8 C          -2.3906   -0.5266    1.4703 C.ar    1  UNL1        0.1211
      9 C          -2.9527    0.0094    0.3147 C.ar    1  UNL1       -0.0122
     10 C          -4.3281    0.1877    0.2967 C.ar    1  UNL1       -0.0144
     11 C          -5.1189   -0.1568    1.3947 C.ar    1  UNL1       -0.0177
     12 C          -6.4781    0.0533    1.2930 C.ar    1  UNL1       -0.0540
     13 C          -7.0803    0.5768    0.1810 C.ar    1  UNL1       -0.0612
     14 C          -6.3194    0.9240   -0.9147 C.ar    1  UNL1       -0.0612
     15 C          -4.9576    0.7143   -0.8146 C.ar    1  UNL1       -0.0539
     16 C          -4.4926   -0.6810    2.5014 C.ar    1  UNL1       -0.0506
     17 C          -3.1318   -0.8856    2.5890 C.ar    1  UNL1       -0.0193
     18 N           3.4192   -0.2651   -0.3495 N.ar    1  UNL1       -0.3304
     19 C           4.2449   -1.2913   -0.6419 C.ar    1  UNL1        0.0971
     20 N           5.4997   -0.9855   -0.2607 N.ar    1  UNL1       -0.2311
     21 C           5.5176    0.2422    0.2861 C.ar    1  UNL1        0.1428
     22 C           4.2064    0.6666    0.2170 C.ar    1  UNL1        0.0368
     23 C           6.6585    0.9706    0.8320 C.2     1  UNL1        0.2613
     24 N           6.4422    2.2715    1.3651 N.am    1  UNL1       -0.3240
     25 O           7.7906    0.4221    0.8112 O.2     1  UNL1       -0.2687
     26 H           1.5656   -1.9663   -1.8389 H       1  UNL1        0.0611
     27 H           1.9733   -0.4013   -3.9875 H       1  UNL1        0.0255
     28 H           2.6707    0.7259   -2.8047 H       1  UNL1        0.0255
     29 H           3.4533   -0.9114   -3.0575 H       1  UNL1        0.0255
     30 H          -0.0563   -1.0011   -2.9562 H       1  UNL1        0.2099
     31 H           1.8134    0.9189   -0.7976 H       1  UNL1        0.0554
     32 H           1.3293   -1.7426    0.7013 H       1  UNL1        0.0319
     33 H           1.5620   -0.1385    1.5366 H       1  UNL1        0.0319
     34 H          -0.7010   -0.9614   -0.4018 H       1  UNL1        0.0697
     35 H          -0.4556    0.6935    0.2317 H       1  UNL1        0.0697
     36 H          -2.3325    0.2692   -0.5207 H       1  UNL1        0.0660
     37 H          -7.0495   -0.2318    2.1761 H       1  UNL1        0.0624
     38 H          -8.1483    0.7097    0.1807 H       1  UNL1        0.0618
     39 H          -6.7736    1.3312   -1.7841 H       1  UNL1        0.0618
     40 H          -4.3770    0.9939   -1.6868 H       1  UNL1        0.0624
     41 H          -5.1109   -0.9511    3.3615 H       1  UNL1        0.0625
     42 H          -2.6621   -1.2997    3.4708 H       1  UNL1        0.0654
     43 H           3.9526   -2.2273   -1.1133 H       1  UNL1        0.1029
     44 H           3.8034    1.6190    0.5595 H       1  UNL1        0.0833
     45 H           5.7478    2.6448    2.0270 H       1  UNL1        0.1453
     46 H           6.9006    3.2237    1.2589 H       1  UNL1        0.1453
@<TRIPOS>BOND
     1     1     2    1
     2     1     3    1
     3     1     4    1
     4     4     5    1
     5     5     6    1
     6     6     7    1
     7     7     8    1
     8     8     9   ar
     9     9    10   ar
    10    10    11   ar
    11    11    12   ar
    12    12    13   ar
    13    13    14   ar
    14    14    15   ar
    15    11    16   ar
    16    16    17   ar
    17     4    18    1
    18    18    19   ar
    19    19    20   ar
    20    20    21   ar
    21    21    22   ar
    22    21    23    1
    23    23    24   am
    24    23    25    2
    25    17     8   ar
    26    22    18   ar
    27    15    10   ar
    28     1    26    1
    29     2    27    1
    30     2    28    1
    31     2    29    1
    32     3    30    1
    33     4    31    1
    34     5    32    1
    35     5    33    1
    36     6    34    1
    37     6    35    1
    38     9    36    1
    39    12    37    1
    40    13    38    1
    41    14    39    1
    42    15    40    1
    43    16    41    1
    44    17    42    1
    45    19    43    1
    46    22    44    1
    47    24    45    1
    48    24    46    1
