
     RDKit          3D

 73 77  0  0  0  0  0  0  0  0999 V2000
    9.3561    2.2064   -2.8034 C   0  0  0  0  0  0  0  0  0  0  0  0
    8.9527    1.3164   -1.6758 C   0  0  0  0  0  0  0  0  0  0  0  0
    7.6592    1.1712   -1.2705 C   0  0  0  0  0  0  0  0  0  0  0  0
    7.2677    0.3524   -0.2292 C   0  0  0  0  0  0  0  0  0  0  0  0
    5.8777    0.1872    0.2186 C   0  0  0  0  0  0  0  0  0  0  0  0
    4.9594    0.9240   -0.5290 O   0  0  0  0  0  0  0  0  0  0  0  0
    3.6078    0.8659   -0.2195 C   0  0  0  0  0  0  0  0  0  0  0  0
    3.1661    0.0884    0.8196 C   0  0  0  0  0  0  0  0  0  0  0  0
    1.8001    0.0466    1.1111 C   0  0  0  0  0  0  0  0  0  0  0  0
    0.8910    0.7672    0.3793 C   0  0  0  0  0  0  0  0  0  0  0  0
   -0.8484    0.7341    0.7262 S   0  0  0  0  0  6  0  0  0  0  0  0
   -1.0302    0.4197    2.1986 O   0  0  0  0  0  0  0  0  0  0  0  0
   -1.4409    2.0714    0.4896 O   0  0  0  0  0  0  0  0  0  0  0  0
   -1.5110   -0.5794   -0.1976 C   0  0  0  0  0  0  0  0  0  0  0  0
   -2.9890   -0.8467   -0.0610 C   0  0  0  0  0  0  0  0  0  0  0  0
   -3.7808    0.3195   -0.4871 C   0  0  0  0  0  0  0  0  0  0  0  0
   -5.2553    0.2427   -0.4348 C   0  0  0  0  0  0  0  0  0  0  0  0
   -5.7203   -0.0309    0.9660 C   0  0  0  0  0  0  0  0  0  0  0  0
   -7.1417   -0.5558    0.9987 C   0  0  0  0  0  0  0  0  0  0  0  0
   -7.9170    0.1209   -0.1076 C   0  0  0  0  0  0  0  0  0  0  0  0
   -7.4282   -0.4329   -1.4144 C   0  0  0  0  0  0  0  0  0  0  0  0
   -5.9176   -0.5817   -1.4743 C   0  0  0  0  0  0  0  0  0  0  0  0
   -9.2767   -0.1847   -0.0181 O   0  0  0  0  0  0  0  0  0  0  0  0
   -9.7519    0.6812    0.9771 C   0  0  0  0  0  0  0  0  0  0  0  0
   -8.9614    1.9298    0.6941 C   0  0  0  0  0  0  0  0  0  0  0  0
   -7.8583    1.5060   -0.0383 O   0  0  0  0  0  0  0  0  0  0  0  0
   -3.2421   -1.9746   -0.9389 N   0  0  0  0  0  0  0  0  0  0  0  0
   -3.1070   -1.8002   -2.2617 O   0  0  0  0  0  0  0  0  0  0  0  0
   -3.6152   -3.2233   -0.4259 C   0  0  0  0  0  0  0  0  0  0  0  0
   -3.8469   -4.2341   -1.1352 O   0  0  0  0  0  0  0  0  0  0  0  0
    1.3500    1.5404   -0.6576 C   0  0  0  0  0  0  0  0  0  0  0  0
    2.7085    1.5967   -0.9655 C   0  0  0  0  0  0  0  0  0  0  0  0
    8.2654   -0.3450    0.4175 C   0  0  0  0  0  0  0  0  0  0  0  0
    7.9511   -1.1835    1.4679 C   0  0  0  0  0  0  0  0  0  0  0  0
    8.9610   -1.8745    2.1046 C   0  0  0  0  0  0  0  0  0  0  0  0
   10.2544   -1.7184    1.6863 C   0  0  0  0  0  0  0  0  0  0  0  0
   10.6012   -0.8827    0.6335 C   0  0  0  0  0  0  0  0  0  0  0  0
    9.5857   -0.1955    0.0022 C   0  0  0  0  0  0  0  0  0  0  0  0
    9.9185    0.6140   -1.0174 N   0  0  0  0  0  0  0  0  0  0  0  0
    9.4488    3.2394   -2.3777 H   0  0  0  0  0  0  0  0  0  0  0  0
    8.5369    2.2442   -3.5265 H   0  0  0  0  0  0  0  0  0  0  0  0
   10.3260    1.8694   -3.2305 H   0  0  0  0  0  0  0  0  0  0  0  0
    6.8964    1.7258   -1.7903 H   0  0  0  0  0  0  0  0  0  0  0  0
    5.8296    0.5673    1.2766 H   0  0  0  0  0  0  0  0  0  0  0  0
    5.6442   -0.9040    0.2333 H   0  0  0  0  0  0  0  0  0  0  0  0
    3.8744   -0.4877    1.4082 H   0  0  0  0  0  0  0  0  0  0  0  0
    1.4388   -0.5570    1.9209 H   0  0  0  0  0  0  0  0  0  0  0  0
   -1.3472   -0.4393   -1.3103 H   0  0  0  0  0  0  0  0  0  0  0  0
   -1.0090   -1.5625    0.0087 H   0  0  0  0  0  0  0  0  0  0  0  0
   -3.1578   -1.1397    1.0119 H   0  0  0  0  0  0  0  0  0  0  0  0
   -3.4356    1.2118    0.1261 H   0  0  0  0  0  0  0  0  0  0  0  0
   -3.4144    0.6004   -1.5218 H   0  0  0  0  0  0  0  0  0  0  0  0
   -5.6131    1.3156   -0.6465 H   0  0  0  0  0  0  0  0  0  0  0  0
   -5.0782   -0.7370    1.5297 H   0  0  0  0  0  0  0  0  0  0  0  0
   -5.7120    0.9085    1.5557 H   0  0  0  0  0  0  0  0  0  0  0  0
   -7.1475   -1.6470    0.7661 H   0  0  0  0  0  0  0  0  0  0  0  0
   -7.5929   -0.4105    1.9953 H   0  0  0  0  0  0  0  0  0  0  0  0
   -7.8154    0.2412   -2.2308 H   0  0  0  0  0  0  0  0  0  0  0  0
   -7.9499   -1.3973   -1.5785 H   0  0  0  0  0  0  0  0  0  0  0  0
   -5.6172   -0.1597   -2.4736 H   0  0  0  0  0  0  0  0  0  0  0  0
   -5.7195   -1.6501   -1.4661 H   0  0  0  0  0  0  0  0  0  0  0  0
   -9.5044    0.3297    1.9817 H   0  0  0  0  0  0  0  0  0  0  0  0
  -10.8171    0.9031    0.8561 H   0  0  0  0  0  0  0  0  0  0  0  0
   -9.5341    2.6348    0.0572 H   0  0  0  0  0  0  0  0  0  0  0  0
   -8.5730    2.4232    1.6070 H   0  0  0  0  0  0  0  0  0  0  0  0
   -3.8024   -2.2455   -2.7919 H   0  0  0  0  0  0  0  0  0  0  0  0
   -3.7184   -3.3555    0.6456 H   0  0  0  0  0  0  0  0  0  0  0  0
    0.6385    2.1178   -1.2466 H   0  0  0  0  0  0  0  0  0  0  0  0
    3.0287    2.2122   -1.7829 H   0  0  0  0  0  0  0  0  0  0  0  0
    6.9410   -1.3297    1.8236 H   0  0  0  0  0  0  0  0  0  0  0  0
    8.7541   -2.5381    2.9282 H   0  0  0  0  0  0  0  0  0  0  0  0
   11.0626   -2.2511    2.1715 H   0  0  0  0  0  0  0  0  0  0  0  0
   11.6451   -0.7907    0.3360 H   0  0  0  0  0  0  0  0  0  0  0  0
  1  2  1  0
  2  3  2  0
  3  4  1  0
  4  5  1  0
  5  6  1  0
  6  7  1  0
  7  8  2  0
  8  9  1  0
  9 10  2  0
 10 11  1  0
 11 12  2  0
 11 13  2  0
 11 14  1  0
 14 15  1  0
 15 16  1  0
 16 17  1  0
 17 18  1  0
 18 19  1  0
 19 20  1  0
 20 21  1  0
 21 22  1  0
 20 23  1  0
 23 24  1  0
 24 25  1  0
 25 26  1  0
 15 27  1  0
 27 28  1  0
 27 29  1  0
 29 30  2  0
 10 31  1  0
 31 32  2  0
  4 33  2  0
 33 34  1  0
 34 35  2  0
 35 36  1  0
 36 37  2  0
 37 38  1  0
 38 39  2  0
 39  2  1  0
 32  7  1  0
 38 33  1  0
 22 17  1  0
 26 20  1  0
  1 40  1  0
  1 41  1  0
  1 42  1  0
  3 43  1  0
  5 44  1  0
  5 45  1  0
  8 46  1  0
  9 47  1  0
 14 48  1  0
 14 49  1  0
 15 50  1  0
 16 51  1  0
 16 52  1  0
 17 53  1  0
 18 54  1  0
 18 55  1  0
 19 56  1  0
 19 57  1  0
 21 58  1  0
 21 59  1  0
 22 60  1  0
 22 61  1  0
 24 62  1  0
 24 63  1  0
 25 64  1  0
 25 65  1  0
 28 66  1  0
 29 67  1  0
 31 68  1  0
 32 69  1  0
 34 70  1  0
 35 71  1  0
 36 72  1  0
 37 73  1  0
M  END
$$$$
