@<TRIPOS>MOLECULE
*****
 73 77 0 0 0
SMALL
GASTEIGER

@<TRIPOS>ATOM
      1 C           9.3561    2.2064   -2.8034 C.3     1  UNL1       -0.0223
      2 C           8.9527    1.3164   -1.6758 C.ar    1  UNL1        0.0393
      3 C           7.6592    1.1712   -1.2705 C.ar    1  UNL1       -0.0337
      4 C           7.2677    0.3524   -0.2292 C.ar    1  UNL1        0.0004
      5 C           5.8777    0.1872    0.2186 C.3     1  UNL1        0.1153
      6 O           4.9594    0.9240   -0.5290 O.3     1  UNL1       -0.4874
      7 C           3.6078    0.8659   -0.2195 C.ar    1  UNL1        0.1211
      8 C           3.1661    0.0884    0.8196 C.ar    1  UNL1       -0.0181
      9 C           1.8001    0.0466    1.1111 C.ar    1  UNL1       -0.0334
     10 C           0.8910    0.7672    0.3793 C.ar    1  UNL1        0.0885
     11 S          -0.8484    0.7341    0.7262 S.O2    1  UNL1       -0.0013
     12 O          -1.0302    0.4197    2.1986 O.2     1  UNL1       -0.1693
     13 O          -1.4409    2.0714    0.4896 O.2     1  UNL1       -0.1693
     14 C          -1.5110   -0.5794   -0.1976 C.3     1  UNL1        0.0917
     15 C          -2.9890   -0.8467   -0.0610 C.3     1  UNL1        0.0725
     16 C          -3.7808    0.3195   -0.4871 C.3     1  UNL1       -0.0276
     17 C          -5.2553    0.2427   -0.4348 C.3     1  UNL1       -0.0389
     18 C          -5.7203   -0.0309    0.9660 C.3     1  UNL1       -0.0453
     19 C          -7.1417   -0.5558    0.9987 C.3     1  UNL1        0.0017
     20 C          -7.9170    0.1209   -0.1076 C.3     1  UNL1        0.1702
     21 C          -7.4282   -0.4329   -1.4144 C.3     1  UNL1        0.0017
     22 C          -5.9176   -0.5817   -1.4743 C.3     1  UNL1       -0.0453
     23 O          -9.2767   -0.1847   -0.0181 O.3     1  UNL1       -0.3463
     24 C          -9.7519    0.6812    0.9771 C.3     1  UNL1        0.0744
     25 C          -8.9614    1.9298    0.6941 C.3     1  UNL1        0.0744
     26 O          -7.8583    1.5060   -0.0383 O.3     1  UNL1       -0.3463
     27 N          -3.2421   -1.9746   -0.9389 N.am    1  UNL1       -0.1817
     28 O          -3.1070   -1.8002   -2.2617 O.3     1  UNL1       -0.2924
     29 C          -3.6152   -3.2233   -0.4259 C.2     1  UNL1        0.2253
     30 O          -3.8469   -4.2341   -1.1352 O.2     1  UNL1       -0.2772
     31 C           1.3500    1.5404   -0.6576 C.ar    1  UNL1       -0.0334
     32 C           2.7085    1.5967   -0.9655 C.ar    1  UNL1       -0.0181
     33 C           8.2654   -0.3450    0.4175 C.ar    1  UNL1        0.0068
     34 C           7.9511   -1.1835    1.4679 C.ar    1  UNL1       -0.0522
     35 C           8.9610   -1.8745    2.1046 C.ar    1  UNL1       -0.0611
     36 C          10.2544   -1.7184    1.6863 C.ar    1  UNL1       -0.0597
     37 C          10.6012   -0.8827    0.6335 C.ar    1  UNL1       -0.0357
     38 C           9.5857   -0.1955    0.0022 C.ar    1  UNL1        0.0716
     39 N           9.9185    0.6140   -1.0174 N.ar    1  UNL1       -0.2519
     40 H           9.4488    3.2394   -2.3777 H       1  UNL1        0.0292
     41 H           8.5369    2.2442   -3.5265 H       1  UNL1        0.0292
     42 H          10.3260    1.8694   -3.2305 H       1  UNL1        0.0292
     43 H           6.8964    1.7258   -1.7903 H       1  UNL1        0.0639
     44 H           5.8296    0.5673    1.2766 H       1  UNL1        0.0748
     45 H           5.6442   -0.9040    0.2333 H       1  UNL1        0.0748
     46 H           3.8744   -0.4877    1.4082 H       1  UNL1        0.0655
     47 H           1.4388   -0.5570    1.9209 H       1  UNL1        0.0638
     48 H          -1.3472   -0.4393   -1.3103 H       1  UNL1        0.0523
     49 H          -1.0090   -1.5625    0.0087 H       1  UNL1        0.0523
     50 H          -3.1578   -1.1397    1.0119 H       1  UNL1        0.0541
     51 H          -3.4356    1.2118    0.1261 H       1  UNL1        0.0287
     52 H          -3.4144    0.6004   -1.5218 H       1  UNL1        0.0287
     53 H          -5.6131    1.3156   -0.6465 H       1  UNL1        0.0301
     54 H          -5.0782   -0.7370    1.5297 H       1  UNL1        0.0270
     55 H          -5.7120    0.9085    1.5557 H       1  UNL1        0.0270
     56 H          -7.1475   -1.6470    0.7661 H       1  UNL1        0.0317
     57 H          -7.5929   -0.4105    1.9953 H       1  UNL1        0.0317
     58 H          -7.8154    0.2412   -2.2308 H       1  UNL1        0.0317
     59 H          -7.9499   -1.3973   -1.5785 H       1  UNL1        0.0317
     60 H          -5.6172   -0.1597   -2.4736 H       1  UNL1        0.0270
     61 H          -5.7195   -1.6501   -1.4661 H       1  UNL1        0.0270
     62 H          -9.5044    0.3297    1.9817 H       1  UNL1        0.0584
     63 H         -10.8171    0.9031    0.8561 H       1  UNL1        0.0584
     64 H          -9.5341    2.6348    0.0572 H       1  UNL1        0.0584
     65 H          -8.5730    2.4232    1.6070 H       1  UNL1        0.0584
     66 H          -3.8024   -2.2455   -2.7919 H       1  UNL1        0.2417
     67 H          -3.7184   -3.3555    0.6456 H       1  UNL1        0.1274
     68 H           0.6385    2.1178   -1.2466 H       1  UNL1        0.0638
     69 H           3.0287    2.2122   -1.7829 H       1  UNL1        0.0655
     70 H           6.9410   -1.3297    1.8236 H       1  UNL1        0.0624
     71 H           8.7541   -2.5381    2.9282 H       1  UNL1        0.0618
     72 H          11.0626   -2.2511    2.1715 H       1  UNL1        0.0618
     73 H          11.6451   -0.7907    0.3360 H       1  UNL1        0.0639
@<TRIPOS>BOND
     1     1     2    1
     2     2     3   ar
     3     3     4   ar
     4     4     5    1
     5     5     6    1
     6     6     7    1
     7     7     8   ar
     8     8     9   ar
     9     9    10   ar
    10    10    11    1
    11    11    12    2
    12    11    13    2
    13    11    14    1
    14    14    15    1
    15    15    16    1
    16    16    17    1
    17    17    18    1
    18    18    19    1
    19    19    20    1
    20    20    21    1
    21    21    22    1
    22    20    23    1
    23    23    24    1
    24    24    25    1
    25    25    26    1
    26    15    27    1
    27    27    28    1
    28    27    29   am
    29    29    30    2
    30    10    31   ar
    31    31    32   ar
    32     4    33   ar
    33    33    34   ar
    34    34    35   ar
    35    35    36   ar
    36    36    37   ar
    37    37    38   ar
    38    38    39   ar
    39    39     2   ar
    40    32     7   ar
    41    38    33   ar
    42    22    17    1
    43    26    20    1
    44     1    40    1
    45     1    41    1
    46     1    42    1
    47     3    43    1
    48     5    44    1
    49     5    45    1
    50     8    46    1
    51     9    47    1
    52    14    48    1
    53    14    49    1
    54    15    50    1
    55    16    51    1
    56    16    52    1
    57    17    53    1
    58    18    54    1
    59    18    55    1
    60    19    56    1
    61    19    57    1
    62    21    58    1
    63    21    59    1
    64    22    60    1
    65    22    61    1
    66    24    62    1
    67    24    63    1
    68    25    64    1
    69    25    65    1
    70    28    66    1
    71    29    67    1
    72    31    68    1
    73    32    69    1
    74    34    70    1
    75    35    71    1
    76    36    72    1
    77    37    73    1
