
     RDKit          3D

 32 33  0  0  0  0  0  0  0  0999 V2000
   -0.3290    2.4034    0.4991 C   0  0  0  0  0  0  0  0  0  0  0  0
   -0.6732    1.3667   -0.4137 N   0  0  0  0  0  0  0  0  0  0  0  0
   -0.2256    0.0322   -0.0012 C   0  0  0  0  0  0  0  0  0  0  0  0
   -0.8431   -0.1996    1.3214 C   0  0  0  0  0  0  0  0  0  0  0  0
   -2.3407   -0.2905    1.2921 C   0  0  0  0  0  0  0  0  0  0  0  0
   -2.9205   -1.1615    0.2287 C   0  0  0  0  0  0  0  0  0  0  0  0
   -2.3901   -0.7933   -1.1449 C   0  0  0  0  0  0  0  0  0  0  0  0
   -0.9085   -0.8593   -1.0207 C   0  0  0  0  0  0  0  0  0  0  0  0
   -0.2924   -1.6437   -1.7590 O   0  0  0  0  0  0  0  0  0  0  0  0
    1.1877   -0.1884   -0.1705 C   0  0  0  0  0  0  0  0  0  0  0  0
    1.9411    0.8761   -0.6913 C   0  0  0  0  0  0  0  0  0  0  0  0
    3.3042    0.7744   -0.8930 C   0  0  0  0  0  0  0  0  0  0  0  0
    3.9869   -0.3876   -0.5884 C   0  0  0  0  0  0  0  0  0  0  0  0
    3.2760   -1.4580   -0.0733 C   0  0  0  0  0  0  0  0  0  0  0  0
    1.9196   -1.3115    0.1107 C   0  0  0  0  0  0  0  0  0  0  0  0
    1.0684   -2.6751    0.7426 Cl  0  0  0  0  0  0  0  0  0  0  0  0
    0.5563    2.1653    1.1281 H   0  0  0  0  0  0  0  0  0  0  0  0
   -1.1915    2.7303    1.1369 H   0  0  0  0  0  0  0  0  0  0  0  0
   -0.0743    3.3129   -0.0855 H   0  0  0  0  0  0  0  0  0  0  0  0
   -0.3967    1.6055   -1.3719 H   0  0  0  0  0  0  0  0  0  0  0  0
   -0.4880   -1.0661    1.8677 H   0  0  0  0  0  0  0  0  0  0  0  0
   -0.6978    0.7659    1.8980 H   0  0  0  0  0  0  0  0  0  0  0  0
   -2.8373    0.7173    1.2078 H   0  0  0  0  0  0  0  0  0  0  0  0
   -2.6687   -0.6719    2.2811 H   0  0  0  0  0  0  0  0  0  0  0  0
   -4.0107   -0.9337    0.2045 H   0  0  0  0  0  0  0  0  0  0  0  0
   -2.8044   -2.2231    0.4408 H   0  0  0  0  0  0  0  0  0  0  0  0
   -2.7558   -1.5750   -1.8187 H   0  0  0  0  0  0  0  0  0  0  0  0
   -2.7716    0.1714   -1.4891 H   0  0  0  0  0  0  0  0  0  0  0  0
    1.5906    1.8553   -0.9918 H   0  0  0  0  0  0  0  0  0  0  0  0
    3.9443    1.5452   -1.2865 H   0  0  0  0  0  0  0  0  0  0  0  0
    5.0523   -0.5076   -0.7310 H   0  0  0  0  0  0  0  0  0  0  0  0
    3.7928   -2.3760    0.1712 H   0  0  0  0  0  0  0  0  0  0  0  0
  1  2  1  0
  2  3  1  0
  3  4  1  0
  4  5  1  0
  5  6  1  0
  6  7  1  0
  7  8  1  0
  8  9  2  0
  3 10  1  0
 10 11  2  0
 11 12  1  0
 12 13  2  0
 13 14  1  0
 14 15  2  0
 15 16  1  0
  8  3  1  0
 15 10  1  0
  1 17  1  0
  1 18  1  0
  1 19  1  0
  2 20  1  0
  4 21  1  0
  4 22  1  0
  5 23  1  0
  5 24  1  0
  6 25  1  0
  6 26  1  0
  7 27  1  0
  7 28  1  0
 11 29  1  0
 12 30  1  0
 13 31  1  0
 14 32  1  0
M  END
$$$$
