@<TRIPOS>MOLECULE
*****
 58 63 0 0 0
SMALL
GASTEIGER

@<TRIPOS>ATOM
      1 C           7.6239    0.9788    0.8450 C.3     1  UNL1       -0.0279
      2 C           6.7982   -0.1629    1.4191 C.3     1  UNL1        0.0991
      3 C           7.0904   -0.2794    2.8831 C.3     1  UNL1       -0.0279
      4 O           5.4234    0.0117    1.1457 O.3     1  UNL1       -0.4475
      5 C           4.6671   -0.8782    0.4072 C.2     1  UNL1        0.4034
      6 O           5.2532   -1.8952   -0.0392 O.2     1  UNL1       -0.2262
      7 N           3.2920   -0.6450    0.1690 N.am    1  UNL1       -0.2613
      8 C           2.7638    0.5509    0.7538 C.3     1  UNL1        0.0361
      9 C           1.4332    0.2920    1.4733 C.3     1  UNL1        0.0392
     10 N           0.4182    0.4059    0.4343 N.ar    1  UNL1       -0.3443
     11 C          -0.6794    1.1696    0.4809 C.ar    1  UNL1        0.0137
     12 C          -1.4032    1.0114   -0.7030 C.ar    1  UNL1        0.0131
     13 C          -2.6240    1.7222   -1.0449 C.2     1  UNL1        0.0604
     14 C          -3.8655    1.2917   -1.1051 C.2     1  UNL1        0.0751
     15 C          -4.3719   -0.0281   -0.8425 C.ar    1  UNL1        0.0789
     16 C          -4.0213   -1.2454   -1.3381 C.ar    1  UNL1        0.0545
     17 N          -4.7885   -2.2023   -0.7402 N.ar    1  UNL1       -0.2355
     18 C          -5.6121   -1.6041    0.1200 C.ar    1  UNL1        0.1380
     19 C          -6.5720   -2.1733    0.9610 C.ar    1  UNL1       -0.0188
     20 C          -7.3128   -1.3771    1.7799 C.ar    1  UNL1       -0.0569
     21 C          -7.0591   -0.0191    1.7237 C.ar    1  UNL1       -0.0450
     22 C          -6.0985    0.4909    0.8737 C.ar    1  UNL1        0.0118
     23 N          -5.3681   -0.2950    0.0656 N.ar    1  UNL1       -0.2991
     24 C          -4.7682    2.3879   -1.5153 C.2     1  UNL1        0.2533
     25 O          -6.0063    2.3218   -1.6729 O.2     1  UNL1       -0.2697
     26 N          -3.9875    3.5491   -1.7068 N.am    1  UNL1       -0.2482
     27 C          -2.6595    3.1686   -1.4236 C.2     1  UNL1        0.2519
     28 O          -1.6282    3.9031   -1.4698 O.2     1  UNL1       -0.2697
     29 C          -0.6800    0.1232   -1.4430 C.ar    1  UNL1        0.0081
     30 C          -0.8467   -0.4233   -2.6989 C.ar    1  UNL1       -0.0520
     31 C           0.0653   -1.3065   -3.2335 C.ar    1  UNL1       -0.0607
     32 C           1.1879   -1.6638   -2.4972 C.ar    1  UNL1       -0.0551
     33 C           1.3893   -1.1418   -1.2470 C.ar    1  UNL1       -0.0059
     34 C           0.4616   -0.2636   -0.7426 C.ar    1  UNL1        0.0544
     35 C           2.6354   -1.6434   -0.6285 C.3     1  UNL1        0.0449
     36 H           7.6939    0.9238   -0.2598 H       1  UNL1        0.0265
     37 H           7.1595    1.9365    1.1810 H       1  UNL1        0.0265
     38 H           8.6276    0.9083    1.2778 H       1  UNL1        0.0265
     39 H           7.0786   -1.1277    0.9333 H       1  UNL1        0.0729
     40 H           6.1665   -0.4645    3.4973 H       1  UNL1        0.0265
     41 H           7.6032    0.6482    3.2183 H       1  UNL1        0.0265
     42 H           7.8268   -1.0919    3.0358 H       1  UNL1        0.0265
     43 H           2.5907    1.2967   -0.0272 H       1  UNL1        0.0483
     44 H           3.4613    0.9906    1.5045 H       1  UNL1        0.0483
     45 H           1.2680    0.9730    2.3035 H       1  UNL1        0.0507
     46 H           1.5087   -0.7451    1.8587 H       1  UNL1        0.0507
     47 H          -0.9717    1.8109    1.2974 H       1  UNL1        0.0815
     48 H          -3.2925   -1.5249   -2.0791 H       1  UNL1        0.0852
     49 H          -6.7137   -3.2410    0.9495 H       1  UNL1        0.0654
     50 H          -8.0693   -1.7845    2.4488 H       1  UNL1        0.0619
     51 H          -7.6361    0.6475    2.3690 H       1  UNL1        0.0632
     52 H          -5.9646    1.5584    0.9056 H       1  UNL1        0.0813
     53 H          -4.2753    4.5018   -1.9932 H       1  UNL1        0.1581
     54 H          -1.7366   -0.1110   -3.2294 H       1  UNL1        0.0624
     55 H          -0.1215   -1.7014   -4.2262 H       1  UNL1        0.0618
     56 H           1.8795   -2.3602   -2.9545 H       1  UNL1        0.0621
     57 H           3.3679   -1.9810   -1.4100 H       1  UNL1        0.0515
     58 H           2.3989   -2.5556   -0.0441 H       1  UNL1        0.0515
@<TRIPOS>BOND
     1     1     2    1
     2     2     3    1
     3     2     4    1
     4     4     5    1
     5     5     6    2
     6     5     7   am
     7     7     8    1
     8     8     9    1
     9     9    10    1
    10    10    11   ar
    11    11    12   ar
    12    12    13    1
    13    13    14    2
    14    14    15    1
    15    15    16   ar
    16    16    17   ar
    17    17    18   ar
    18    18    19   ar
    19    19    20   ar
    20    20    21   ar
    21    21    22   ar
    22    22    23   ar
    23    14    24    1
    24    24    25    2
    25    24    26   am
    26    26    27   am
    27    27    28    2
    28    12    29   ar
    29    29    30   ar
    30    30    31   ar
    31    31    32   ar
    32    32    33   ar
    33    33    34   ar
    34    33    35    1
    35    35     7    1
    36    34    10   ar
    37    27    13    1
    38    34    29   ar
    39    23    15   ar
    40    23    18   ar
    41     1    36    1
    42     1    37    1
    43     1    38    1
    44     2    39    1
    45     3    40    1
    46     3    41    1
    47     3    42    1
    48     8    43    1
    49     8    44    1
    50     9    45    1
    51     9    46    1
    52    11    47    1
    53    16    48    1
    54    19    49    1
    55    20    50    1
    56    21    51    1
    57    22    52    1
    58    26    53    1
    59    30    54    1
    60    31    55    1
    61    32    56    1
    62    35    57    1
    63    35    58    1
