
     RDKit          3D

 58 63  0  0  0  0  0  0  0  0999 V2000
    7.6239    0.9788    0.8450 C   0  0  0  0  0  0  0  0  0  0  0  0
    6.7982   -0.1629    1.4191 C   0  0  0  0  0  0  0  0  0  0  0  0
    7.0904   -0.2794    2.8831 C   0  0  0  0  0  0  0  0  0  0  0  0
    5.4234    0.0117    1.1457 O   0  0  0  0  0  0  0  0  0  0  0  0
    4.6671   -0.8782    0.4072 C   0  0  0  0  0  0  0  0  0  0  0  0
    5.2532   -1.8952   -0.0392 O   0  0  0  0  0  0  0  0  0  0  0  0
    3.2920   -0.6450    0.1690 N   0  0  0  0  0  0  0  0  0  0  0  0
    2.7638    0.5509    0.7538 C   0  0  0  0  0  0  0  0  0  0  0  0
    1.4332    0.2920    1.4733 C   0  0  0  0  0  0  0  0  0  0  0  0
    0.4182    0.4059    0.4343 N   0  0  0  0  0  0  0  0  0  0  0  0
   -0.6794    1.1696    0.4809 C   0  0  0  0  0  0  0  0  0  0  0  0
   -1.4032    1.0114   -0.7030 C   0  0  0  0  0  0  0  0  0  0  0  0
   -2.6240    1.7222   -1.0449 C   0  0  0  0  0  0  0  0  0  0  0  0
   -3.8655    1.2917   -1.1051 C   0  0  0  0  0  0  0  0  0  0  0  0
   -4.3719   -0.0281   -0.8425 C   0  0  0  0  0  0  0  0  0  0  0  0
   -4.0213   -1.2454   -1.3381 C   0  0  0  0  0  0  0  0  0  0  0  0
   -4.7885   -2.2023   -0.7402 N   0  0  0  0  0  0  0  0  0  0  0  0
   -5.6121   -1.6041    0.1200 C   0  0  0  0  0  0  0  0  0  0  0  0
   -6.5720   -2.1733    0.9610 C   0  0  0  0  0  0  0  0  0  0  0  0
   -7.3128   -1.3771    1.7799 C   0  0  0  0  0  0  0  0  0  0  0  0
   -7.0591   -0.0191    1.7237 C   0  0  0  0  0  0  0  0  0  0  0  0
   -6.0985    0.4909    0.8737 C   0  0  0  0  0  0  0  0  0  0  0  0
   -5.3681   -0.2950    0.0656 N   0  0  0  0  0  0  0  0  0  0  0  0
   -4.7682    2.3879   -1.5153 C   0  0  0  0  0  0  0  0  0  0  0  0
   -6.0063    2.3218   -1.6729 O   0  0  0  0  0  0  0  0  0  0  0  0
   -3.9875    3.5491   -1.7068 N   0  0  0  0  0  0  0  0  0  0  0  0
   -2.6595    3.1686   -1.4236 C   0  0  0  0  0  0  0  0  0  0  0  0
   -1.6282    3.9031   -1.4698 O   0  0  0  0  0  0  0  0  0  0  0  0
   -0.6800    0.1232   -1.4430 C   0  0  0  0  0  0  0  0  0  0  0  0
   -0.8467   -0.4233   -2.6989 C   0  0  0  0  0  0  0  0  0  0  0  0
    0.0653   -1.3065   -3.2335 C   0  0  0  0  0  0  0  0  0  0  0  0
    1.1879   -1.6638   -2.4972 C   0  0  0  0  0  0  0  0  0  0  0  0
    1.3893   -1.1418   -1.2470 C   0  0  0  0  0  0  0  0  0  0  0  0
    0.4616   -0.2636   -0.7426 C   0  0  0  0  0  0  0  0  0  0  0  0
    2.6354   -1.6434   -0.6285 C   0  0  0  0  0  0  0  0  0  0  0  0
    7.6939    0.9238   -0.2598 H   0  0  0  0  0  0  0  0  0  0  0  0
    7.1595    1.9365    1.1810 H   0  0  0  0  0  0  0  0  0  0  0  0
    8.6276    0.9083    1.2778 H   0  0  0  0  0  0  0  0  0  0  0  0
    7.0786   -1.1277    0.9333 H   0  0  0  0  0  0  0  0  0  0  0  0
    6.1665   -0.4645    3.4973 H   0  0  0  0  0  0  0  0  0  0  0  0
    7.6032    0.6482    3.2183 H   0  0  0  0  0  0  0  0  0  0  0  0
    7.8268   -1.0919    3.0358 H   0  0  0  0  0  0  0  0  0  0  0  0
    2.5907    1.2967   -0.0272 H   0  0  0  0  0  0  0  0  0  0  0  0
    3.4613    0.9906    1.5045 H   0  0  0  0  0  0  0  0  0  0  0  0
    1.2680    0.9730    2.3035 H   0  0  0  0  0  0  0  0  0  0  0  0
    1.5087   -0.7451    1.8587 H   0  0  0  0  0  0  0  0  0  0  0  0
   -0.9717    1.8109    1.2974 H   0  0  0  0  0  0  0  0  0  0  0  0
   -3.2925   -1.5249   -2.0791 H   0  0  0  0  0  0  0  0  0  0  0  0
   -6.7137   -3.2410    0.9495 H   0  0  0  0  0  0  0  0  0  0  0  0
   -8.0693   -1.7845    2.4488 H   0  0  0  0  0  0  0  0  0  0  0  0
   -7.6361    0.6475    2.3690 H   0  0  0  0  0  0  0  0  0  0  0  0
   -5.9646    1.5584    0.9056 H   0  0  0  0  0  0  0  0  0  0  0  0
   -4.2753    4.5018   -1.9932 H   0  0  0  0  0  0  0  0  0  0  0  0
   -1.7366   -0.1110   -3.2294 H   0  0  0  0  0  0  0  0  0  0  0  0
   -0.1215   -1.7014   -4.2262 H   0  0  0  0  0  0  0  0  0  0  0  0
    1.8795   -2.3602   -2.9545 H   0  0  0  0  0  0  0  0  0  0  0  0
    3.3679   -1.9810   -1.4100 H   0  0  0  0  0  0  0  0  0  0  0  0
    2.3989   -2.5556   -0.0441 H   0  0  0  0  0  0  0  0  0  0  0  0
  1  2  1  0
  2  3  1  0
  2  4  1  0
  4  5  1  0
  5  6  2  0
  5  7  1  0
  7  8  1  0
  8  9  1  0
  9 10  1  0
 10 11  1  0
 11 12  2  0
 12 13  1  0
 13 14  2  0
 14 15  1  0
 15 16  2  0
 16 17  1  0
 17 18  2  0
 18 19  1  0
 19 20  2  0
 20 21  1  0
 21 22  2  0
 22 23  1  0
 14 24  1  0
 24 25  2  0
 24 26  1  0
 26 27  1  0
 27 28  2  0
 12 29  1  0
 29 30  2  0
 30 31  1  0
 31 32  2  0
 32 33  1  0
 33 34  2  0
 33 35  1  0
 35  7  1  0
 34 10  1  0
 27 13  1  0
 34 29  1  0
 23 15  1  0
 23 18  1  0
  1 36  1  0
  1 37  1  0
  1 38  1  0
  2 39  1  0
  3 40  1  0
  3 41  1  0
  3 42  1  0
  8 43  1  0
  8 44  1  0
  9 45  1  0
  9 46  1  0
 11 47  1  0
 16 48  1  0
 19 49  1  0
 20 50  1  0
 21 51  1  0
 22 52  1  0
 26 53  1  0
 30 54  1  0
 31 55  1  0
 32 56  1  0
 35 57  1  0
 35 58  1  0
M  END
$$$$
