@<TRIPOS>MOLECULE
*****
 37 39 0 0 0
SMALL
GASTEIGER

@<TRIPOS>ATOM
      1 N          -2.1184   -2.4552    1.7764 N.3     1  UNL1       -0.3261
      2 C          -1.8688   -2.2666    0.3632 C.3     1  UNL1        0.0189
      3 C          -1.8856   -0.8530   -0.0176 C.ar    1  UNL1       -0.0284
      4 C          -2.9621   -0.3521   -0.7115 C.ar    1  UNL1       -0.0454
      5 C          -3.0674    0.9726   -1.1307 C.ar    1  UNL1        0.0551
      6 C          -4.2639    1.4443   -1.8835 C.3     1  UNL1        0.4174
      7 F          -3.9406    1.7092   -3.2180 F       1  UNL1       -0.1659
      8 F          -4.8689    2.5139   -1.2921 F       1  UNL1       -0.1659
      9 F          -5.1772    0.4005   -1.8985 F       1  UNL1       -0.1659
     10 C          -2.0116    1.8119   -0.8156 C.ar    1  UNL1       -0.0498
     11 C          -0.9137    1.3194   -0.1126 C.ar    1  UNL1       -0.0560
     12 C          -0.8253    0.0163    0.2923 C.ar    1  UNL1       -0.0233
     13 C           0.3216   -0.5215    1.0297 C.3     1  UNL1        0.0510
     14 N           1.5864    0.1090    0.7933 N.ar    1  UNL1       -0.3149
     15 C           1.9952    1.1030    1.6019 C.ar    1  UNL1        0.1614
     16 S           1.0718    1.6381    2.8639 S.2     1  UNL1       -0.0128
     17 N           3.1951    1.7255    1.4257 N.ar    1  UNL1       -0.3009
     18 C           4.0342    1.3798    0.4328 C.ar    1  UNL1        0.2761
     19 O           5.1497    1.9503    0.2549 O.2     1  UNL1       -0.2655
     20 C           3.6093    0.3574   -0.3968 C.ar    1  UNL1        0.1283
     21 N           4.2344   -0.1843   -1.4654 N.ar    1  UNL1       -0.3553
     22 C           3.4384   -1.1626   -1.9867 C.ar    1  UNL1        0.0043
     23 C           2.2990   -1.2121   -1.2084 C.ar    1  UNL1       -0.0200
     24 C           2.3951   -0.2674   -0.2128 C.ar    1  UNL1        0.0743
     25 H          -2.8770   -1.8043    2.0624 H       1  UNL1        0.1185
     26 H          -1.3034   -2.3898    2.3859 H       1  UNL1        0.1185
     27 H          -2.7287   -2.7925   -0.1603 H       1  UNL1        0.0471
     28 H          -0.9750   -2.8147   -0.0028 H       1  UNL1        0.0471
     29 H          -3.8025   -1.0126   -0.9633 H       1  UNL1        0.0626
     30 H          -2.0280    2.8403   -1.1105 H       1  UNL1        0.0623
     31 H          -0.0731    1.9723    0.1367 H       1  UNL1        0.0621
     32 H           0.4171   -1.6274    0.8615 H       1  UNL1        0.0542
     33 H           0.0786   -0.4634    2.1445 H       1  UNL1        0.0542
     34 H           3.5092    2.4966    2.0507 H       1  UNL1        0.1709
     35 H           5.1714    0.0754   -1.8542 H       1  UNL1        0.1655
     36 H           3.6988   -1.7540   -2.8500 H       1  UNL1        0.0807
     37 H           1.4861   -1.9022   -1.3934 H       1  UNL1        0.0653
@<TRIPOS>BOND
     1     1     2    1
     2     2     3    1
     3     3     4   ar
     4     4     5   ar
     5     5     6    1
     6     6     7    1
     7     6     8    1
     8     6     9    1
     9     5    10   ar
    10    10    11   ar
    11    11    12   ar
    12    12    13    1
    13    13    14    1
    14    14    15   ar
    15    15    16    2
    16    15    17   ar
    17    17    18   ar
    18    18    19    2
    19    18    20   ar
    20    20    21   ar
    21    21    22   ar
    22    22    23   ar
    23    23    24   ar
    24    12     3   ar
    25    24    14   ar
    26    24    20   ar
    27     1    25    1
    28     1    26    1
    29     2    27    1
    30     2    28    1
    31     4    29    1
    32    10    30    1
    33    11    31    1
    34    13    32    1
    35    13    33    1
    36    17    34    1
    37    21    35    1
    38    22    36    1
    39    23    37    1
