
     RDKit          3D

 37 39  0  0  0  0  0  0  0  0999 V2000
   -2.1184   -2.4552    1.7764 N   0  0  0  0  0  0  0  0  0  0  0  0
   -1.8688   -2.2666    0.3632 C   0  0  0  0  0  0  0  0  0  0  0  0
   -1.8856   -0.8530   -0.0176 C   0  0  0  0  0  0  0  0  0  0  0  0
   -2.9621   -0.3521   -0.7115 C   0  0  0  0  0  0  0  0  0  0  0  0
   -3.0674    0.9726   -1.1307 C   0  0  0  0  0  0  0  0  0  0  0  0
   -4.2639    1.4443   -1.8835 C   0  0  0  0  0  0  0  0  0  0  0  0
   -3.9406    1.7092   -3.2180 F   0  0  0  0  0  0  0  0  0  0  0  0
   -4.8689    2.5139   -1.2921 F   0  0  0  0  0  0  0  0  0  0  0  0
   -5.1772    0.4005   -1.8985 F   0  0  0  0  0  0  0  0  0  0  0  0
   -2.0116    1.8119   -0.8156 C   0  0  0  0  0  0  0  0  0  0  0  0
   -0.9137    1.3194   -0.1126 C   0  0  0  0  0  0  0  0  0  0  0  0
   -0.8253    0.0163    0.2923 C   0  0  0  0  0  0  0  0  0  0  0  0
    0.3216   -0.5215    1.0297 C   0  0  0  0  0  0  0  0  0  0  0  0
    1.5864    0.1090    0.7933 N   0  0  0  0  0  0  0  0  0  0  0  0
    1.9952    1.1030    1.6019 C   0  0  0  0  0  0  0  0  0  0  0  0
    1.0718    1.6381    2.8639 S   0  0  0  0  0  0  0  0  0  0  0  0
    3.1951    1.7255    1.4257 N   0  0  0  0  0  0  0  0  0  0  0  0
    4.0342    1.3798    0.4328 C   0  0  0  0  0  0  0  0  0  0  0  0
    5.1497    1.9503    0.2549 O   0  0  0  0  0  0  0  0  0  0  0  0
    3.6093    0.3574   -0.3968 C   0  0  0  0  0  0  0  0  0  0  0  0
    4.2344   -0.1843   -1.4654 N   0  0  0  0  0  0  0  0  0  0  0  0
    3.4384   -1.1626   -1.9867 C   0  0  0  0  0  0  0  0  0  0  0  0
    2.2990   -1.2121   -1.2084 C   0  0  0  0  0  0  0  0  0  0  0  0
    2.3951   -0.2674   -0.2128 C   0  0  0  0  0  0  0  0  0  0  0  0
   -2.8770   -1.8043    2.0624 H   0  0  0  0  0  0  0  0  0  0  0  0
   -1.3034   -2.3898    2.3859 H   0  0  0  0  0  0  0  0  0  0  0  0
   -2.7287   -2.7925   -0.1603 H   0  0  0  0  0  0  0  0  0  0  0  0
   -0.9750   -2.8147   -0.0028 H   0  0  0  0  0  0  0  0  0  0  0  0
   -3.8025   -1.0126   -0.9633 H   0  0  0  0  0  0  0  0  0  0  0  0
   -2.0280    2.8403   -1.1105 H   0  0  0  0  0  0  0  0  0  0  0  0
   -0.0731    1.9723    0.1367 H   0  0  0  0  0  0  0  0  0  0  0  0
    0.4171   -1.6274    0.8615 H   0  0  0  0  0  0  0  0  0  0  0  0
    0.0786   -0.4634    2.1445 H   0  0  0  0  0  0  0  0  0  0  0  0
    3.5092    2.4966    2.0507 H   0  0  0  0  0  0  0  0  0  0  0  0
    5.1714    0.0754   -1.8542 H   0  0  0  0  0  0  0  0  0  0  0  0
    3.6988   -1.7540   -2.8500 H   0  0  0  0  0  0  0  0  0  0  0  0
    1.4861   -1.9022   -1.3934 H   0  0  0  0  0  0  0  0  0  0  0  0
  1  2  1  0
  2  3  1  0
  3  4  2  0
  4  5  1  0
  5  6  1  0
  6  7  1  0
  6  8  1  0
  6  9  1  0
  5 10  2  0
 10 11  1  0
 11 12  2  0
 12 13  1  0
 13 14  1  0
 14 15  1  0
 15 16  2  0
 15 17  1  0
 17 18  1  0
 18 19  2  0
 18 20  1  0
 20 21  1  0
 21 22  1  0
 22 23  2  0
 23 24  1  0
 12  3  1  0
 24 14  1  0
 24 20  2  0
  1 25  1  0
  1 26  1  0
  2 27  1  0
  2 28  1  0
  4 29  1  0
 10 30  1  0
 11 31  1  0
 13 32  1  0
 13 33  1  0
 17 34  1  0
 21 35  1  0
 22 36  1  0
 23 37  1  0
M  END
$$$$
