@<TRIPOS>MOLECULE
*****
 50 53 0 0 0
SMALL
GASTEIGER

@<TRIPOS>ATOM
      1 C           7.4919   -0.9278    3.0807 C.3     1  UNL1       -0.0334
      2 C           6.7539   -0.9074    1.8233 C.ar    1  UNL1       -0.0125
      3 C           6.5355   -1.7847    0.8457 C.ar    1  UNL1       -0.0511
      4 C           5.7865   -1.4709   -0.2295 C.ar    1  UNL1       -0.0422
      5 C           5.2539   -0.2374   -0.3014 C.ar    1  UNL1        0.0741
      6 C           4.4085    0.3903   -1.3274 C.2     1  UNL1        0.2508
      7 O           4.0587   -0.2324   -2.3567 O.2     1  UNL1       -0.2696
      8 N           3.9572    1.7297   -1.1866 N.am    1  UNL1       -0.3073
      9 C           3.1240    2.3849   -2.1719 C.3     1  UNL1        0.0506
     10 C           1.8101    1.6658   -2.3694 C.3     1  UNL1        0.1361
     11 C           0.9312    1.7307   -1.1572 C.3     1  UNL1        0.0616
     12 N          -0.3928    1.5023   -1.7301 N.am    1  UNL1       -0.2337
     13 C          -1.5243    0.9127   -1.1025 C.ar    1  UNL1        0.0397
     14 C          -2.4384    1.6828   -0.4117 C.ar    1  UNL1       -0.0384
     15 C          -3.5363    1.1261    0.1995 C.ar    1  UNL1       -0.0385
     16 C          -3.7802   -0.2454    0.1512 C.ar    1  UNL1        0.0365
     17 N          -4.9065   -0.8219    0.7775 N.am    1  UNL1       -0.2673
     18 C          -6.1457   -0.9666    0.0613 C.3     1  UNL1        0.0433
     19 C          -6.9678   -2.0091    0.8303 C.3     1  UNL1        0.0644
     20 O          -7.2083   -1.6228    2.1232 O.3     1  UNL1       -0.3690
     21 C          -6.0933   -1.3957    2.8870 C.3     1  UNL1        0.1242
     22 C          -4.8415   -1.2672    2.1149 C.2     1  UNL1        0.2456
     23 O          -3.7221   -1.5565    2.6561 O.2     1  UNL1       -0.2727
     24 C          -2.8591   -1.0258   -0.5455 C.ar    1  UNL1       -0.0385
     25 C          -1.7683   -0.4425   -1.1483 C.ar    1  UNL1       -0.0384
     26 C          -0.2921    2.0075   -3.0682 C.2     1  UNL1        0.4076
     27 O          -1.2905    2.1015   -3.8187 O.2     1  UNL1       -0.2259
     28 O           1.0348    2.3443   -3.3391 O.3     1  UNL1       -0.4436
     29 S           5.8205    0.5500    1.2145 S.2     1  UNL1       -0.0889
     30 H           8.5738   -0.8081    2.8658 H       1  UNL1        0.0283
     31 H           7.3236   -1.8135    3.7005 H       1  UNL1        0.0283
     32 H           7.1931   -0.0270    3.6765 H       1  UNL1        0.0283
     33 H           6.9963   -2.8177    0.9312 H       1  UNL1        0.0626
     34 H           5.5799   -2.1887   -1.0776 H       1  UNL1        0.0630
     35 H           4.2609    2.2338   -0.3184 H       1  UNL1        0.1492
     36 H           2.9523    3.4193   -1.8735 H       1  UNL1        0.0499
     37 H           3.6698    2.3559   -3.1422 H       1  UNL1        0.0499
     38 H           1.9196    0.6339   -2.6974 H       1  UNL1        0.0766
     39 H           1.2261    0.8990   -0.4868 H       1  UNL1        0.0507
     40 H           1.0118    2.7203   -0.6886 H       1  UNL1        0.0507
     41 H          -2.2367    2.7642   -0.3796 H       1  UNL1        0.0637
     42 H          -4.2384    1.7466    0.7343 H       1  UNL1        0.0637
     43 H          -6.7583   -0.0473    0.0409 H       1  UNL1        0.0491
     44 H          -6.0069   -1.3536   -0.9676 H       1  UNL1        0.0491
     45 H          -7.9553   -2.1084    0.3224 H       1  UNL1        0.0576
     46 H          -6.4351   -2.9572    0.7148 H       1  UNL1        0.0576
     47 H          -6.2191   -0.4738    3.5105 H       1  UNL1        0.0657
     48 H          -5.9660   -2.2280    3.6118 H       1  UNL1        0.0657
     49 H          -3.0417   -2.1111   -0.5903 H       1  UNL1        0.0637
     50 H          -1.0491   -1.0533   -1.6925 H       1  UNL1        0.0637
@<TRIPOS>BOND
     1     1     2    1
     2     2     3   ar
     3     3     4   ar
     4     4     5   ar
     5     5     6    1
     6     6     7    2
     7     6     8   am
     8     8     9    1
     9     9    10    1
    10    10    11    1
    11    11    12    1
    12    12    13    1
    13    13    14   ar
    14    14    15   ar
    15    15    16   ar
    16    16    17    1
    17    17    18    1
    18    18    19    1
    19    19    20    1
    20    20    21    1
    21    21    22    1
    22    22    23    2
    23    16    24   ar
    24    24    25   ar
    25    12    26   am
    26    26    27    2
    27    26    28    1
    28     5    29   ar
    29    29     2   ar
    30    28    10    1
    31    25    13   ar
    32    22    17   am
    33     1    30    1
    34     1    31    1
    35     1    32    1
    36     3    33    1
    37     4    34    1
    38     8    35    1
    39     9    36    1
    40     9    37    1
    41    10    38    1
    42    11    39    1
    43    11    40    1
    44    14    41    1
    45    15    42    1
    46    18    43    1
    47    18    44    1
    48    19    45    1
    49    19    46    1
    50    21    47    1
    51    21    48    1
    52    24    49    1
    53    25    50    1
