
     RDKit          3D

 50 53  0  0  0  0  0  0  0  0999 V2000
    0.5335   -4.0757   -1.3503 C   0  0  0  0  0  0  0  0  0  0  0  0
    0.1603   -2.8308   -1.1347 C   0  0  0  0  0  0  0  0  0  0  0  0
   -1.3149   -2.6436   -0.9873 C   0  0  0  0  0  0  0  0  0  0  0  0
    1.1352   -1.7578   -1.1443 C   0  0  0  0  0  0  0  0  0  0  0  0
    2.4267   -2.0430   -1.6423 C   0  0  0  0  0  0  0  0  0  0  0  0
    3.3531   -1.0875   -1.7021 N   0  0  0  0  0  0  0  0  0  0  0  0
    3.1205    0.1600   -1.3060 C   0  0  0  0  0  0  0  0  0  0  0  0
    4.2084    1.1355   -1.4165 C   0  0  0  0  0  0  0  0  0  0  0  0
    4.1014    2.4530   -1.0442 C   0  0  0  0  0  0  0  0  0  0  0  0
    5.1472    3.3471   -1.1616 C   0  0  0  0  0  0  0  0  0  0  0  0
    4.9376    5.0127   -0.6665 Cl  0  0  0  0  0  0  0  0  0  0  0  0
    6.3604    2.9384   -1.6674 C   0  0  0  0  0  0  0  0  0  0  0  0
    6.5014    1.6250   -2.0499 C   0  0  0  0  0  0  0  0  0  0  0  0
    5.4407    0.7545   -1.9215 C   0  0  0  0  0  0  0  0  0  0  0  0
    5.5869   -0.5430   -2.3016 F   0  0  0  0  0  0  0  0  0  0  0  0
    1.8840    0.4663   -0.8186 C   0  0  0  0  0  0  0  0  0  0  0  0
    0.8609   -0.4874   -0.7239 C   0  0  0  0  0  0  0  0  0  0  0  0
   -0.4007   -0.0449   -0.1748 N   0  0  0  0  0  0  0  0  0  0  0  0
   -0.7599   -0.5465    1.0891 C   0  0  0  0  0  0  0  0  0  0  0  0
    0.1368   -1.3944    1.7679 C   0  0  0  0  0  0  0  0  0  0  0  0
   -0.1443   -1.9245    2.9948 C   0  0  0  0  0  0  0  0  0  0  0  0
   -1.3222   -1.6027    3.5364 N   0  0  0  0  0  0  0  0  0  0  0  0
   -2.2138   -0.7974    2.9301 C   0  0  0  0  0  0  0  0  0  0  0  0
   -1.9571   -0.2339    1.6657 C   0  0  0  0  0  0  0  0  0  0  0  0
   -2.9464    0.6128    1.0643 C   0  0  0  0  0  0  0  0  0  0  0  0
   -2.7655    1.1192   -0.0646 O   0  0  0  0  0  0  0  0  0  0  0  0
   -4.1904    0.9531    1.6655 N   0  0  0  0  0  0  0  0  0  0  0  0
   -5.1468    1.8313    0.9719 C   0  0  0  0  0  0  0  0  0  0  0  0
   -6.1273    2.6117    1.7361 C   0  0  0  0  0  0  0  0  0  0  0  0
   -6.5905    1.3660    1.0757 C   0  0  0  0  0  0  0  0  0  0  0  0
    1.5162   -4.4588   -1.4861 H   0  0  0  0  0  0  0  0  0  0  0  0
   -0.2504   -4.8562   -1.4042 H   0  0  0  0  0  0  0  0  0  0  0  0
   -1.6059   -1.6656   -1.3359 H   0  0  0  0  0  0  0  0  0  0  0  0
   -1.6778   -2.9175    0.0015 H   0  0  0  0  0  0  0  0  0  0  0  0
   -1.8377   -3.3717   -1.7192 H   0  0  0  0  0  0  0  0  0  0  0  0
    2.6413   -3.0444   -1.9782 H   0  0  0  0  0  0  0  0  0  0  0  0
    3.1805    2.8246   -0.6446 H   0  0  0  0  0  0  0  0  0  0  0  0
    7.1809    3.6324   -1.7615 H   0  0  0  0  0  0  0  0  0  0  0  0
    7.4715    1.3249   -2.4475 H   0  0  0  0  0  0  0  0  0  0  0  0
    1.6850    1.4851   -0.4923 H   0  0  0  0  0  0  0  0  0  0  0  0
   -0.9171    0.6042   -0.7678 H   0  0  0  0  0  0  0  0  0  0  0  0
    1.0784   -1.6319    1.3110 H   0  0  0  0  0  0  0  0  0  0  0  0
    0.5484   -2.5855    3.5294 H   0  0  0  0  0  0  0  0  0  0  0  0
   -3.1543   -0.5744    3.4234 H   0  0  0  0  0  0  0  0  0  0  0  0
   -4.4119    0.5725    2.6005 H   0  0  0  0  0  0  0  0  0  0  0  0
   -4.8495    2.2070   -0.0282 H   0  0  0  0  0  0  0  0  0  0  0  0
   -6.4928    3.5623    1.3048 H   0  0  0  0  0  0  0  0  0  0  0  0
   -6.0838    2.6362    2.8538 H   0  0  0  0  0  0  0  0  0  0  0  0
   -7.2398    1.4445    0.1680 H   0  0  0  0  0  0  0  0  0  0  0  0
   -6.7966    0.4390    1.6538 H   0  0  0  0  0  0  0  0  0  0  0  0
  1  2  2  3
  2  3  1  0
  2  4  1  0
  4  5  2  0
  5  6  1  0
  6  7  2  0
  7  8  1  0
  8  9  2  0
  9 10  1  0
 10 11  1  0
 10 12  2  0
 12 13  1  0
 13 14  2  0
 14 15  1  0
  7 16  1  0
 16 17  2  0
 17 18  1  0
 18 19  1  0
 19 20  2  0
 20 21  1  0
 21 22  2  0
 22 23  1  0
 23 24  2  0
 24 25  1  0
 25 26  2  0
 25 27  1  0
 27 28  1  0
 28 29  1  0
 29 30  1  0
 17  4  1  0
 24 19  1  0
 30 28  1  0
 14  8  1  0
  1 31  1  0
  1 32  1  0
  3 33  1  0
  3 34  1  0
  3 35  1  0
  5 36  1  0
  9 37  1  0
 12 38  1  0
 13 39  1  0
 16 40  1  0
 18 41  1  0
 20 42  1  0
 21 43  1  0
 23 44  1  0
 27 45  1  0
 28 46  1  0
 29 47  1  0
 29 48  1  0
 30 49  1  0
 30 50  1  0
M  END
$$$$
