@<TRIPOS>MOLECULE
*****
 50 53 0 0 0
SMALL
GASTEIGER

@<TRIPOS>ATOM
      1 C           0.5335   -4.0757   -1.3503 C.2     1  UNL1       -0.0951
      2 C           0.1603   -2.8308   -1.1347 C.2     1  UNL1       -0.0472
      3 C          -1.3149   -2.6436   -0.9873 C.3     1  UNL1       -0.0396
      4 C           1.1352   -1.7578   -1.1443 C.ar    1  UNL1        0.0166
      5 C           2.4267   -2.0430   -1.6423 C.ar    1  UNL1        0.0374
      6 N           3.3531   -1.0875   -1.7021 N.ar    1  UNL1       -0.2542
      7 C           3.1205    0.1600   -1.3060 C.ar    1  UNL1        0.0755
      8 C           4.2084    1.1355   -1.4165 C.ar    1  UNL1        0.0369
      9 C           4.1014    2.4530   -1.0442 C.ar    1  UNL1       -0.0314
     10 C           5.1472    3.3471   -1.1616 C.ar    1  UNL1        0.0418
     11 CL          4.9376    5.0127   -0.6665 Cl      1  UNL1       -0.0835
     12 C           6.3604    2.9384   -1.6674 C.ar    1  UNL1       -0.0406
     13 C           6.5014    1.6250   -2.0499 C.ar    1  UNL1       -0.0244
     14 C           5.4407    0.7545   -1.9215 C.ar    1  UNL1        0.1326
     15 F           5.5869   -0.5430   -2.3016 F       1  UNL1       -0.2048
     16 C           1.8840    0.4663   -0.8186 C.ar    1  UNL1       -0.0138
     17 C           0.8609   -0.4874   -0.7239 C.ar    1  UNL1        0.0423
     18 N          -0.4007   -0.0449   -0.1748 N.pl3   1  UNL1       -0.3133
     19 C          -0.7599   -0.5465    1.0891 C.ar    1  UNL1        0.0465
     20 C           0.1368   -1.3944    1.7679 C.ar    1  UNL1       -0.0217
     21 C          -0.1443   -1.9245    2.9948 C.ar    1  UNL1        0.0293
     22 N          -1.3222   -1.6027    3.5364 N.ar    1  UNL1       -0.2624
     23 C          -2.2138   -0.7974    2.9301 C.ar    1  UNL1        0.0415
     24 C          -1.9571   -0.2339    1.6657 C.ar    1  UNL1        0.0758
     25 C          -2.9464    0.6128    1.0643 C.2     1  UNL1        0.2476
     26 O          -2.7655    1.1192   -0.0646 O.2     1  UNL1       -0.2701
     27 N          -4.1904    0.9531    1.6655 N.am    1  UNL1       -0.3084
     28 C          -5.1468    1.8313    0.9719 C.3     1  UNL1        0.0235
     29 C          -6.1273    2.6117    1.7361 C.3     1  UNL1       -0.0328
     30 C          -6.5905    1.3660    1.0757 C.3     1  UNL1       -0.0328
     31 H           1.5162   -4.4588   -1.4861 H       1  UNL1        0.0538
     32 H          -0.2504   -4.8562   -1.4042 H       1  UNL1        0.0538
     33 H          -1.6059   -1.6656   -1.3359 H       1  UNL1        0.0278
     34 H          -1.6778   -2.9175    0.0015 H       1  UNL1        0.0278
     35 H          -1.8377   -3.3717   -1.7192 H       1  UNL1        0.0278
     36 H           2.6413   -3.0444   -1.9782 H       1  UNL1        0.0836
     37 H           3.1805    2.8246   -0.6446 H       1  UNL1        0.0639
     38 H           7.1809    3.6324   -1.7615 H       1  UNL1        0.0633
     39 H           7.4715    1.3249   -2.4475 H       1  UNL1        0.0647
     40 H           1.6850    1.4851   -0.4923 H       1  UNL1        0.0658
     41 H          -0.9171    0.6042   -0.7678 H       1  UNL1        0.1522
     42 H           1.0784   -1.6319    1.3110 H       1  UNL1        0.0651
     43 H           0.5484   -2.5855    3.5294 H       1  UNL1        0.0830
     44 H          -3.1543   -0.5744    3.4234 H       1  UNL1        0.0838
     45 H          -4.4119    0.5725    2.6005 H       1  UNL1        0.1493
     46 H          -4.8495    2.2070   -0.0282 H       1  UNL1        0.0498
     47 H          -6.4928    3.5623    1.3048 H       1  UNL1        0.0284
     48 H          -6.0838    2.6362    2.8538 H       1  UNL1        0.0284
     49 H          -7.2398    1.4445    0.1680 H       1  UNL1        0.0284
     50 H          -6.7966    0.4390    1.6538 H       1  UNL1        0.0284
@<TRIPOS>BOND
     1     1     2    2
     2     2     3    1
     3     2     4    1
     4     4     5   ar
     5     5     6   ar
     6     6     7   ar
     7     7     8    1
     8     8     9   ar
     9     9    10   ar
    10    10    11    1
    11    10    12   ar
    12    12    13   ar
    13    13    14   ar
    14    14    15    1
    15     7    16   ar
    16    16    17   ar
    17    17    18    1
    18    18    19    1
    19    19    20   ar
    20    20    21   ar
    21    21    22   ar
    22    22    23   ar
    23    23    24   ar
    24    24    25    1
    25    25    26    2
    26    25    27   am
    27    27    28    1
    28    28    29    1
    29    29    30    1
    30    17     4   ar
    31    24    19   ar
    32    30    28    1
    33    14     8   ar
    34     1    31    1
    35     1    32    1
    36     3    33    1
    37     3    34    1
    38     3    35    1
    39     5    36    1
    40     9    37    1
    41    12    38    1
    42    13    39    1
    43    16    40    1
    44    18    41    1
    45    20    42    1
    46    21    43    1
    47    23    44    1
    48    27    45    1
    49    28    46    1
    50    29    47    1
    51    29    48    1
    52    30    49    1
    53    30    50    1
