@<TRIPOS>MOLECULE
*****
 47 50 0 0 0
SMALL
GASTEIGER

@<TRIPOS>ATOM
      1 N           2.0866   -1.9512   -2.7220 N.pl3   1  UNL1       -0.3134
      2 C           2.6342   -1.3512   -1.5493 C.2     1  UNL1        0.2766
      3 N           1.8725   -1.0545   -0.5559 N.2     1  UNL1       -0.2228
      4 C           2.4703   -0.4480    0.6156 C.3     1  UNL1        0.1258
      5 C           3.0730   -1.5718    1.4133 C.3     1  UNL1        0.1196
      6 F           2.0491   -2.4514    1.7595 F       1  UNL1       -0.2462
      7 C           1.4431    0.3011    1.3734 C.ar    1  UNL1        0.0196
      8 C           0.1498    0.3094    0.8544 C.ar    1  UNL1       -0.0322
      9 C          -0.8802    0.9738    1.4681 C.ar    1  UNL1        0.0329
     10 N          -2.2122    1.0419    1.0469 N.pl3   1  UNL1       -0.2977
     11 C          -2.8192    0.2683    0.0239 C.ar    1  UNL1        0.1492
     12 N          -2.1979   -0.6798   -0.6910 N.ar    1  UNL1       -0.2351
     13 C          -2.7948   -1.4001   -1.6562 C.ar    1  UNL1        0.0656
     14 C          -4.1192   -1.2207   -1.9976 C.ar    1  UNL1        0.1507
     15 F          -4.7426   -1.9337   -2.9659 F       1  UNL1       -0.2032
     16 C          -4.8158   -0.2468   -1.2863 C.ar    1  UNL1        0.0418
     17 C          -6.1428   -0.0380   -1.5982 C.ar    1  UNL1       -0.0298
     18 C          -6.8380    0.9223   -0.8993 C.ar    1  UNL1        0.0597
     19 CL         -8.5348    1.2616   -1.2243 Cl      1  UNL1       -0.0820
     20 C          -6.1402    1.6152    0.0780 C.ar    1  UNL1        0.0467
     21 N          -4.8533    1.4025    0.3701 N.ar    1  UNL1       -0.2500
     22 C          -4.1590    0.4614   -0.3097 C.ar    1  UNL1        0.1137
     23 C          -0.5476    1.6440    2.6500 C.ar    1  UNL1       -0.0378
     24 C           0.7119    1.6585    3.1907 C.ar    1  UNL1       -0.0243
     25 C           1.7313    0.9680    2.5330 C.ar    1  UNL1        0.1291
     26 F           2.9802    0.9311    3.0008 F       1  UNL1       -0.2051
     27 C           3.4941    0.5606    0.1581 C.3     1  UNL1        0.0251
     28 C           4.4477    0.0815   -0.8773 C.3     1  UNL1        0.1998
     29 C           5.8826   -0.0088   -0.4230 C.3     1  UNL1        0.4266
     30 F           6.3562    1.2413   -0.0172 F       1  UNL1       -0.1669
     31 F           6.7214   -0.3949   -1.4553 F       1  UNL1       -0.1669
     32 F           6.0197   -0.8237    0.6784 F       1  UNL1       -0.1669
     33 O           4.0037   -1.1073   -1.5331 O.2     1  UNL1       -0.4534
     34 H           2.6869   -2.5158   -3.3538 H       1  UNL1        0.1466
     35 H           1.0653   -1.8248   -2.9553 H       1  UNL1        0.1466
     36 H           3.6989   -2.1703    0.7004 H       1  UNL1        0.0643
     37 H           3.7155   -1.2807    2.2370 H       1  UNL1        0.0643
     38 H          -0.0702   -0.2149   -0.0648 H       1  UNL1        0.0640
     39 H          -2.8461    1.7419    1.5317 H       1  UNL1        0.1536
     40 H          -2.2598   -2.1677   -2.2228 H       1  UNL1        0.0860
     41 H          -6.6741   -0.5840   -2.3612 H       1  UNL1        0.0640
     42 H          -6.7104    2.3669    0.6141 H       1  UNL1        0.0844
     43 H          -1.3028    2.2068    3.2185 H       1  UNL1        0.0637
     44 H           0.9671    2.1766    4.1040 H       1  UNL1        0.0647
     45 H           2.8808    1.4372   -0.2151 H       1  UNL1        0.0331
     46 H           4.0625    1.0092    1.0163 H       1  UNL1        0.0331
     47 H           4.4568    0.8591   -1.7018 H       1  UNL1        0.0826
@<TRIPOS>BOND
     1     1     2    1
     2     2     3    2
     3     3     4    1
     4     4     5    1
     5     5     6    1
     6     4     7    1
     7     7     8   ar
     8     8     9   ar
     9     9    10    1
    10    10    11    1
    11    11    12   ar
    12    12    13   ar
    13    13    14   ar
    14    14    15    1
    15    14    16   ar
    16    16    17   ar
    17    17    18   ar
    18    18    19    1
    19    18    20   ar
    20    20    21   ar
    21    21    22   ar
    22     9    23   ar
    23    23    24   ar
    24    24    25   ar
    25    25    26    1
    26     4    27    1
    27    27    28    1
    28    28    29    1
    29    29    30    1
    30    29    31    1
    31    29    32    1
    32    28    33    1
    33    33     2    1
    34    25     7   ar
    35    22    11   ar
    36    22    16   ar
    37     1    34    1
    38     1    35    1
    39     5    36    1
    40     5    37    1
    41     8    38    1
    42    10    39    1
    43    13    40    1
    44    17    41    1
    45    20    42    1
    46    23    43    1
    47    24    44    1
    48    27    45    1
    49    27    46    1
    50    28    47    1
