
     RDKit          3D

 47 50  0  0  0  0  0  0  0  0999 V2000
    2.0866   -1.9512   -2.7220 N   0  0  0  0  0  0  0  0  0  0  0  0
    2.6342   -1.3512   -1.5493 C   0  0  0  0  0  0  0  0  0  0  0  0
    1.8725   -1.0545   -0.5559 N   0  0  0  0  0  0  0  0  0  0  0  0
    2.4703   -0.4480    0.6156 C   0  0  2  0  0  0  0  0  0  0  0  0
    3.0730   -1.5718    1.4133 C   0  0  0  0  0  0  0  0  0  0  0  0
    2.0491   -2.4514    1.7595 F   0  0  0  0  0  0  0  0  0  0  0  0
    1.4431    0.3011    1.3734 C   0  0  0  0  0  0  0  0  0  0  0  0
    0.1498    0.3094    0.8544 C   0  0  0  0  0  0  0  0  0  0  0  0
   -0.8802    0.9738    1.4681 C   0  0  0  0  0  0  0  0  0  0  0  0
   -2.2122    1.0419    1.0469 N   0  0  0  0  0  0  0  0  0  0  0  0
   -2.8192    0.2683    0.0239 C   0  0  0  0  0  0  0  0  0  0  0  0
   -2.1979   -0.6798   -0.6910 N   0  0  0  0  0  0  0  0  0  0  0  0
   -2.7948   -1.4001   -1.6562 C   0  0  0  0  0  0  0  0  0  0  0  0
   -4.1192   -1.2207   -1.9976 C   0  0  0  0  0  0  0  0  0  0  0  0
   -4.7426   -1.9337   -2.9659 F   0  0  0  0  0  0  0  0  0  0  0  0
   -4.8158   -0.2468   -1.2863 C   0  0  0  0  0  0  0  0  0  0  0  0
   -6.1428   -0.0380   -1.5982 C   0  0  0  0  0  0  0  0  0  0  0  0
   -6.8380    0.9223   -0.8993 C   0  0  0  0  0  0  0  0  0  0  0  0
   -8.5348    1.2616   -1.2243 Cl  0  0  0  0  0  0  0  0  0  0  0  0
   -6.1402    1.6152    0.0780 C   0  0  0  0  0  0  0  0  0  0  0  0
   -4.8533    1.4025    0.3701 N   0  0  0  0  0  0  0  0  0  0  0  0
   -4.1590    0.4614   -0.3097 C   0  0  0  0  0  0  0  0  0  0  0  0
   -0.5476    1.6440    2.6500 C   0  0  0  0  0  0  0  0  0  0  0  0
    0.7119    1.6585    3.1907 C   0  0  0  0  0  0  0  0  0  0  0  0
    1.7313    0.9680    2.5330 C   0  0  0  0  0  0  0  0  0  0  0  0
    2.9802    0.9311    3.0008 F   0  0  0  0  0  0  0  0  0  0  0  0
    3.4941    0.5606    0.1581 C   0  0  0  0  0  0  0  0  0  0  0  0
    4.4477    0.0815   -0.8773 C   0  0  1  0  0  0  0  0  0  0  0  0
    5.8826   -0.0088   -0.4230 C   0  0  0  0  0  0  0  0  0  0  0  0
    6.3562    1.2413   -0.0172 F   0  0  0  0  0  0  0  0  0  0  0  0
    6.7214   -0.3949   -1.4553 F   0  0  0  0  0  0  0  0  0  0  0  0
    6.0197   -0.8237    0.6784 F   0  0  0  0  0  0  0  0  0  0  0  0
    4.0037   -1.1073   -1.5331 O   0  0  0  0  0  0  0  0  0  0  0  0
    2.6869   -2.5158   -3.3538 H   0  0  0  0  0  0  0  0  0  0  0  0
    1.0653   -1.8248   -2.9553 H   0  0  0  0  0  0  0  0  0  0  0  0
    3.6989   -2.1703    0.7004 H   0  0  0  0  0  0  0  0  0  0  0  0
    3.7155   -1.2807    2.2370 H   0  0  0  0  0  0  0  0  0  0  0  0
   -0.0702   -0.2149   -0.0648 H   0  0  0  0  0  0  0  0  0  0  0  0
   -2.8461    1.7419    1.5317 H   0  0  0  0  0  0  0  0  0  0  0  0
   -2.2598   -2.1677   -2.2228 H   0  0  0  0  0  0  0  0  0  0  0  0
   -6.6741   -0.5840   -2.3612 H   0  0  0  0  0  0  0  0  0  0  0  0
   -6.7104    2.3669    0.6141 H   0  0  0  0  0  0  0  0  0  0  0  0
   -1.3028    2.2068    3.2185 H   0  0  0  0  0  0  0  0  0  0  0  0
    0.9671    2.1766    4.1040 H   0  0  0  0  0  0  0  0  0  0  0  0
    2.8808    1.4372   -0.2151 H   0  0  0  0  0  0  0  0  0  0  0  0
    4.0625    1.0092    1.0163 H   0  0  0  0  0  0  0  0  0  0  0  0
    4.4568    0.8591   -1.7018 H   0  0  0  0  0  0  0  0  0  0  0  0
  1  2  1  0
  2  3  2  0
  3  4  1  0
  4  5  1  1
  5  6  1  0
  4  7  1  0
  7  8  2  0
  8  9  1  0
  9 10  1  0
 10 11  1  0
 11 12  2  0
 12 13  1  0
 13 14  2  0
 14 15  1  0
 14 16  1  0
 16 17  2  0
 17 18  1  0
 18 19  1  0
 18 20  2  0
 20 21  1  0
 21 22  2  0
  9 23  2  0
 23 24  1  0
 24 25  2  0
 25 26  1  0
  4 27  1  0
 27 28  1  0
 28 29  1  0
 29 30  1  0
 29 31  1  0
 29 32  1  0
 28 33  1  0
 33  2  1  0
 25  7  1  0
 22 11  1  0
 22 16  1  0
  1 34  1  0
  1 35  1  0
  5 36  1  0
  5 37  1  0
  8 38  1  0
 10 39  1  0
 13 40  1  0
 17 41  1  0
 20 42  1  0
 23 43  1  0
 24 44  1  0
 27 45  1  0
 27 46  1  0
 28 47  1  6
M  END
$$$$
