@<TRIPOS>MOLECULE
*****
 30 31 0 0 0
SMALL
GASTEIGER

@<TRIPOS>ATOM
      1 N          -5.0086   -1.4207   -1.0187 N.pl3   1  UNL1        0.5000
      2 C          -4.4185   -0.3974   -0.2027 C.2     1  UNL1        0.0000
      3 N          -5.0044    0.3740    0.6615 N.2     1  UNL1        0.5000
      4 C          -2.9885   -0.1090   -0.2783 C.ar    1  UNL1        0.0000
      5 C          -2.4005    1.0937   -0.0558 C.ar    1  UNL1        0.0000
      6 C          -1.0339    1.2577   -0.1541 C.ar    1  UNL1        0.0000
      7 C          -0.1952    0.1878   -0.4882 C.ar    1  UNL1        0.0000
      8 C           1.2913    0.3299   -0.6036 C.3     1  UNL1        0.0000
      9 O           1.8698    0.0761    0.6309 O.3     1  UNL1        0.0000
     10 B           3.3340    0.2065    0.5566 B       1  UNL1        0.0000
     11 O           4.1285   -0.7604   -0.2295 O.3     1  UNL1        0.0000
     12 C           5.4161   -0.3540    0.0384 C.3     1  UNL1        0.0000
     13 C           5.3756   -0.0660    1.5220 C.3     1  UNL1        0.0000
     14 O           4.1962    0.6825    1.6466 O.3     1  UNL1        0.0000
     15 C          -0.8243   -1.0243   -0.7087 C.ar    1  UNL1        0.0000
     16 C          -2.1883   -1.1811   -0.6090 C.ar    1  UNL1        0.0000
     17 H          -4.8768   -2.4516   -0.9908 H       1  UNL1        0.0000
     18 H          -5.6147   -0.8289   -1.6554 H       1  UNL1        0.0000
     19 H          -5.3607    1.0439    1.3751 H       1  UNL1        0.0000
     20 H          -5.8250    0.7494    1.2115 H       1  UNL1        0.0000
     21 H          -3.0442    1.9247    0.2029 H       1  UNL1        0.0000
     22 H          -0.5747    2.2255    0.0263 H       1  UNL1        0.0000
     23 H           1.5679    1.2865   -1.0521 H       1  UNL1        0.0000
     24 H           1.6063   -0.4977   -1.3040 H       1  UNL1        0.0000
     25 H           6.1526   -1.1056   -0.2484 H       1  UNL1        0.0000
     26 H           5.6115    0.6402   -0.4509 H       1  UNL1        0.0000
     27 H           6.2709    0.4880    1.8786 H       1  UNL1        0.0000
     28 H           5.3525   -1.0168    2.0725 H       1  UNL1        0.0000
     29 H          -0.2168   -1.8983   -0.9739 H       1  UNL1        0.0000
     30 H          -2.5982   -2.1686   -0.7989 H       1  UNL1        0.0000
@<TRIPOS>UNITY_ATOM_ATTR
3 1
charge 1
@<TRIPOS>BOND
     1     1     2    1
     2     2     3    2
     3     2     4    1
     4     4     5   ar
     5     5     6   ar
     6     6     7   ar
     7     7     8    1
     8     8     9    1
     9     9    10    1
    10    10    11    1
    11    11    12    1
    12    12    13    1
    13    13    14    1
    14     7    15   ar
    15    15    16   ar
    16    16     4   ar
    17    14    10    1
    18     1    17    1
    19     1    18    1
    20     3    19    1
    21     3    20    1
    22     5    21    1
    23     6    22    1
    24     8    23    1
    25     8    24    1
    26    12    25    1
    27    12    26    1
    28    13    27    1
    29    13    28    1
    30    15    29    1
    31    16    30    1
