@<TRIPOS>MOLECULE
*****
 45 48 0 0 0
SMALL
GASTEIGER

@<TRIPOS>ATOM
      1 N          -7.5239    1.0470   -0.2098 N.am    1  UNL1       -0.3134
      2 C          -6.6333    0.1810    0.4796 C.2     1  UNL1        0.2973
      3 O          -6.8370   -1.0358    0.3235 O.2     1  UNL1       -0.2531
      4 N          -5.5852    0.6325    1.2892 N.am    1  UNL1       -0.2955
      5 C          -4.6306   -0.1656    2.0266 C.3     1  UNL1        0.0383
      6 C          -3.6290   -0.6937    1.0665 C.ar    1  UNL1       -0.0297
      7 C          -2.5112    0.1173    0.8374 C.ar    1  UNL1       -0.0492
      8 C          -1.5439   -0.3347   -0.0519 C.ar    1  UNL1       -0.0141
      9 C          -1.6327   -1.5516   -0.7241 C.ar    1  UNL1       -0.0539
     10 C          -2.7389   -2.3219   -0.4778 C.ar    1  UNL1       -0.0609
     11 C          -3.7000   -1.8906    0.3953 C.ar    1  UNL1       -0.0570
     12 C          -0.3886    0.5654   -0.2514 C.ar    1  UNL1        0.0242
     13 C           0.9122    0.0565   -0.2531 C.ar    1  UNL1        0.1336
     14 O           1.0355   -1.2935   -0.0626 O.3     1  UNL1       -0.5055
     15 C           2.0277    0.8378   -0.4329 C.ar    1  UNL1        0.0403
     16 C           1.7828    2.1813   -0.6153 C.ar    1  UNL1       -0.0491
     17 C           0.5285    2.7522   -0.6255 C.ar    1  UNL1       -0.0603
     18 C          -0.5682    1.9255   -0.4401 C.ar    1  UNL1       -0.0505
     19 C           3.3885    0.3252   -0.4374 C.ar    1  UNL1        0.0511
     20 C           4.5166    1.0972   -0.6152 C.ar    1  UNL1       -0.0271
     21 C           5.6512    0.3178   -0.5677 C.ar    1  UNL1        0.0183
     22 C           5.2083   -0.9687   -0.3550 C.ar    1  UNL1        0.0498
     23 N           3.8548   -0.9233   -0.2829 N.ar    1  UNL1       -0.3540
     24 C           6.1076   -2.0280   -0.2529 C.ar    1  UNL1       -0.0196
     25 C           7.4665   -1.7144   -0.3773 C.ar    1  UNL1        0.0295
     26 N           7.8914   -0.4537   -0.5853 N.ar    1  UNL1       -0.2625
     27 C           7.0117    0.5719   -0.6835 C.ar    1  UNL1        0.0367
     28 H          -7.0671    1.8414   -0.7292 H       1  UNL1        0.1465
     29 H          -8.5646    0.9997   -0.2683 H       1  UNL1        0.1465
     30 H          -5.4959    1.6690    1.3583 H       1  UNL1        0.1506
     31 H          -4.1110    0.4225    2.7974 H       1  UNL1        0.0512
     32 H          -5.2132   -0.9926    2.4856 H       1  UNL1        0.0512
     33 H          -2.4108    1.0675    1.3423 H       1  UNL1        0.0627
     34 H          -0.8290   -1.8170   -1.3980 H       1  UNL1        0.0624
     35 H          -2.8193   -3.2747   -0.9971 H       1  UNL1        0.0618
     36 H          -4.5448   -2.5069    0.5702 H       1  UNL1        0.0621
     37 H           0.9767   -1.7642    0.8335 H       1  UNL1        0.2922
     38 H           2.6195    2.8806   -0.7670 H       1  UNL1        0.0625
     39 H           0.4069    3.8182   -0.7745 H       1  UNL1        0.0618
     40 H          -1.5801    2.3162   -0.4382 H       1  UNL1        0.0625
     41 H           4.6027    2.1626   -0.7750 H       1  UNL1        0.0645
     42 H           3.2992   -1.7686   -0.1277 H       1  UNL1        0.1659
     43 H           5.7774   -3.0445   -0.0860 H       1  UNL1        0.0653
     44 H           8.1292   -2.5723   -0.2910 H       1  UNL1        0.0830
     45 H           7.3636    1.5900   -0.8518 H       1  UNL1        0.0836
@<TRIPOS>BOND
     1     1     2   am
     2     2     3    2
     3     2     4   am
     4     4     5    1
     5     5     6    1
     6     6     7   ar
     7     7     8   ar
     8     8     9   ar
     9     9    10   ar
    10    10    11   ar
    11     8    12    1
    12    12    13   ar
    13    13    14    1
    14    13    15   ar
    15    15    16   ar
    16    16    17   ar
    17    17    18   ar
    18    15    19    1
    19    19    20   ar
    20    20    21   ar
    21    21    22   ar
    22    22    23   ar
    23    22    24   ar
    24    24    25   ar
    25    25    26   ar
    26    26    27   ar
    27    11     6   ar
    28    18    12   ar
    29    23    19   ar
    30    27    21   ar
    31     1    28    1
    32     1    29    1
    33     4    30    1
    34     5    31    1
    35     5    32    1
    36     7    33    1
    37     9    34    1
    38    10    35    1
    39    11    36    1
    40    14    37    1
    41    16    38    1
    42    17    39    1
    43    18    40    1
    44    20    41    1
    45    23    42    1
    46    24    43    1
    47    25    44    1
    48    27    45    1
