
     RDKit          3D

 45 48  0  0  0  0  0  0  0  0999 V2000
   -7.5239    1.0470   -0.2098 N   0  0  0  0  0  0  0  0  0  0  0  0
   -6.6333    0.1810    0.4796 C   0  0  0  0  0  0  0  0  0  0  0  0
   -6.8370   -1.0358    0.3235 O   0  0  0  0  0  0  0  0  0  0  0  0
   -5.5852    0.6325    1.2892 N   0  0  0  0  0  0  0  0  0  0  0  0
   -4.6306   -0.1656    2.0266 C   0  0  0  0  0  0  0  0  0  0  0  0
   -3.6290   -0.6937    1.0665 C   0  0  0  0  0  0  0  0  0  0  0  0
   -2.5112    0.1173    0.8374 C   0  0  0  0  0  0  0  0  0  0  0  0
   -1.5439   -0.3347   -0.0519 C   0  0  0  0  0  0  0  0  0  0  0  0
   -1.6327   -1.5516   -0.7241 C   0  0  0  0  0  0  0  0  0  0  0  0
   -2.7389   -2.3219   -0.4778 C   0  0  0  0  0  0  0  0  0  0  0  0
   -3.7000   -1.8906    0.3953 C   0  0  0  0  0  0  0  0  0  0  0  0
   -0.3886    0.5654   -0.2514 C   0  0  0  0  0  0  0  0  0  0  0  0
    0.9122    0.0565   -0.2531 C   0  0  0  0  0  0  0  0  0  0  0  0
    1.0355   -1.2935   -0.0626 O   0  0  0  0  0  0  0  0  0  0  0  0
    2.0277    0.8378   -0.4329 C   0  0  0  0  0  0  0  0  0  0  0  0
    1.7828    2.1813   -0.6153 C   0  0  0  0  0  0  0  0  0  0  0  0
    0.5285    2.7522   -0.6255 C   0  0  0  0  0  0  0  0  0  0  0  0
   -0.5682    1.9255   -0.4401 C   0  0  0  0  0  0  0  0  0  0  0  0
    3.3885    0.3252   -0.4374 C   0  0  0  0  0  0  0  0  0  0  0  0
    4.5166    1.0972   -0.6152 C   0  0  0  0  0  0  0  0  0  0  0  0
    5.6512    0.3178   -0.5677 C   0  0  0  0  0  0  0  0  0  0  0  0
    5.2083   -0.9687   -0.3550 C   0  0  0  0  0  0  0  0  0  0  0  0
    3.8548   -0.9233   -0.2829 N   0  0  0  0  0  0  0  0  0  0  0  0
    6.1076   -2.0280   -0.2529 C   0  0  0  0  0  0  0  0  0  0  0  0
    7.4665   -1.7144   -0.3773 C   0  0  0  0  0  0  0  0  0  0  0  0
    7.8914   -0.4537   -0.5853 N   0  0  0  0  0  0  0  0  0  0  0  0
    7.0117    0.5719   -0.6835 C   0  0  0  0  0  0  0  0  0  0  0  0
   -7.0671    1.8414   -0.7292 H   0  0  0  0  0  0  0  0  0  0  0  0
   -8.5646    0.9997   -0.2683 H   0  0  0  0  0  0  0  0  0  0  0  0
   -5.4959    1.6690    1.3583 H   0  0  0  0  0  0  0  0  0  0  0  0
   -4.1110    0.4225    2.7974 H   0  0  0  0  0  0  0  0  0  0  0  0
   -5.2132   -0.9926    2.4856 H   0  0  0  0  0  0  0  0  0  0  0  0
   -2.4108    1.0675    1.3423 H   0  0  0  0  0  0  0  0  0  0  0  0
   -0.8290   -1.8170   -1.3980 H   0  0  0  0  0  0  0  0  0  0  0  0
   -2.8193   -3.2747   -0.9971 H   0  0  0  0  0  0  0  0  0  0  0  0
   -4.5448   -2.5069    0.5702 H   0  0  0  0  0  0  0  0  0  0  0  0
    0.9767   -1.7642    0.8335 H   0  0  0  0  0  0  0  0  0  0  0  0
    2.6195    2.8806   -0.7670 H   0  0  0  0  0  0  0  0  0  0  0  0
    0.4069    3.8182   -0.7745 H   0  0  0  0  0  0  0  0  0  0  0  0
   -1.5801    2.3162   -0.4382 H   0  0  0  0  0  0  0  0  0  0  0  0
    4.6027    2.1626   -0.7750 H   0  0  0  0  0  0  0  0  0  0  0  0
    3.2992   -1.7686   -0.1277 H   0  0  0  0  0  0  0  0  0  0  0  0
    5.7774   -3.0445   -0.0860 H   0  0  0  0  0  0  0  0  0  0  0  0
    8.1292   -2.5723   -0.2910 H   0  0  0  0  0  0  0  0  0  0  0  0
    7.3636    1.5900   -0.8518 H   0  0  0  0  0  0  0  0  0  0  0  0
  1  2  1  0
  2  3  2  0
  2  4  1  0
  4  5  1  0
  5  6  1  0
  6  7  2  0
  7  8  1  0
  8  9  2  0
  9 10  1  0
 10 11  2  0
  8 12  1  0
 12 13  2  0
 13 14  1  0
 13 15  1  0
 15 16  2  0
 16 17  1  0
 17 18  2  0
 15 19  1  0
 19 20  2  0
 20 21  1  0
 21 22  2  0
 22 23  1  0
 22 24  1  0
 24 25  2  0
 25 26  1  0
 26 27  2  0
 11  6  1  0
 18 12  1  0
 23 19  1  0
 27 21  1  0
  1 28  1  0
  1 29  1  0
  4 30  1  0
  5 31  1  0
  5 32  1  0
  7 33  1  0
  9 34  1  0
 10 35  1  0
 11 36  1  0
 14 37  1  0
 16 38  1  0
 17 39  1  0
 18 40  1  0
 20 41  1  0
 23 42  1  0
 24 43  1  0
 25 44  1  0
 27 45  1  0
M  END
$$$$
