@<TRIPOS>MOLECULE
*****
 55 58 0 0 0
SMALL
GASTEIGER

@<TRIPOS>ATOM
      1 C           5.5610    2.0572   -0.7504 C.3     1  UNL1       -0.0121
      2 N           5.0038    0.9244   -0.1279 N.3     1  UNL1       -0.2923
      3 C           3.7102    0.5084   -0.5061 C.3     1  UNL1        0.0334
      4 C           3.1719   -0.6852    0.2265 C.3     1  UNL1        0.1023
      5 O           1.9196   -1.1204   -0.1166 O.3     1  UNL1       -0.4901
      6 C           0.6785   -0.5881   -0.0601 C.ar    1  UNL1        0.1283
      7 C           0.3781    0.6552    0.4342 C.ar    1  UNL1       -0.0188
      8 C          -0.9195    1.1119    0.4523 C.ar    1  UNL1       -0.0505
      9 C          -1.9287    0.3084   -0.0316 C.ar    1  UNL1       -0.0171
     10 C          -3.3080    0.7731   -0.0247 C.ar    1  UNL1       -0.0174
     11 C          -4.1537    0.3349   -1.0126 C.ar    1  UNL1       -0.0506
     12 C          -5.4579    0.7477   -1.0482 C.ar    1  UNL1       -0.0191
     13 C          -5.9699    1.6231   -0.0871 C.ar    1  UNL1        0.1238
     14 C          -5.1155    2.0513    0.8904 C.ar    1  UNL1       -0.0019
     15 C          -3.7810    1.6330    0.9324 C.ar    1  UNL1       -0.0473
     16 C          -5.8830    2.9697    1.7898 C.3     1  UNL1        0.0101
     17 C          -7.1850    3.1463    1.0742 C.3     1  UNL1        0.0937
     18 O          -7.2388    2.1706    0.0781 O.3     1  UNL1       -0.4914
     19 C          -1.6084   -0.9422   -0.5253 C.ar    1  UNL1       -0.0428
     20 C          -0.3241   -1.4410   -0.5639 C.ar    1  UNL1        0.0258
     21 C          -0.0501   -2.7380   -1.0883 C.ar    1  UNL1        0.0039
     22 C           0.2323   -2.9528   -2.4359 C.ar    1  UNL1       -0.0525
     23 C           0.4931   -4.1880   -2.9436 C.ar    1  UNL1       -0.0611
     24 C           0.4858   -5.2919   -2.1184 C.ar    1  UNL1       -0.0603
     25 C           0.2113   -5.1279   -0.7766 C.ar    1  UNL1       -0.0428
     26 C          -0.0507   -3.8616   -0.2851 C.ar    1  UNL1        0.0488
     27 CL         -0.3996   -3.6527    1.4322 Cl      1  UNL1       -0.0829
     28 C           5.6592    0.3368    0.9614 C.3     1  UNL1        0.0966
     29 C           5.5915    1.2810    2.1352 C.2     1  UNL1        0.3189
     30 O           5.0201    2.3942    2.0645 O.2     1  UNL1       -0.2496
     31 O           6.1728    0.9250    3.3399 O.3     1  UNL1       -0.4797
     32 H           5.1171    2.1762   -1.7815 H       1  UNL1        0.0391
     33 H           5.2154    2.9873   -0.2095 H       1  UNL1        0.0391
     34 H           6.6624    2.0487   -0.8470 H       1  UNL1        0.0391
     35 H           3.0157    1.3500   -0.4890 H       1  UNL1        0.0460
     36 H           3.7944    0.2352   -1.6155 H       1  UNL1        0.0460
     37 H           3.2264   -0.5310    1.3466 H       1  UNL1        0.0709
     38 H           3.8914   -1.5370    0.0363 H       1  UNL1        0.0709
     39 H           1.1467    1.3036    0.8346 H       1  UNL1        0.0654
     40 H          -1.1584    2.0897    0.8399 H       1  UNL1        0.0625
     41 H          -3.8040   -0.3588   -1.8009 H       1  UNL1        0.0625
     42 H          -6.1455    0.4096   -1.8257 H       1  UNL1        0.0654
     43 H          -3.1353    2.0105    1.7424 H       1  UNL1        0.0627
     44 H          -6.0721    2.4268    2.7245 H       1  UNL1        0.0347
     45 H          -5.3222    3.9183    1.9209 H       1  UNL1        0.0347
     46 H          -7.2293    4.1877    0.6929 H       1  UNL1        0.0700
     47 H          -8.0642    2.9999    1.7392 H       1  UNL1        0.0700
     48 H          -2.4341   -1.5676   -0.9055 H       1  UNL1        0.0631
     49 H           0.2327   -2.0909   -3.0483 H       1  UNL1        0.0624
     50 H           0.7124   -4.3463   -4.0036 H       1  UNL1        0.0618
     51 H           0.6960   -6.2713   -2.5507 H       1  UNL1        0.0618
     52 H           0.2146   -6.0143   -0.1614 H       1  UNL1        0.0632
     53 H           6.7674    0.2042    0.8032 H       1  UNL1        0.0541
     54 H           5.2191   -0.6161    1.2671 H       1  UNL1        0.0541
     55 H           6.5384    1.6234    3.9824 H       1  UNL1        0.2951
@<TRIPOS>BOND
     1     1     2    1
     2     2     3    1
     3     3     4    1
     4     4     5    1
     5     5     6    1
     6     6     7   ar
     7     7     8   ar
     8     8     9   ar
     9     9    10    1
    10    10    11   ar
    11    11    12   ar
    12    12    13   ar
    13    13    14   ar
    14    14    15   ar
    15    14    16    1
    16    16    17    1
    17    17    18    1
    18     9    19   ar
    19    19    20   ar
    20    20    21    1
    21    21    22   ar
    22    22    23   ar
    23    23    24   ar
    24    24    25   ar
    25    25    26   ar
    26    26    27    1
    27     2    28    1
    28    28    29    1
    29    29    30    2
    30    29    31    1
    31    20     6   ar
    32    26    21   ar
    33    15    10   ar
    34    18    13    1
    35     1    32    1
    36     1    33    1
    37     1    34    1
    38     3    35    1
    39     3    36    1
    40     4    37    1
    41     4    38    1
    42     7    39    1
    43     8    40    1
    44    11    41    1
    45    12    42    1
    46    15    43    1
    47    16    44    1
    48    16    45    1
    49    17    46    1
    50    17    47    1
    51    19    48    1
    52    22    49    1
    53    23    50    1
    54    24    51    1
    55    25    52    1
    56    28    53    1
    57    28    54    1
    58    31    55    1
