@<TRIPOS>MOLECULE
*****
 55 58 0 0 0
SMALL
GASTEIGER

@<TRIPOS>ATOM
      1 C          -7.9847    0.5568   -0.3111 C.3     1  UNL1       -0.0542
      2 C          -7.2340    1.1684    0.8788 C.3     1  UNL1        0.0325
      3 C          -6.6106    2.4771    0.4489 C.3     1  UNL1       -0.0542
      4 C          -6.1027    0.2184    1.1753 C.ar    1  UNL1        0.2313
      5 N          -5.1111   -0.1094    0.3290 N.ar    1  UNL1       -0.1781
      6 C          -4.2665   -0.9937    0.9345 C.ar    1  UNL1        0.2581
      7 N          -3.1045   -1.5896    0.4086 N.pl3   1  UNL1       -0.2939
      8 C          -2.3320   -2.4903    1.1897 C.3     1  UNL1        0.0308
      9 C          -0.8915   -2.5716    0.7710 C.3     1  UNL1        0.0310
     10 N          -0.4705   -1.4805   -0.0571 N.pl3   1  UNL1       -0.2939
     11 C           0.9162   -1.1734   -0.0879 C.ar    1  UNL1        0.2183
     12 N           1.4264   -0.1624   -0.8185 N.ar    1  UNL1       -0.2191
     13 C           2.7409    0.1240   -0.8427 C.ar    1  UNL1        0.0743
     14 C           3.6400   -0.6196   -0.1060 C.ar    1  UNL1        0.1571
     15 O           5.0059   -0.3688   -0.0932 O.3     1  UNL1       -0.4843
     16 C           5.4587    0.7291   -0.9011 C.3     1  UNL1        0.1161
     17 C           6.9206    0.9005   -0.8091 C.ar    1  UNL1        0.0099
     18 C           7.7529    0.4869   -1.8503 C.ar    1  UNL1       -0.0360
     19 C           9.1004    0.6841   -1.6826 C.ar    1  UNL1        0.0280
     20 N           9.6236    1.2480   -0.5758 N.ar    1  UNL1       -0.2620
     21 C           8.8158    1.6448    0.4246 C.ar    1  UNL1        0.0453
     22 C           7.4509    1.4735    0.3161 C.ar    1  UNL1        0.0762
     23 C           6.5870    1.8838    1.3561 C.1     1  UNL1        0.1011
     24 N           5.8754    2.2433    2.2328 N.1     1  UNL1       -0.1908
     25 C           3.1200   -1.6570    0.6442 C.ar    1  UNL1        0.0743
     26 N           1.7952   -1.8945    0.6275 N.ar    1  UNL1       -0.2191
     27 C          -1.3372   -0.6538   -0.8720 C.3     1  UNL1        0.0392
     28 C          -1.4587    0.6831   -0.1702 C.3     1  UNL1       -0.0449
     29 C          -2.6936   -1.2781   -0.9400 C.3     1  UNL1        0.0334
     30 N          -4.8061   -1.1682    2.1685 N.ar    1  UNL1       -0.0400
     31 O          -5.8801   -0.4451    2.2782 O.2     1  UNL1       -0.3361
     32 H          -7.4390    0.7559   -1.2537 H       1  UNL1        0.0237
     33 H          -8.0545   -0.5448   -0.2018 H       1  UNL1        0.0237
     34 H          -9.0371    0.9228   -0.3310 H       1  UNL1        0.0237
     35 H          -7.8813    1.2487    1.7541 H       1  UNL1        0.0391
     36 H          -5.5111    2.4921    0.5965 H       1  UNL1        0.0237
     37 H          -6.8091    2.6724   -0.6216 H       1  UNL1        0.0237
     38 H          -7.0122    3.3468    1.0066 H       1  UNL1        0.0237
     39 H          -2.7763   -3.5192    1.0929 H       1  UNL1        0.0480
     40 H          -2.3994   -2.2538    2.2747 H       1  UNL1        0.0480
     41 H          -0.2449   -2.6309    1.6708 H       1  UNL1        0.0480
     42 H          -0.7046   -3.5147    0.1912 H       1  UNL1        0.0480
     43 H           3.1503    0.9423   -1.4344 H       1  UNL1        0.0869
     44 H           4.9362    1.6647   -0.6090 H       1  UNL1        0.0748
     45 H           5.2037    0.5641   -1.9773 H       1  UNL1        0.0748
     46 H           7.3079    0.0370   -2.7280 H       1  UNL1        0.0637
     47 H           9.7853    0.3690   -2.4850 H       1  UNL1        0.0829
     48 H           9.1881    2.1026    1.3326 H       1  UNL1        0.0843
     49 H           3.8189   -2.2504    1.2290 H       1  UNL1        0.0869
     50 H          -0.8611   -0.5384   -1.8750 H       1  UNL1        0.0513
     51 H          -2.5033    1.0751   -0.2525 H       1  UNL1        0.0248
     52 H          -0.7651    1.4317   -0.6059 H       1  UNL1        0.0248
     53 H          -1.2544    0.5894    0.9203 H       1  UNL1        0.0248
     54 H          -3.4197   -0.5759   -1.4185 H       1  UNL1        0.0483
     55 H          -2.6633   -2.2523   -1.5065 H       1  UNL1        0.0483
@<TRIPOS>BOND
     1     1     2    1
     2     2     3    1
     3     2     4    1
     4     4     5   ar
     5     5     6   ar
     6     6     7    1
     7     7     8    1
     8     8     9    1
     9     9    10    1
    10    10    11    1
    11    11    12   ar
    12    12    13   ar
    13    13    14   ar
    14    14    15    1
    15    15    16    1
    16    16    17    1
    17    17    18   ar
    18    18    19   ar
    19    19    20   ar
    20    20    21   ar
    21    21    22   ar
    22    22    23    1
    23    23    24    3
    24    14    25   ar
    25    25    26   ar
    26    10    27    1
    27    27    28    1
    28    27    29    1
    29     6    30   ar
    30    30    31   ar
    31    31     4   ar
    32    29     7    1
    33    26    11   ar
    34    22    17   ar
    35     1    32    1
    36     1    33    1
    37     1    34    1
    38     2    35    1
    39     3    36    1
    40     3    37    1
    41     3    38    1
    42     8    39    1
    43     8    40    1
    44     9    41    1
    45     9    42    1
    46    13    43    1
    47    16    44    1
    48    16    45    1
    49    18    46    1
    50    19    47    1
    51    21    48    1
    52    25    49    1
    53    27    50    1
    54    28    51    1
    55    28    52    1
    56    28    53    1
    57    29    54    1
    58    29    55    1
