@<TRIPOS>MOLECULE
*****
 47 49 0 0 0
SMALL
GASTEIGER

@<TRIPOS>ATOM
      1 O           7.4144    0.3132   -1.3644 O.2     1  UNL1       -0.2496
      2 C           6.4308    0.7270   -0.7201 C.2     1  UNL1        0.3187
      3 O           6.6214    1.7783    0.1590 O.3     1  UNL1       -0.4797
      4 C           5.1072    0.0909   -0.9116 C.3     1  UNL1        0.0944
      5 N           4.1066    0.7260   -0.0666 N.3     1  UNL1       -0.3034
      6 C           2.8332    0.0295   -0.3241 C.3     1  UNL1        0.0306
      7 C           1.7335    0.6105    0.5008 C.3     1  UNL1        0.1020
      8 O           0.4961    0.0582    0.3596 O.3     1  UNL1       -0.4903
      9 C          -0.0692   -1.1406    0.5692 C.ar    1  UNL1        0.1276
     10 C           0.6173   -2.2204    1.0669 C.ar    1  UNL1       -0.0181
     11 C          -0.0248   -3.4427    1.2655 C.ar    1  UNL1       -0.0381
     12 C          -1.3375   -3.5423    0.9581 C.ar    1  UNL1        0.0627
     13 CL         -2.1164   -5.0962    1.2203 Cl      1  UNL1       -0.0816
     14 C          -2.0395   -2.4393    0.4499 C.ar    1  UNL1        0.0619
     15 C          -1.4353   -1.2343    0.2468 C.ar    1  UNL1        0.0401
     16 C          -2.1306   -0.0907   -0.2552 C.3     1  UNL1        0.0664
     17 C          -1.5909    0.6533   -1.4011 C.3     1  UNL1       -0.0272
     18 C          -1.6493    2.1512   -1.2034 C.3     1  UNL1       -0.0508
     19 C          -2.9525    2.6386   -0.6315 C.3     1  UNL1       -0.0529
     20 C          -3.2949    1.9166    0.6401 C.3     1  UNL1       -0.0508
     21 C          -2.2245    0.8983    0.9286 C.3     1  UNL1       -0.0272
     22 N          -3.5045   -0.4053   -0.5692 N.am    1  UNL1       -0.2894
     23 C          -4.1609   -1.6382   -0.3668 C.2     1  UNL1        0.3046
     24 O          -5.3986   -1.7844   -0.6537 O.2     1  UNL1       -0.2525
     25 N          -3.4023   -2.7104    0.1655 N.am    1  UNL1       -0.2677
     26 H           7.5537    2.1591    0.3147 H       1  UNL1        0.2951
     27 H           4.8145    0.1800   -1.9817 H       1  UNL1        0.0539
     28 H           5.1874   -0.9870   -0.7015 H       1  UNL1        0.0539
     29 H           3.9353    1.7102   -0.3407 H       1  UNL1        0.1226
     30 H           2.5502    0.1679   -1.3942 H       1  UNL1        0.0457
     31 H           3.0350   -1.0272   -0.1256 H       1  UNL1        0.0457
     32 H           2.0751    0.7086    1.5698 H       1  UNL1        0.0709
     33 H           1.6506    1.6987    0.1758 H       1  UNL1        0.0709
     34 H           1.6716   -2.1693    1.3352 H       1  UNL1        0.0655
     35 H           0.5323   -4.3010    1.6638 H       1  UNL1        0.0634
     36 H          -2.1781    0.4311   -2.3159 H       1  UNL1        0.0289
     37 H          -0.5440    0.4660   -1.6824 H       1  UNL1        0.0289
     38 H          -0.8182    2.4653   -0.5485 H       1  UNL1        0.0266
     39 H          -1.5432    2.6675   -2.2033 H       1  UNL1        0.0266
     40 H          -3.7515    2.6779   -1.3804 H       1  UNL1        0.0265
     41 H          -2.7653    3.7180   -0.3553 H       1  UNL1        0.0265
     42 H          -3.2929    2.6314    1.5224 H       1  UNL1        0.0266
     43 H          -4.3103    1.5316    0.6004 H       1  UNL1        0.0266
     44 H          -1.2748    1.3884    1.1186 H       1  UNL1        0.0289
     45 H          -2.5698    0.3179    1.8267 H       1  UNL1        0.0289
     46 H          -4.1370    0.3517   -1.0151 H       1  UNL1        0.1511
     47 H          -3.8496   -3.6333    0.3272 H       1  UNL1        0.1564
@<TRIPOS>BOND
     1     1     2    2
     2     2     3    1
     3     2     4    1
     4     4     5    1
     5     5     6    1
     6     6     7    1
     7     7     8    1
     8     8     9    1
     9     9    10   ar
    10    10    11   ar
    11    11    12   ar
    12    12    13    1
    13    12    14   ar
    14    14    15   ar
    15    15    16    1
    16    16    17    1
    17    17    18    1
    18    18    19    1
    19    19    20    1
    20    20    21    1
    21    16    22    1
    22    22    23   am
    23    23    24    2
    24    23    25   am
    25    15     9   ar
    26    21    16    1
    27    25    14    1
    28     3    26    1
    29     4    27    1
    30     4    28    1
    31     5    29    1
    32     6    30    1
    33     6    31    1
    34     7    32    1
    35     7    33    1
    36    10    34    1
    37    11    35    1
    38    17    36    1
    39    17    37    1
    40    18    38    1
    41    18    39    1
    42    19    40    1
    43    19    41    1
    44    20    42    1
    45    20    43    1
    46    21    44    1
    47    21    45    1
    48    22    46    1
    49    25    47    1
