@<TRIPOS>MOLECULE
*****
 36 37 0 0 0
SMALL
GASTEIGER

@<TRIPOS>ATOM
      1 C          -1.6041   -2.8043    0.5868 C.3     1  UNL1       -0.0155
      2 N          -1.2734   -1.4951    0.1083 N.3     1  UNL1       -0.3149
      3 C          -1.8115   -0.4412    0.9464 C.3     1  UNL1        0.0245
      4 C          -1.4656    0.9054    0.4409 C.ar    1  UNL1        0.0098
      5 C          -2.4254    1.6248   -0.2503 C.ar    1  UNL1       -0.0365
      6 C          -2.1858    2.8843   -0.7672 C.ar    1  UNL1        0.0523
      7 C          -3.2217    3.5899   -1.4810 C.1     1  UNL1        0.0992
      8 N          -4.0637    4.1505   -2.0758 N.1     1  UNL1       -0.1909
      9 C          -0.9213    3.4318   -0.5732 C.ar    1  UNL1       -0.0409
     10 C           0.0560    2.7385    0.1118 C.ar    1  UNL1       -0.0178
     11 C          -0.2184    1.4676    0.6219 C.ar    1  UNL1        0.1331
     12 O           0.8140    0.8523    1.2906 O.3     1  UNL1       -0.4520
     13 C           1.4163   -0.3384    1.0018 C.ar    1  UNL1        0.1699
     14 C           1.4242   -1.3556    1.9277 C.ar    1  UNL1       -0.0143
     15 C           2.0128   -2.5603    1.6832 C.ar    1  UNL1       -0.0397
     16 C           2.6156   -2.7714    0.4833 C.ar    1  UNL1        0.0447
     17 CL          3.3754   -4.3057    0.1427 Cl      1  UNL1       -0.0834
     18 C           2.6241   -1.7787   -0.4577 C.ar    1  UNL1        0.0020
     19 C           2.0259   -0.5165   -0.2439 C.ar    1  UNL1        0.1635
     20 O           2.0702    0.3697   -1.1690 O.3     1  UNL1       -0.4914
     21 C           2.1292    1.2417   -2.1147 C.3     1  UNL1        0.0790
     22 H          -1.3304   -2.8577    1.6558 H       1  UNL1        0.0388
     23 H          -2.6741   -3.0546    0.4284 H       1  UNL1        0.0388
     24 H          -0.9560   -3.5321    0.0567 H       1  UNL1        0.0388
     25 H          -1.4694   -1.3489   -0.9034 H       1  UNL1        0.1219
     26 H          -1.3760   -0.6151    1.9715 H       1  UNL1        0.0475
     27 H          -2.8971   -0.5847    1.0676 H       1  UNL1        0.0475
     28 H          -3.3942    1.1718   -0.3809 H       1  UNL1        0.0635
     29 H          -0.7187    4.4205   -0.9727 H       1  UNL1        0.0631
     30 H           1.0272    3.1590    0.2610 H       1  UNL1        0.0655
     31 H           0.9321   -1.1603    2.8851 H       1  UNL1        0.0656
     32 H           1.9906   -3.3076    2.4290 H       1  UNL1        0.0633
     33 H           3.1130   -1.9699   -1.4153 H       1  UNL1        0.0670
     34 H           1.1592    1.3730   -2.7106 H       1  UNL1        0.0660
     35 H           2.9584    1.1140   -2.8868 H       1  UNL1        0.0660
     36 H           2.2628    2.3035   -1.6979 H       1  UNL1        0.0660
@<TRIPOS>BOND
     1     1     2    1
     2     2     3    1
     3     3     4    1
     4     4     5   ar
     5     5     6   ar
     6     6     7    1
     7     7     8    3
     8     6     9   ar
     9     9    10   ar
    10    10    11   ar
    11    11    12    1
    12    12    13    1
    13    13    14   ar
    14    14    15   ar
    15    15    16   ar
    16    16    17    1
    17    16    18   ar
    18    18    19   ar
    19    19    20    1
    20    20    21    1
    21    11     4   ar
    22    19    13   ar
    23     1    22    1
    24     1    23    1
    25     1    24    1
    26     2    25    1
    27     3    26    1
    28     3    27    1
    29     5    28    1
    30     9    29    1
    31    10    30    1
    32    14    31    1
    33    15    32    1
    34    18    33    1
    35    21    34    1
    36    21    35    1
    37    21    36    1
