
     RDKit          3D

 36 37  0  0  0  0  0  0  0  0999 V2000
   -1.6041   -2.8043    0.5868 C   0  0  0  0  0  0  0  0  0  0  0  0
   -1.2734   -1.4951    0.1083 N   0  0  0  0  0  0  0  0  0  0  0  0
   -1.8115   -0.4412    0.9464 C   0  0  0  0  0  0  0  0  0  0  0  0
   -1.4656    0.9054    0.4409 C   0  0  0  0  0  0  0  0  0  0  0  0
   -2.4254    1.6248   -0.2503 C   0  0  0  0  0  0  0  0  0  0  0  0
   -2.1858    2.8843   -0.7672 C   0  0  0  0  0  0  0  0  0  0  0  0
   -3.2217    3.5899   -1.4810 C   0  0  0  0  0  0  0  0  0  0  0  0
   -4.0637    4.1505   -2.0758 N   0  0  0  0  0  0  0  0  0  0  0  0
   -0.9213    3.4318   -0.5732 C   0  0  0  0  0  0  0  0  0  0  0  0
    0.0560    2.7385    0.1118 C   0  0  0  0  0  0  0  0  0  0  0  0
   -0.2184    1.4676    0.6219 C   0  0  0  0  0  0  0  0  0  0  0  0
    0.8140    0.8523    1.2906 O   0  0  0  0  0  0  0  0  0  0  0  0
    1.4163   -0.3384    1.0018 C   0  0  0  0  0  0  0  0  0  0  0  0
    1.4242   -1.3556    1.9277 C   0  0  0  0  0  0  0  0  0  0  0  0
    2.0128   -2.5603    1.6832 C   0  0  0  0  0  0  0  0  0  0  0  0
    2.6156   -2.7714    0.4833 C   0  0  0  0  0  0  0  0  0  0  0  0
    3.3754   -4.3057    0.1427 Cl  0  0  0  0  0  0  0  0  0  0  0  0
    2.6241   -1.7787   -0.4577 C   0  0  0  0  0  0  0  0  0  0  0  0
    2.0259   -0.5165   -0.2439 C   0  0  0  0  0  0  0  0  0  0  0  0
    2.0702    0.3697   -1.1690 O   0  0  0  0  0  0  0  0  0  0  0  0
    2.1292    1.2417   -2.1147 C   0  0  0  0  0  0  0  0  0  0  0  0
   -1.3304   -2.8577    1.6558 H   0  0  0  0  0  0  0  0  0  0  0  0
   -2.6741   -3.0546    0.4284 H   0  0  0  0  0  0  0  0  0  0  0  0
   -0.9560   -3.5321    0.0567 H   0  0  0  0  0  0  0  0  0  0  0  0
   -1.4694   -1.3489   -0.9034 H   0  0  0  0  0  0  0  0  0  0  0  0
   -1.3760   -0.6151    1.9715 H   0  0  0  0  0  0  0  0  0  0  0  0
   -2.8971   -0.5847    1.0676 H   0  0  0  0  0  0  0  0  0  0  0  0
   -3.3942    1.1718   -0.3809 H   0  0  0  0  0  0  0  0  0  0  0  0
   -0.7187    4.4205   -0.9727 H   0  0  0  0  0  0  0  0  0  0  0  0
    1.0272    3.1590    0.2610 H   0  0  0  0  0  0  0  0  0  0  0  0
    0.9321   -1.1603    2.8851 H   0  0  0  0  0  0  0  0  0  0  0  0
    1.9906   -3.3076    2.4290 H   0  0  0  0  0  0  0  0  0  0  0  0
    3.1130   -1.9699   -1.4153 H   0  0  0  0  0  0  0  0  0  0  0  0
    1.1592    1.3730   -2.7106 H   0  0  0  0  0  0  0  0  0  0  0  0
    2.9584    1.1140   -2.8868 H   0  0  0  0  0  0  0  0  0  0  0  0
    2.2628    2.3035   -1.6979 H   0  0  0  0  0  0  0  0  0  0  0  0
  1  2  1  0
  2  3  1  0
  3  4  1  0
  4  5  2  0
  5  6  1  0
  6  7  1  0
  7  8  3  0
  6  9  2  0
  9 10  1  0
 10 11  2  0
 11 12  1  0
 12 13  1  0
 13 14  2  0
 14 15  1  0
 15 16  2  0
 16 17  1  0
 16 18  1  0
 18 19  2  0
 19 20  1  0
 20 21  1  0
 11  4  1  0
 19 13  1  0
  1 22  1  0
  1 23  1  0
  1 24  1  0
  2 25  1  0
  3 26  1  0
  3 27  1  0
  5 28  1  0
  9 29  1  0
 10 30  1  0
 14 31  1  0
 15 32  1  0
 18 33  1  0
 21 34  1  0
 21 35  1  0
 21 36  1  0
M  END
$$$$
