@<TRIPOS>MOLECULE
*****
 90 91 0 0 0
SMALL
GASTEIGER

@<TRIPOS>ATOM
      1 C           9.5498    1.7786    1.7420 C.3     1  UNL1       -0.0633
      2 C           8.1809    1.2651    2.0354 C.3     1  UNL1       -0.0331
      3 C           7.2779    1.3421    0.8033 C.3     1  UNL1        0.0496
      4 N           5.9572    0.8254    1.1150 N.am    1  UNL1       -0.2921
      5 C           4.8115    1.5973    1.3767 C.2     1  UNL1        0.3099
      6 O           4.8987    2.8529    1.3571 O.2     1  UNL1       -0.2522
      7 N           3.5666    0.9255    1.6636 N.am    1  UNL1       -0.2128
      8 C           3.1951   -0.4390    1.6743 C.2     1  UNL1        0.2265
      9 O           3.6174   -1.5155    1.2014 O.2     1  UNL1       -0.2750
     10 C           2.0290   -0.1020    2.5184 C.3     1  UNL1        0.0531
     11 C           2.2076    1.2723    2.0127 C.3     1  UNL1        0.0893
     12 S           1.1531    1.9277    0.7504 S.3     1  UNL1       -0.1355
     13 C           0.8833    0.9538   -0.6956 C.3     1  UNL1        0.0139
     14 C           0.2122   -0.3549   -0.5568 C.3     1  UNL1        0.0324
     15 C           0.0978   -0.9854   -1.9621 C.3     1  UNL1       -0.0314
     16 C          -0.5062   -2.3389   -1.9224 C.3     1  UNL1       -0.0450
     17 C           0.3156   -3.3087   -1.0762 C.3     1  UNL1       -0.0626
     18 C          -0.5129   -2.8606   -3.3640 C.3     1  UNL1       -0.0626
     19 N          -1.0421   -0.3351    0.1364 N.am    1  UNL1       -0.3101
     20 C          -2.3296   -0.1577   -0.4095 C.2     1  UNL1        0.2341
     21 O          -2.3724    0.0529   -1.6792 O.2     1  UNL1       -0.2738
     22 C          -3.5798   -0.2001    0.3685 C.3     1  UNL1        0.1042
     23 N          -4.7173    0.2365   -0.4486 N.am    1  UNL1       -0.3035
     24 C          -5.7318    1.0807    0.0640 C.2     1  UNL1        0.2141
     25 O          -5.6776    1.4869    1.2676 O.2     1  UNL1       -0.2758
     26 C          -6.8887    1.5165   -0.7714 C.3     1  UNL1        0.0289
     27 C          -7.9539    2.1575    0.1116 C.3     1  UNL1       -0.0295
     28 C          -8.4306    1.1274    1.1466 C.3     1  UNL1       -0.0596
     29 C          -9.1476    2.5070   -0.7398 C.3     1  UNL1       -0.0596
     30 C          -7.4845    3.3828    0.8246 C.3     1  UNL1       -0.0596
     31 C          -3.9026   -1.5597    0.9534 C.3     1  UNL1       -0.0108
     32 C          -2.8635   -2.0624    1.9060 C.3     1  UNL1       -0.0579
     33 C          -4.0425   -2.5892   -0.1667 C.3     1  UNL1       -0.0579
     34 C          -5.2129   -1.5340    1.7187 C.3     1  UNL1       -0.0579
     35 C           7.8907    0.6551   -0.3402 C.ar    1  UNL1       -0.0272
     36 C           7.8389   -0.7196   -0.3989 C.ar    1  UNL1       -0.0568
     37 C           8.4090   -1.4148   -1.4451 C.ar    1  UNL1       -0.0614
     38 C           9.0259   -0.6888   -2.4190 C.ar    1  UNL1       -0.0617
     39 C           9.1025    0.6906   -2.4028 C.ar    1  UNL1       -0.0614
     40 C           8.5129    1.3519   -1.3275 C.ar    1  UNL1       -0.0568
     41 H           9.5405    2.4854    0.8650 H       1  UNL1        0.0230
     42 H          10.2925    0.9703    1.5803 H       1  UNL1        0.0230
     43 H           9.9253    2.3692    2.6072 H       1  UNL1        0.0230
     44 H           8.1601    0.2236    2.3873 H       1  UNL1        0.0284
     45 H           7.7450    1.8978    2.8614 H       1  UNL1        0.0284
     46 H           7.2069    2.4230    0.5866 H       1  UNL1        0.0549
     47 H           5.8374   -0.2363    1.1562 H       1  UNL1        0.1509
     48 H           2.2971   -0.2132    3.6089 H       1  UNL1        0.0385
     49 H           1.1123   -0.6619    2.2662 H       1  UNL1        0.0385
     50 H           2.1885    1.9830    2.9171 H       1  UNL1        0.0626
     51 H           0.2362    1.5837   -1.4003 H       1  UNL1        0.0395
     52 H           1.8269    0.8421   -1.3335 H       1  UNL1        0.0395
     53 H           0.8977   -1.0904   -0.0444 H       1  UNL1        0.0506
     54 H          -0.3263   -0.3015   -2.6944 H       1  UNL1        0.0286
     55 H           1.1801   -1.1290   -2.2653 H       1  UNL1        0.0286
     56 H          -1.5129   -2.3815   -1.5109 H       1  UNL1        0.0296
     57 H           0.0381   -4.3628   -1.3136 H       1  UNL1        0.0232
     58 H           0.1271   -3.1741    0.0049 H       1  UNL1        0.0232
     59 H           1.3787   -3.0855   -1.2571 H       1  UNL1        0.0232
     60 H          -0.7798   -2.0068   -4.0074 H       1  UNL1        0.0232
     61 H           0.4934   -3.2196   -3.6582 H       1  UNL1        0.0232
     62 H          -1.2373   -3.7156   -3.4425 H       1  UNL1        0.0232
     63 H          -0.9736   -0.4444    1.1988 H       1  UNL1        0.1490
     64 H          -3.5168    0.4843    1.2220 H       1  UNL1        0.0600
     65 H          -4.7948   -0.0749   -1.4414 H       1  UNL1        0.1495
     66 H          -6.5968    2.2929   -1.5032 H       1  UNL1        0.0363
     67 H          -7.3715    0.6964   -1.3213 H       1  UNL1        0.0363
     68 H          -9.5299    1.0439    1.0924 H       1  UNL1        0.0235
     69 H          -8.1439    1.3951    2.1664 H       1  UNL1        0.0235
     70 H          -8.0472    0.1234    0.8208 H       1  UNL1        0.0235
     71 H          -9.3345    1.7276   -1.5103 H       1  UNL1        0.0235
     72 H         -10.0444    2.4477   -0.0499 H       1  UNL1        0.0235
     73 H          -9.1604    3.5198   -1.1361 H       1  UNL1        0.0235
     74 H          -7.6399    3.2588    1.9380 H       1  UNL1        0.0235
     75 H          -8.0898    4.2965    0.5708 H       1  UNL1        0.0235
     76 H          -6.4268    3.6626    0.6073 H       1  UNL1        0.0235
     77 H          -2.5318   -1.2893    2.6297 H       1  UNL1        0.0236
     78 H          -3.2923   -2.9347    2.4922 H       1  UNL1        0.0236
     79 H          -2.0317   -2.5036    1.3356 H       1  UNL1        0.0236
     80 H          -3.2476   -3.3876   -0.0580 H       1  UNL1        0.0236
     81 H          -3.8766   -2.1523   -1.1717 H       1  UNL1        0.0236
     82 H          -4.9991   -3.1472   -0.0910 H       1  UNL1        0.0236
     83 H          -6.0585   -1.1852    1.0969 H       1  UNL1        0.0236
     84 H          -5.4952   -2.5815    2.0348 H       1  UNL1        0.0236
     85 H          -5.1429   -0.8625    2.5947 H       1  UNL1        0.0236
     86 H           7.3531   -1.3143    0.3712 H       1  UNL1        0.0621
     87 H           8.3532   -2.4823   -1.4636 H       1  UNL1        0.0618
     88 H           9.4772   -1.2589   -3.2463 H       1  UNL1        0.0618
     89 H           9.5992    1.2218   -3.1962 H       1  UNL1        0.0618
     90 H           8.5991    2.4282   -1.3603 H       1  UNL1        0.0621
@<TRIPOS>BOND
     1     1     2    1
     2     2     3    1
     3     3     4    1
     4     4     5   am
     5     5     6    2
     6     5     7   am
     7     7     8   am
     8     8     9    2
     9     8    10    1
    10    10    11    1
    11    11    12    1
    12    12    13    1
    13    13    14    1
    14    14    15    1
    15    15    16    1
    16    16    17    1
    17    16    18    1
    18    14    19    1
    19    19    20   am
    20    20    21    2
    21    20    22    1
    22    22    23    1
    23    23    24   am
    24    24    25    2
    25    24    26    1
    26    26    27    1
    27    27    28    1
    28    27    29    1
    29    27    30    1
    30    22    31    1
    31    31    32    1
    32    31    33    1
    33    31    34    1
    34     3    35    1
    35    35    36   ar
    36    36    37   ar
    37    37    38   ar
    38    38    39   ar
    39    39    40   ar
    40    11     7    1
    41    40    35   ar
    42     1    41    1
    43     1    42    1
    44     1    43    1
    45     2    44    1
    46     2    45    1
    47     3    46    1
    48     4    47    1
    49    10    48    1
    50    10    49    1
    51    11    50    1
    52    13    51    1
    53    13    52    1
    54    14    53    1
    55    15    54    1
    56    15    55    1
    57    16    56    1
    58    17    57    1
    59    17    58    1
    60    17    59    1
    61    18    60    1
    62    18    61    1
    63    18    62    1
    64    19    63    1
    65    22    64    1
    66    23    65    1
    67    26    66    1
    68    26    67    1
    69    28    68    1
    70    28    69    1
    71    28    70    1
    72    29    71    1
    73    29    72    1
    74    29    73    1
    75    30    74    1
    76    30    75    1
    77    30    76    1
    78    32    77    1
    79    32    78    1
    80    32    79    1
    81    33    80    1
    82    33    81    1
    83    33    82    1
    84    34    83    1
    85    34    84    1
    86    34    85    1
    87    36    86    1
    88    37    87    1
    89    38    88    1
    90    39    89    1
    91    40    90    1
