@<TRIPOS>MOLECULE
*****
 50 52 0 0 0
SMALL
GASTEIGER

@<TRIPOS>ATOM
      1 CL          0.6928    0.0000    0.0000 Cl      1  UNL1       -0.1454
      2 N          -8.3325    1.1927    1.2263 N.3     2  UNL2       -0.3267
      3 C          -7.4632    0.5453    0.2925 C.3     2  UNL2        0.0123
      4 C          -7.7469   -0.7923   -0.2594 C.3     2  UNL2       -0.0289
      5 C          -6.7761   -0.7205    0.8573 C.3     2  UNL2        0.0008
      6 C          -5.3204   -0.7596    0.6051 C.ar    2  UNL2       -0.0426
      7 C          -4.4568   -1.2472    1.5638 C.ar    2  UNL2       -0.0565
      8 C          -3.0818   -1.2933    1.3472 C.ar    2  UNL2       -0.0402
      9 C          -2.5393   -0.8491    0.1581 C.ar    2  UNL2        0.0337
     10 N          -1.1263   -0.9140   -0.0226 N.am    2  UNL2       -0.2815
     11 C          -0.3326    0.1868    0.3646 C.2     2  UNL2        0.2483
     12 O          -0.9195    1.1939    0.8610 O.2     2  UNL2       -0.2699
     13 C           1.1247    0.1824    0.2051 C.ar    2  UNL2        0.0371
     14 C           1.8465    1.2884    0.6024 C.ar    2  UNL2       -0.0479
     15 C           3.2140    1.3349    0.4745 C.ar    2  UNL2       -0.0399
     16 C           3.9328    0.2729   -0.0599 C.ar    2  UNL2        0.0298
     17 N           5.3251    0.3008   -0.2015 N.pl3   2  UNL2       -0.3255
     18 C           6.0311   -0.8572   -0.6978 C.3     2  UNL2        0.0357
     19 C           7.4706   -0.7246   -0.1819 C.3     2  UNL2        0.0634
     20 O           8.0221    0.3557   -0.8198 O.3     2  UNL2       -0.3767
     21 C           7.4180    1.5584   -0.5728 C.3     2  UNL2        0.0634
     22 C           6.0925    1.4757    0.1375 C.3     2  UNL2        0.0357
     23 C           3.1790   -0.8144   -0.4458 C.ar    2  UNL2       -0.0399
     24 C           1.8008   -0.8832   -0.3262 C.ar    2  UNL2       -0.0479
     25 C          -3.3907   -0.3641   -0.7973 C.ar    2  UNL2       -0.0402
     26 C          -4.7399   -0.3260   -0.5679 C.ar    2  UNL2       -0.0565
     27 H          -0.6928    0.0000    0.0000 H       1  UNL1        0.1454
     28 H          -9.2229    1.5246    0.8464 H       2  UNL2        0.1185
     29 H          -7.8091    1.9024    1.7857 H       2  UNL2        0.1185
     30 H          -6.8581    1.2137   -0.3368 H       2  UNL2        0.0464
     31 H          -8.7513   -1.2069   -0.0539 H       2  UNL2        0.0287
     32 H          -7.3945   -1.0338   -1.2971 H       2  UNL2        0.0287
     33 H          -7.1170   -1.0904    1.8218 H       2  UNL2        0.0364
     34 H          -4.8397   -1.6032    2.5044 H       2  UNL2        0.0621
     35 H          -2.4271   -1.6826    2.1208 H       2  UNL2        0.0636
     36 H          -0.7414   -1.7681   -0.4314 H       2  UNL2        0.1551
     37 H           1.3528    2.1657    1.0330 H       2  UNL2        0.0626
     38 H           3.7546    2.2138    0.7950 H       2  UNL2        0.0636
     39 H           5.6028   -1.8186   -0.3429 H       2  UNL2        0.0486
     40 H           6.0911   -0.8481   -1.8065 H       2  UNL2        0.0486
     41 H           7.4040   -0.5036    0.8921 H       2  UNL2        0.0575
     42 H           8.0629   -1.6176   -0.4225 H       2  UNL2        0.0575
     43 H           8.1054    2.1663    0.0502 H       2  UNL2        0.0575
     44 H           7.3253    2.1376   -1.5377 H       2  UNL2        0.0575
     45 H           6.2737    1.5769    1.2153 H       2  UNL2        0.0486
     46 H           5.4893    2.3522   -0.2447 H       2  UNL2        0.0486
     47 H           3.6505   -1.7014   -0.8791 H       2  UNL2        0.0636
     48 H           1.2504   -1.7687   -0.6473 H       2  UNL2        0.0626
     49 H          -2.9956   -0.0133   -1.7285 H       2  UNL2        0.0636
     50 H          -5.4372    0.0606   -1.3250 H       2  UNL2        0.0621
@<TRIPOS>BOND
     1     2     3    1
     2     3     4    1
     3     4     5    1
     4     5     6    1
     5     6     7   ar
     6     7     8   ar
     7     8     9   ar
     8     9    10    1
     9    10    11   am
    10    11    12    2
    11    11    13    1
    12    13    14   ar
    13    14    15   ar
    14    15    16   ar
    15    16    17    1
    16    17    18    1
    17    18    19    1
    18    19    20    1
    19    20    21    1
    20    21    22    1
    21    16    23   ar
    22    23    24   ar
    23     9    25   ar
    24    25    26   ar
    25     5     3    1
    26    26     6   ar
    27    24    13   ar
    28    22    17    1
    29     1    27    1
    30     2    28    1
    31     2    29    1
    32     3    30    1
    33     4    31    1
    34     4    32    1
    35     5    33    1
    36     7    34    1
    37     8    35    1
    38    10    36    1
    39    14    37    1
    40    15    38    1
    41    18    39    1
    42    18    40    1
    43    19    41    1
    44    19    42    1
    45    21    43    1
    46    21    44    1
    47    22    45    1
    48    22    46    1
    49    23    47    1
    50    24    48    1
    51    25    49    1
    52    26    50    1
