@<TRIPOS>MOLECULE
*****
 41 42 0 0 0
SMALL
GASTEIGER

@<TRIPOS>ATOM
      1 C           5.3394    2.3206    1.2521 C.3     1  UNL1        0.0788
      2 O           3.9638    2.0167    1.3660 O.3     1  UNL1       -0.4950
      3 C           3.4639    0.9500    0.6377 C.ar    1  UNL1        0.1242
      4 C           2.1073    0.6118    0.7191 C.ar    1  UNL1       -0.0111
      5 C           1.5999   -0.4488   -0.0023 C.ar    1  UNL1       -0.0000
      6 C           0.1933   -0.8103    0.0735 C.2     1  UNL1        0.0357
      7 N          -0.6300   -0.1518    0.8184 N.2     1  UNL1       -0.2513
      8 C          -2.0134   -0.5383    0.8680 C.ar    1  UNL1        0.1056
      9 C          -2.4478   -1.5669    1.6674 C.ar    1  UNL1       -0.0293
     10 C          -3.7909   -1.9295    1.7047 C.ar    1  UNL1       -0.0177
     11 C          -4.6890   -1.2358    0.9209 C.ar    1  UNL1        0.1237
     12 O          -6.0221   -1.6194    0.9783 O.3     1  UNL1       -0.4950
     13 C          -6.9387   -0.9000    0.1685 C.3     1  UNL1        0.0788
     14 C          -4.2303   -0.2127    0.1312 C.ar    1  UNL1        0.0239
     15 C          -2.9067    0.1596    0.0815 C.ar    1  UNL1        0.1488
     16 O          -2.4346    1.1948   -0.7158 O.3     1  UNL1       -0.4929
     17 C          -3.3635    1.8928   -1.5098 C.3     1  UNL1        0.0789
     18 C           2.4411   -1.1802   -0.8104 C.ar    1  UNL1       -0.0111
     19 C           3.7788   -0.8573   -0.8992 C.ar    1  UNL1        0.1242
     20 O           4.6146   -1.5818   -1.7002 O.3     1  UNL1       -0.4950
     21 C           5.9906   -1.2783   -1.8147 C.3     1  UNL1        0.0788
     22 C           4.2847    0.1986   -0.1811 C.ar    1  UNL1        0.0218
     23 H           5.8827    1.3846    1.5616 H       1  UNL1        0.0660
     24 H           5.5535    2.4498    0.1787 H       1  UNL1        0.0660
     25 H           5.6528    3.1583    1.8764 H       1  UNL1        0.0660
     26 H           1.4531    1.1798    1.3468 H       1  UNL1        0.0660
     27 H          -0.1979   -1.6422   -0.4944 H       1  UNL1        0.0836
     28 H          -1.7496   -2.1164    2.2854 H       1  UNL1        0.0641
     29 H          -4.0932   -2.7501    2.3516 H       1  UNL1        0.0655
     30 H          -6.8630    0.1973    0.3344 H       1  UNL1        0.0660
     31 H          -6.7660   -1.0617   -0.9096 H       1  UNL1        0.0660
     32 H          -7.9531   -1.1900    0.4975 H       1  UNL1        0.0660
     33 H          -4.9298    0.3346   -0.4853 H       1  UNL1        0.0692
     34 H          -4.1993    2.2021   -0.8633 H       1  UNL1        0.0660
     35 H          -2.9217    2.8441   -1.9101 H       1  UNL1        0.0660
     36 H          -3.6825    1.3139   -2.3974 H       1  UNL1        0.0660
     37 H           2.0638   -2.0208   -1.3887 H       1  UNL1        0.0660
     38 H           6.1656   -0.1981   -1.9968 H       1  UNL1        0.0660
     39 H           6.4728   -1.8166   -2.6495 H       1  UNL1        0.0660
     40 H           6.4639   -1.5536   -0.8494 H       1  UNL1        0.0660
     41 H           5.3373    0.4640   -0.2419 H       1  UNL1        0.0691
@<TRIPOS>BOND
     1     1     2    1
     2     2     3    1
     3     3     4   ar
     4     4     5   ar
     5     5     6    1
     6     6     7    2
     7     7     8    1
     8     8     9   ar
     9     9    10   ar
    10    10    11   ar
    11    11    12    1
    12    12    13    1
    13    11    14   ar
    14    14    15   ar
    15    15    16    1
    16    16    17    1
    17     5    18   ar
    18    18    19   ar
    19    19    20    1
    20    20    21    1
    21    19    22   ar
    22    22     3   ar
    23    15     8   ar
    24     1    23    1
    25     1    24    1
    26     1    25    1
    27     4    26    1
    28     6    27    1
    29     9    28    1
    30    10    29    1
    31    13    30    1
    32    13    31    1
    33    13    32    1
    34    14    33    1
    35    17    34    1
    36    17    35    1
    37    17    36    1
    38    18    37    1
    39    21    38    1
    40    21    39    1
    41    21    40    1
    42    22    41    1
