
     RDKit          3D

 41 42  0  0  0  0  0  0  0  0999 V2000
    5.3394    2.3206    1.2521 C   0  0  0  0  0  0  0  0  0  0  0  0
    3.9638    2.0167    1.3660 O   0  0  0  0  0  0  0  0  0  0  0  0
    3.4639    0.9500    0.6377 C   0  0  0  0  0  0  0  0  0  0  0  0
    2.1073    0.6118    0.7191 C   0  0  0  0  0  0  0  0  0  0  0  0
    1.5999   -0.4488   -0.0023 C   0  0  0  0  0  0  0  0  0  0  0  0
    0.1933   -0.8103    0.0735 C   0  0  0  0  0  0  0  0  0  0  0  0
   -0.6300   -0.1518    0.8184 N   0  0  0  0  0  0  0  0  0  0  0  0
   -2.0134   -0.5383    0.8680 C   0  0  0  0  0  0  0  0  0  0  0  0
   -2.4478   -1.5669    1.6674 C   0  0  0  0  0  0  0  0  0  0  0  0
   -3.7909   -1.9295    1.7047 C   0  0  0  0  0  0  0  0  0  0  0  0
   -4.6890   -1.2358    0.9209 C   0  0  0  0  0  0  0  0  0  0  0  0
   -6.0221   -1.6194    0.9783 O   0  0  0  0  0  0  0  0  0  0  0  0
   -6.9387   -0.9000    0.1685 C   0  0  0  0  0  0  0  0  0  0  0  0
   -4.2303   -0.2127    0.1312 C   0  0  0  0  0  0  0  0  0  0  0  0
   -2.9067    0.1596    0.0815 C   0  0  0  0  0  0  0  0  0  0  0  0
   -2.4346    1.1948   -0.7158 O   0  0  0  0  0  0  0  0  0  0  0  0
   -3.3635    1.8928   -1.5098 C   0  0  0  0  0  0  0  0  0  0  0  0
    2.4411   -1.1802   -0.8104 C   0  0  0  0  0  0  0  0  0  0  0  0
    3.7788   -0.8573   -0.8992 C   0  0  0  0  0  0  0  0  0  0  0  0
    4.6146   -1.5818   -1.7002 O   0  0  0  0  0  0  0  0  0  0  0  0
    5.9906   -1.2783   -1.8147 C   0  0  0  0  0  0  0  0  0  0  0  0
    4.2847    0.1986   -0.1811 C   0  0  0  0  0  0  0  0  0  0  0  0
    5.8827    1.3846    1.5616 H   0  0  0  0  0  0  0  0  0  0  0  0
    5.5535    2.4498    0.1787 H   0  0  0  0  0  0  0  0  0  0  0  0
    5.6528    3.1583    1.8764 H   0  0  0  0  0  0  0  0  0  0  0  0
    1.4531    1.1798    1.3468 H   0  0  0  0  0  0  0  0  0  0  0  0
   -0.1979   -1.6422   -0.4944 H   0  0  0  0  0  0  0  0  0  0  0  0
   -1.7496   -2.1164    2.2854 H   0  0  0  0  0  0  0  0  0  0  0  0
   -4.0932   -2.7501    2.3516 H   0  0  0  0  0  0  0  0  0  0  0  0
   -6.8630    0.1973    0.3344 H   0  0  0  0  0  0  0  0  0  0  0  0
   -6.7660   -1.0617   -0.9096 H   0  0  0  0  0  0  0  0  0  0  0  0
   -7.9531   -1.1900    0.4975 H   0  0  0  0  0  0  0  0  0  0  0  0
   -4.9298    0.3346   -0.4853 H   0  0  0  0  0  0  0  0  0  0  0  0
   -4.1993    2.2021   -0.8633 H   0  0  0  0  0  0  0  0  0  0  0  0
   -2.9217    2.8441   -1.9101 H   0  0  0  0  0  0  0  0  0  0  0  0
   -3.6825    1.3139   -2.3974 H   0  0  0  0  0  0  0  0  0  0  0  0
    2.0638   -2.0208   -1.3887 H   0  0  0  0  0  0  0  0  0  0  0  0
    6.1656   -0.1981   -1.9968 H   0  0  0  0  0  0  0  0  0  0  0  0
    6.4728   -1.8166   -2.6495 H   0  0  0  0  0  0  0  0  0  0  0  0
    6.4639   -1.5536   -0.8494 H   0  0  0  0  0  0  0  0  0  0  0  0
    5.3373    0.4640   -0.2419 H   0  0  0  0  0  0  0  0  0  0  0  0
  1  2  1  0
  2  3  1  0
  3  4  2  0
  4  5  1  0
  5  6  1  0
  6  7  2  0
  7  8  1  0
  8  9  2  0
  9 10  1  0
 10 11  2  0
 11 12  1  0
 12 13  1  0
 11 14  1  0
 14 15  2  0
 15 16  1  0
 16 17  1  0
  5 18  2  0
 18 19  1  0
 19 20  1  0
 20 21  1  0
 19 22  2  0
 22  3  1  0
 15  8  1  0
  1 23  1  0
  1 24  1  0
  1 25  1  0
  4 26  1  0
  6 27  1  0
  9 28  1  0
 10 29  1  0
 13 30  1  0
 13 31  1  0
 13 32  1  0
 14 33  1  0
 17 34  1  0
 17 35  1  0
 17 36  1  0
 18 37  1  0
 21 38  1  0
 21 39  1  0
 21 40  1  0
 22 41  1  0
M  END
$$$$
