@<TRIPOS>MOLECULE
*****
 72 76 0 0 0
SMALL
GASTEIGER

@<TRIPOS>ATOM
      1 C           9.9407    2.8775   -0.7687 C.3     1  UNL1        0.0365
      2 O           9.4843    1.7696   -1.4566 O.3     1  UNL1       -0.3817
      3 C           8.5820    0.9779   -0.7891 C.3     1  UNL1        0.0600
      4 C           7.3502    1.7364   -0.4359 C.3     1  UNL1        0.0223
      5 N           6.3721    0.9324    0.2569 N.3     1  UNL1       -0.3001
      6 C           5.7521   -0.0873   -0.5113 C.3     1  UNL1       -0.0005
      7 C           4.3939    0.2209   -1.0492 C.3     1  UNL1       -0.0333
      8 C           3.4076    0.7289   -0.0302 C.3     1  UNL1       -0.0135
      9 C           2.3305   -0.2584    0.2363 C.ar    1  UNL1       -0.0419
     10 C           2.6680   -1.4604    0.7973 C.ar    1  UNL1       -0.0532
     11 C           1.6799   -2.3824    1.0475 C.ar    1  UNL1       -0.0227
     12 C           2.0040   -3.6944    1.6535 C.3     1  UNL1       -0.0376
     13 C           0.3453   -2.0893    0.7297 C.ar    1  UNL1        0.0924
     14 N          -0.7905   -2.7623    0.8513 N.ar    1  UNL1       -0.2272
     15 C          -1.8738   -2.0541    0.3917 C.ar    1  UNL1        0.1463
     16 C          -3.2246   -2.5794    0.5134 C.ar    1  UNL1        0.1022
     17 C          -4.3545   -1.9902    0.0487 C.ar    1  UNL1        0.0446
     18 N          -4.2480   -0.9864   -0.9474 N.pl3   1  UNL1       -0.3403
     19 C          -5.4226   -0.2707   -1.4133 C.3     1  UNL1        0.0393
     20 C          -5.8528    0.6970   -0.3568 C.3     1  UNL1        0.0956
     21 O          -4.7853    1.6075   -0.1414 O.3     1  UNL1       -0.3856
     22 C          -7.0012    1.5363   -0.7934 C.ar    1  UNL1       -0.0163
     23 C          -8.2614    1.3584   -0.2638 C.ar    1  UNL1       -0.0560
     24 C          -9.3405    2.1337   -0.6652 C.ar    1  UNL1       -0.0600
     25 C          -9.1943    3.1191   -1.6161 C.ar    1  UNL1       -0.0434
     26 C          -7.9415    3.3027   -2.1490 C.ar    1  UNL1        0.0413
     27 CL         -7.7181    4.5402   -3.3560 Cl      1  UNL1       -0.0835
     28 C          -6.8721    2.5368   -1.7531 C.ar    1  UNL1       -0.0377
     29 C          -5.6493   -2.4677    0.3732 C.ar    1  UNL1       -0.0239
     30 C          -5.7099   -3.5704    1.1843 C.ar    1  UNL1        0.0067
     31 N          -4.6236   -4.1882    1.6615 N.ar    1  UNL1       -0.3284
     32 C          -3.4191   -3.7076    1.3356 C.ar    1  UNL1        0.2612
     33 O          -2.3876   -4.3057    1.7962 O.2     1  UNL1       -0.2671
     34 N          -1.3587   -0.9190   -0.0150 N.ar    1  UNL1       -0.3377
     35 C           0.0058   -0.8866    0.1682 C.ar    1  UNL1        0.0670
     36 C           0.9968    0.0261   -0.0775 C.ar    1  UNL1       -0.0328
     37 C           4.1417    0.9933    1.2546 C.3     1  UNL1       -0.0333
     38 C           5.4526    1.7237    1.0054 C.3     1  UNL1       -0.0005
     39 H           9.1087    3.5456   -0.5290 H       1  UNL1        0.0523
     40 H          10.4625    2.5016    0.1461 H       1  UNL1        0.0523
     41 H          10.6530    3.4765   -1.3915 H       1  UNL1        0.0523
     42 H           9.1146    0.5675    0.0991 H       1  UNL1        0.0572
     43 H           8.3421    0.1246   -1.4800 H       1  UNL1        0.0572
     44 H           6.9607    2.2492   -1.3220 H       1  UNL1        0.0449
     45 H           7.6233    2.5463    0.3060 H       1  UNL1        0.0449
     46 H           5.7635   -1.0162    0.1231 H       1  UNL1        0.0427
     47 H           6.3850   -0.3589   -1.3858 H       1  UNL1        0.0427
     48 H           4.5048    0.9392   -1.8877 H       1  UNL1        0.0283
     49 H           4.0199   -0.7251   -1.5332 H       1  UNL1        0.0283
     50 H           2.9223    1.6546   -0.4204 H       1  UNL1        0.0350
     51 H           3.6900   -1.7317    1.0613 H       1  UNL1        0.0624
     52 H           3.0318   -3.7274    2.0449 H       1  UNL1        0.0278
     53 H           1.3390   -3.8313    2.5567 H       1  UNL1        0.0278
     54 H           1.8325   -4.5301    0.9580 H       1  UNL1        0.0278
     55 H          -3.3586   -0.7720   -1.4133 H       1  UNL1        0.1462
     56 H          -6.2512   -0.9390   -1.6841 H       1  UNL1        0.0490
     57 H          -5.1570    0.3491   -2.3152 H       1  UNL1        0.0490
     58 H          -6.1240    0.1873    0.5579 H       1  UNL1        0.0659
     59 H          -5.0278    2.0856    0.6908 H       1  UNL1        0.2103
     60 H          -8.4125    0.5953    0.4835 H       1  UNL1        0.0621
     61 H         -10.3416    1.9893   -0.2418 H       1  UNL1        0.0618
     62 H         -10.0383    3.7328   -1.9369 H       1  UNL1        0.0632
     63 H          -5.8769    2.6766   -2.1707 H       1  UNL1        0.0636
     64 H          -6.5018   -1.9754   -0.0238 H       1  UNL1        0.0651
     65 H          -6.6983   -3.9624    1.4528 H       1  UNL1        0.0808
     66 H          -4.6784   -5.0369    2.2836 H       1  UNL1        0.1683
     67 H          -1.8392   -0.1002   -0.3913 H       1  UNL1        0.1674
     68 H           0.7371    0.9697   -0.5169 H       1  UNL1        0.0642
     69 H           4.2903    0.0650    1.8162 H       1  UNL1        0.0283
     70 H           3.5318    1.6719    1.8900 H       1  UNL1        0.0283
     71 H           5.9005    1.9214    2.0012 H       1  UNL1        0.0427
     72 H           5.2139    2.6995    0.5468 H       1  UNL1        0.0427
@<TRIPOS>BOND
     1     1     2    1
     2     2     3    1
     3     3     4    1
     4     4     5    1
     5     5     6    1
     6     6     7    1
     7     7     8    1
     8     8     9    1
     9     9    10   ar
    10    10    11   ar
    11    11    12    1
    12    11    13   ar
    13    13    14   ar
    14    14    15   ar
    15    15    16    1
    16    16    17   ar
    17    17    18    1
    18    18    19    1
    19    19    20    1
    20    20    21    1
    21    20    22    1
    22    22    23   ar
    23    23    24   ar
    24    24    25   ar
    25    25    26   ar
    26    26    27    1
    27    26    28   ar
    28    17    29   ar
    29    29    30   ar
    30    30    31   ar
    31    31    32   ar
    32    32    33    2
    33    15    34   ar
    34    34    35   ar
    35    35    36   ar
    36     8    37    1
    37    37    38    1
    38    38     5    1
    39    36     9   ar
    40    35    13   ar
    41    32    16   ar
    42    28    22   ar
    43     1    39    1
    44     1    40    1
    45     1    41    1
    46     3    42    1
    47     3    43    1
    48     4    44    1
    49     4    45    1
    50     6    46    1
    51     6    47    1
    52     7    48    1
    53     7    49    1
    54     8    50    1
    55    10    51    1
    56    12    52    1
    57    12    53    1
    58    12    54    1
    59    18    55    1
    60    19    56    1
    61    19    57    1
    62    20    58    1
    63    21    59    1
    64    23    60    1
    65    24    61    1
    66    25    62    1
    67    28    63    1
    68    29    64    1
    69    30    65    1
    70    31    66    1
    71    34    67    1
    72    36    68    1
    73    37    69    1
    74    37    70    1
    75    38    71    1
    76    38    72    1
