
     RDKit          3D

 72 76  0  0  0  0  0  0  0  0999 V2000
    9.9407    2.8775   -0.7687 C   0  0  0  0  0  0  0  0  0  0  0  0
    9.4843    1.7696   -1.4566 O   0  0  0  0  0  0  0  0  0  0  0  0
    8.5820    0.9779   -0.7891 C   0  0  0  0  0  0  0  0  0  0  0  0
    7.3502    1.7364   -0.4359 C   0  0  0  0  0  0  0  0  0  0  0  0
    6.3721    0.9324    0.2569 N   0  0  0  0  0  0  0  0  0  0  0  0
    5.7521   -0.0873   -0.5113 C   0  0  0  0  0  0  0  0  0  0  0  0
    4.3939    0.2209   -1.0492 C   0  0  0  0  0  0  0  0  0  0  0  0
    3.4076    0.7289   -0.0302 C   0  0  0  0  0  0  0  0  0  0  0  0
    2.3305   -0.2584    0.2363 C   0  0  0  0  0  0  0  0  0  0  0  0
    2.6680   -1.4604    0.7973 C   0  0  0  0  0  0  0  0  0  0  0  0
    1.6799   -2.3824    1.0475 C   0  0  0  0  0  0  0  0  0  0  0  0
    2.0040   -3.6944    1.6535 C   0  0  0  0  0  0  0  0  0  0  0  0
    0.3453   -2.0893    0.7297 C   0  0  0  0  0  0  0  0  0  0  0  0
   -0.7905   -2.7623    0.8513 N   0  0  0  0  0  0  0  0  0  0  0  0
   -1.8738   -2.0541    0.3917 C   0  0  0  0  0  0  0  0  0  0  0  0
   -3.2246   -2.5794    0.5134 C   0  0  0  0  0  0  0  0  0  0  0  0
   -4.3545   -1.9902    0.0487 C   0  0  0  0  0  0  0  0  0  0  0  0
   -4.2480   -0.9864   -0.9474 N   0  0  0  0  0  0  0  0  0  0  0  0
   -5.4226   -0.2707   -1.4133 C   0  0  0  0  0  0  0  0  0  0  0  0
   -5.8528    0.6970   -0.3568 C   0  0  1  0  0  0  0  0  0  0  0  0
   -4.7853    1.6075   -0.1414 O   0  0  0  0  0  0  0  0  0  0  0  0
   -7.0012    1.5363   -0.7934 C   0  0  0  0  0  0  0  0  0  0  0  0
   -8.2614    1.3584   -0.2638 C   0  0  0  0  0  0  0  0  0  0  0  0
   -9.3405    2.1337   -0.6652 C   0  0  0  0  0  0  0  0  0  0  0  0
   -9.1943    3.1191   -1.6161 C   0  0  0  0  0  0  0  0  0  0  0  0
   -7.9415    3.3027   -2.1490 C   0  0  0  0  0  0  0  0  0  0  0  0
   -7.7181    4.5402   -3.3560 Cl  0  0  0  0  0  0  0  0  0  0  0  0
   -6.8721    2.5368   -1.7531 C   0  0  0  0  0  0  0  0  0  0  0  0
   -5.6493   -2.4677    0.3732 C   0  0  0  0  0  0  0  0  0  0  0  0
   -5.7099   -3.5704    1.1843 C   0  0  0  0  0  0  0  0  0  0  0  0
   -4.6236   -4.1882    1.6615 N   0  0  0  0  0  0  0  0  0  0  0  0
   -3.4191   -3.7076    1.3356 C   0  0  0  0  0  0  0  0  0  0  0  0
   -2.3876   -4.3057    1.7962 O   0  0  0  0  0  0  0  0  0  0  0  0
   -1.3587   -0.9190   -0.0150 N   0  0  0  0  0  0  0  0  0  0  0  0
    0.0058   -0.8866    0.1682 C   0  0  0  0  0  0  0  0  0  0  0  0
    0.9968    0.0261   -0.0775 C   0  0  0  0  0  0  0  0  0  0  0  0
    4.1417    0.9933    1.2546 C   0  0  0  0  0  0  0  0  0  0  0  0
    5.4526    1.7237    1.0054 C   0  0  0  0  0  0  0  0  0  0  0  0
    9.1087    3.5456   -0.5290 H   0  0  0  0  0  0  0  0  0  0  0  0
   10.4625    2.5016    0.1461 H   0  0  0  0  0  0  0  0  0  0  0  0
   10.6530    3.4765   -1.3915 H   0  0  0  0  0  0  0  0  0  0  0  0
    9.1146    0.5675    0.0991 H   0  0  0  0  0  0  0  0  0  0  0  0
    8.3421    0.1246   -1.4800 H   0  0  0  0  0  0  0  0  0  0  0  0
    6.9607    2.2492   -1.3220 H   0  0  0  0  0  0  0  0  0  0  0  0
    7.6233    2.5463    0.3060 H   0  0  0  0  0  0  0  0  0  0  0  0
    5.7635   -1.0162    0.1231 H   0  0  0  0  0  0  0  0  0  0  0  0
    6.3850   -0.3589   -1.3858 H   0  0  0  0  0  0  0  0  0  0  0  0
    4.5048    0.9392   -1.8877 H   0  0  0  0  0  0  0  0  0  0  0  0
    4.0199   -0.7251   -1.5332 H   0  0  0  0  0  0  0  0  0  0  0  0
    2.9223    1.6546   -0.4204 H   0  0  0  0  0  0  0  0  0  0  0  0
    3.6900   -1.7317    1.0613 H   0  0  0  0  0  0  0  0  0  0  0  0
    3.0318   -3.7274    2.0449 H   0  0  0  0  0  0  0  0  0  0  0  0
    1.3390   -3.8313    2.5567 H   0  0  0  0  0  0  0  0  0  0  0  0
    1.8325   -4.5301    0.9580 H   0  0  0  0  0  0  0  0  0  0  0  0
   -3.3586   -0.7720   -1.4133 H   0  0  0  0  0  0  0  0  0  0  0  0
   -6.2512   -0.9390   -1.6841 H   0  0  0  0  0  0  0  0  0  0  0  0
   -5.1570    0.3491   -2.3152 H   0  0  0  0  0  0  0  0  0  0  0  0
   -6.1240    0.1873    0.5579 H   0  0  0  0  0  0  0  0  0  0  0  0
   -5.0278    2.0856    0.6908 H   0  0  0  0  0  0  0  0  0  0  0  0
   -8.4125    0.5953    0.4835 H   0  0  0  0  0  0  0  0  0  0  0  0
  -10.3416    1.9893   -0.2418 H   0  0  0  0  0  0  0  0  0  0  0  0
  -10.0383    3.7328   -1.9369 H   0  0  0  0  0  0  0  0  0  0  0  0
   -5.8769    2.6766   -2.1707 H   0  0  0  0  0  0  0  0  0  0  0  0
   -6.5018   -1.9754   -0.0238 H   0  0  0  0  0  0  0  0  0  0  0  0
   -6.6983   -3.9624    1.4528 H   0  0  0  0  0  0  0  0  0  0  0  0
   -4.6784   -5.0369    2.2836 H   0  0  0  0  0  0  0  0  0  0  0  0
   -1.8392   -0.1002   -0.3913 H   0  0  0  0  0  0  0  0  0  0  0  0
    0.7371    0.9697   -0.5169 H   0  0  0  0  0  0  0  0  0  0  0  0
    4.2903    0.0650    1.8162 H   0  0  0  0  0  0  0  0  0  0  0  0
    3.5318    1.6719    1.8900 H   0  0  0  0  0  0  0  0  0  0  0  0
    5.9005    1.9214    2.0012 H   0  0  0  0  0  0  0  0  0  0  0  0
    5.2139    2.6995    0.5468 H   0  0  0  0  0  0  0  0  0  0  0  0
  1  2  1  0
  2  3  1  0
  3  4  1  0
  4  5  1  0
  5  6  1  0
  6  7  1  0
  7  8  1  0
  8  9  1  0
  9 10  2  0
 10 11  1  0
 11 12  1  0
 11 13  2  0
 13 14  1  0
 14 15  2  0
 15 16  1  0
 16 17  2  0
 17 18  1  0
 18 19  1  0
 19 20  1  0
 20 21  1  0
 20 22  1  0
 22 23  2  0
 23 24  1  0
 24 25  2  0
 25 26  1  0
 26 27  1  0
 26 28  2  0
 17 29  1  0
 29 30  2  0
 30 31  1  0
 31 32  1  0
 32 33  2  0
 15 34  1  0
 34 35  1  0
 35 36  2  0
  8 37  1  0
 37 38  1  0
 38  5  1  0
 36  9  1  0
 35 13  1  0
 32 16  1  0
 28 22  1  0
  1 39  1  0
  1 40  1  0
  1 41  1  0
  3 42  1  0
  3 43  1  0
  4 44  1  0
  4 45  1  0
  6 46  1  0
  6 47  1  0
  7 48  1  0
  7 49  1  0
  8 50  1  0
 10 51  1  0
 12 52  1  0
 12 53  1  0
 12 54  1  0
 18 55  1  0
 19 56  1  0
 19 57  1  0
 20 58  1  1
 21 59  1  0
 23 60  1  0
 24 61  1  0
 25 62  1  0
 28 63  1  0
 29 64  1  0
 30 65  1  0
 31 66  1  0
 34 67  1  0
 36 68  1  0
 37 69  1  0
 37 70  1  0
 38 71  1  0
 38 72  1  0
M  END
$$$$
