@<TRIPOS>MOLECULE
*****
 21 20 0 0 0
SMALL
GASTEIGER

@<TRIPOS>ATOM
      1 CL          2.1517    1.0165    1.9220 Cl      1  UNL1       -0.1238
      2 C           3.0672    0.5678    0.5020 C.3     1  UNL1        0.0382
      3 C           2.5631   -0.6643   -0.1735 C.3     1  UNL1        0.0265
      4 N           1.2259   -0.6260   -0.6696 N.am    1  UNL1       -0.2967
      5 C          -0.0480   -0.4554   -0.0912 C.2     1  UNL1        0.3242
      6 O          -0.1465   -0.2957    1.1440 O.2     1  UNL1       -0.2508
      7 N          -1.3042   -0.4323   -0.6993 N.am    1  UNL1       -0.1401
      8 C          -2.4507   -0.2392    0.1423 C.3     1  UNL1        0.0557
      9 C          -2.7312    1.2550    0.2542 C.3     1  UNL1        0.0405
     10 CL         -3.0345    1.7895   -1.4372 Cl      1  UNL1       -0.1237
     11 N          -1.3657   -0.5978   -2.0829 N.2     1  UNL1        0.0527
     12 O          -0.9967   -1.7315   -2.5023 O.2     1  UNL1       -0.1256
     13 H           3.1590    1.4013   -0.2370 H       1  UNL1        0.0445
     14 H           4.1427    0.3455    0.7738 H       1  UNL1        0.0445
     15 H           2.7394   -1.5360    0.5118 H       1  UNL1        0.0474
     16 H           3.2353   -0.8435   -1.0376 H       1  UNL1        0.0474
     17 H           1.0550   -0.7470   -1.7208 H       1  UNL1        0.1503
     18 H          -3.3682   -0.6862   -0.3054 H       1  UNL1        0.0498
     19 H          -2.3702   -0.7189    1.1403 H       1  UNL1        0.0498
     20 H          -1.8597    1.7704    0.6572 H       1  UNL1        0.0446
     21 H          -3.6637    1.4278    0.8495 H       1  UNL1        0.0446
@<TRIPOS>BOND
     1     1     2    1
     2     2     3    1
     3     3     4    1
     4     4     5   am
     5     5     6    2
     6     5     7   am
     7     7     8    1
     8     8     9    1
     9     9    10    1
    10     7    11    1
    11    11    12    2
    12     2    13    1
    13     2    14    1
    14     3    15    1
    15     3    16    1
    16     4    17    1
    17     8    18    1
    18     8    19    1
    19     9    20    1
    20     9    21    1
