
     RDKit          3D

 21 20  0  0  0  0  0  0  0  0999 V2000
    2.1517    1.0165    1.9220 Cl  0  0  0  0  0  0  0  0  0  0  0  0
    3.0672    0.5678    0.5020 C   0  0  0  0  0  0  0  0  0  0  0  0
    2.5631   -0.6643   -0.1735 C   0  0  0  0  0  0  0  0  0  0  0  0
    1.2259   -0.6260   -0.6696 N   0  0  0  0  0  0  0  0  0  0  0  0
   -0.0480   -0.4554   -0.0912 C   0  0  0  0  0  0  0  0  0  0  0  0
   -0.1465   -0.2957    1.1440 O   0  0  0  0  0  0  0  0  0  0  0  0
   -1.3042   -0.4323   -0.6993 N   0  0  0  0  0  0  0  0  0  0  0  0
   -2.4507   -0.2392    0.1423 C   0  0  0  0  0  0  0  0  0  0  0  0
   -2.7312    1.2550    0.2542 C   0  0  0  0  0  0  0  0  0  0  0  0
   -3.0345    1.7895   -1.4372 Cl  0  0  0  0  0  0  0  0  0  0  0  0
   -1.3657   -0.5978   -2.0829 N   0  0  0  0  0  0  0  0  0  0  0  0
   -0.9967   -1.7315   -2.5023 O   0  0  0  0  0  0  0  0  0  0  0  0
    3.1590    1.4013   -0.2370 H   0  0  0  0  0  0  0  0  0  0  0  0
    4.1427    0.3455    0.7738 H   0  0  0  0  0  0  0  0  0  0  0  0
    2.7394   -1.5360    0.5118 H   0  0  0  0  0  0  0  0  0  0  0  0
    3.2353   -0.8435   -1.0376 H   0  0  0  0  0  0  0  0  0  0  0  0
    1.0550   -0.7470   -1.7208 H   0  0  0  0  0  0  0  0  0  0  0  0
   -3.3682   -0.6862   -0.3054 H   0  0  0  0  0  0  0  0  0  0  0  0
   -2.3702   -0.7189    1.1403 H   0  0  0  0  0  0  0  0  0  0  0  0
   -1.8597    1.7704    0.6572 H   0  0  0  0  0  0  0  0  0  0  0  0
   -3.6637    1.4278    0.8495 H   0  0  0  0  0  0  0  0  0  0  0  0
  1  2  1  0
  2  3  1  0
  3  4  1  0
  4  5  1  0
  5  6  2  0
  5  7  1  0
  7  8  1  0
  8  9  1  0
  9 10  1  0
  7 11  1  0
 11 12  2  0
  2 13  1  0
  2 14  1  0
  3 15  1  0
  3 16  1  0
  4 17  1  0
  8 18  1  0
  8 19  1  0
  9 20  1  0
  9 21  1  0
M  END
$$$$
