@<TRIPOS>MOLECULE
*****
 66 69 0 0 0
SMALL
GASTEIGER

@<TRIPOS>ATOM
      1 C          -8.4378    0.9484   -4.1127 C.3     1  UNL1        0.0789
      2 O          -8.7559    1.3183   -2.7582 O.3     1  UNL1       -0.4933
      3 C          -8.7741    0.2874   -1.8430 C.ar    1  UNL1        0.1450
      4 C         -10.0107   -0.3589   -1.7091 C.ar    1  UNL1        0.0603
      5 BR        -11.5358    0.1669   -2.7223 Br      1  UNL1       -0.0465
      6 C         -10.1169   -1.3971   -0.8221 C.ar    1  UNL1       -0.0407
      7 C          -9.0432   -1.8058   -0.0743 C.ar    1  UNL1       -0.0174
      8 C          -7.8142   -1.1753   -0.1963 C.ar    1  UNL1        0.1397
      9 O          -6.6544   -1.3587    0.3810 O.2     1  UNL1       -0.4498
     10 C          -5.7585   -0.4805   -0.0801 C.ar    1  UNL1        0.1938
     11 C          -4.3718   -0.4289    0.3691 C.2     1  UNL1        0.2839
     12 O          -4.1292   -1.0719    1.4340 O.2     1  UNL1       -0.2665
     13 N          -3.3431    0.2569   -0.2835 N.am    1  UNL1       -0.2790
     14 C          -1.9916    0.3175    0.1545 C.ar    1  UNL1        0.0338
     15 C          -1.0698    1.0524   -0.6057 C.ar    1  UNL1       -0.0399
     16 C           0.2413    1.1397   -0.2242 C.ar    1  UNL1       -0.0523
     17 C           0.7251    0.5240    0.9062 C.ar    1  UNL1       -0.0178
     18 C           2.1148    0.6049    1.3306 C.ar    1  UNL1       -0.0178
     19 C           2.7381   -0.4316    2.0191 C.ar    1  UNL1       -0.0522
     20 C           4.0567   -0.3361    2.4140 C.ar    1  UNL1       -0.0348
     21 C           4.7911    0.7963    2.1332 C.ar    1  UNL1        0.1053
     22 S           6.4522    0.9994    2.5957 S.O2    1  UNL1        0.0591
     23 O           6.6859    2.4980    2.7578 O.2     1  UNL1       -0.1530
     24 O           6.7364    0.4205    3.9524 O.2     1  UNL1       -0.1530
     25 N           7.5158    0.4641    1.3983 N.3     1  UNL1       -0.1759
     26 C           7.4639   -0.9079    1.0336 C.3     1  UNL1        0.1276
     27 C           8.7019   -1.6554    1.4066 C.2     1  UNL1        0.3238
     28 O           9.6640   -1.0897    1.9813 O.2     1  UNL1       -0.2492
     29 O           8.8552   -3.0066    1.1401 O.3     1  UNL1       -0.4795
     30 C           7.1393   -1.0520   -0.4145 C.3     1  UNL1       -0.0194
     31 C           8.1616   -0.3899   -1.3147 C.3     1  UNL1       -0.0607
     32 C           5.7969   -0.4525   -0.7693 C.3     1  UNL1       -0.0607
     33 C           4.1617    1.8128    1.4519 C.ar    1  UNL1       -0.0348
     34 C           2.8461    1.7294    1.0525 C.ar    1  UNL1       -0.0522
     35 C          -0.1660   -0.1933    1.6517 C.ar    1  UNL1       -0.0523
     36 C          -1.5035   -0.2869    1.2692 C.ar    1  UNL1       -0.0399
     37 C          -6.3898    0.3096   -1.0053 C.ar    1  UNL1        0.0112
     38 C          -5.8672    1.4568   -1.7752 C.3     1  UNL1       -0.0353
     39 C          -7.7163   -0.1310   -1.0910 C.ar    1  UNL1        0.0665
     40 H          -7.3873    0.5982   -4.0878 H       1  UNL1        0.0660
     41 H          -8.5517    1.8366   -4.7638 H       1  UNL1        0.0660
     42 H          -9.1015    0.1129   -4.4449 H       1  UNL1        0.0660
     43 H         -11.0751   -1.9171   -0.7012 H       1  UNL1        0.0631
     44 H          -9.1317   -2.6373    0.6345 H       1  UNL1        0.0655
     45 H          -3.5549    0.7739   -1.2070 H       1  UNL1        0.1552
     46 H          -1.4209    1.5602   -1.5187 H       1  UNL1        0.0636
     47 H           0.9407    1.7216   -0.8382 H       1  UNL1        0.0624
     48 H           2.1372   -1.3146    2.2286 H       1  UNL1        0.0624
     49 H           4.5435   -1.1466    2.9521 H       1  UNL1        0.0637
     50 H           8.4599    0.8481    1.5725 H       1  UNL1        0.1489
     51 H           6.6504   -1.3863    1.6242 H       1  UNL1        0.0595
     52 H           9.6097   -3.5746    1.5392 H       1  UNL1        0.2951
     53 H           7.0919   -2.1231   -0.7444 H       1  UNL1        0.0316
     54 H           9.1277   -0.9118   -1.1943 H       1  UNL1        0.0233
     55 H           8.2259    0.6985   -1.1711 H       1  UNL1        0.0233
     56 H           7.8308   -0.5628   -2.3616 H       1  UNL1        0.0233
     57 H           5.8300    0.6557   -0.5980 H       1  UNL1        0.0233
     58 H           4.9564   -0.9485   -0.2587 H       1  UNL1        0.0233
     59 H           5.6126   -0.5371   -1.8806 H       1  UNL1        0.0233
     60 H           4.7031    2.7369    1.2037 H       1  UNL1        0.0637
     61 H           2.4093    2.5659    0.5189 H       1  UNL1        0.0624
     62 H           0.1792   -0.6956    2.5544 H       1  UNL1        0.0624
     63 H          -2.1198   -0.8823    1.9361 H       1  UNL1        0.0636
     64 H          -5.3241    1.1765   -2.6799 H       1  UNL1        0.0279
     65 H          -5.3061    2.1785   -1.1165 H       1  UNL1        0.0279
     66 H          -6.7337    2.0807   -2.1297 H       1  UNL1        0.0279
@<TRIPOS>BOND
     1     1     2    1
     2     2     3    1
     3     3     4   ar
     4     4     5    1
     5     4     6   ar
     6     6     7   ar
     7     7     8   ar
     8     8     9   ar
     9     9    10   ar
    10    10    11    1
    11    11    12    2
    12    11    13   am
    13    13    14    1
    14    14    15   ar
    15    15    16   ar
    16    16    17   ar
    17    17    18    1
    18    18    19   ar
    19    19    20   ar
    20    20    21   ar
    21    21    22    1
    22    22    23    2
    23    22    24    2
    24    22    25    1
    25    25    26    1
    26    26    27    1
    27    27    28    2
    28    27    29    1
    29    26    30    1
    30    30    31    1
    31    30    32    1
    32    21    33   ar
    33    33    34   ar
    34    17    35   ar
    35    35    36   ar
    36    10    37   ar
    37    37    38    1
    38    37    39   ar
    39    39     3   ar
    40    39     8   ar
    41    36    14   ar
    42    34    18   ar
    43     1    40    1
    44     1    41    1
    45     1    42    1
    46     6    43    1
    47     7    44    1
    48    13    45    1
    49    15    46    1
    50    16    47    1
    51    19    48    1
    52    20    49    1
    53    25    50    1
    54    26    51    1
    55    29    52    1
    56    30    53    1
    57    31    54    1
    58    31    55    1
    59    31    56    1
    60    32    57    1
    61    32    58    1
    62    32    59    1
    63    33    60    1
    64    34    61    1
    65    35    62    1
    66    36    63    1
    67    38    64    1
    68    38    65    1
    69    38    66    1
