
     RDKit          3D

 52 55  0  0  0  0  0  0  0  0999 V2000
    5.1679    1.5145   -1.5788 C   0  0  0  0  0  0  0  0  0  0  0  0
    4.5880    0.7972   -0.3430 C   0  0  1  0  0  0  0  0  0  0  0  0
    3.2427    0.6653   -0.4986 O   0  0  0  0  0  0  0  0  0  0  0  0
    2.2050    1.1033    0.2426 C   0  0  0  0  0  0  0  0  0  0  0  0
    0.8890    0.7997   -0.1855 C   0  0  0  0  0  0  0  0  0  0  0  0
   -0.2032    1.1995    0.4971 C   0  0  0  0  0  0  0  0  0  0  0  0
   -1.5619    0.8727    0.0342 C   0  0  0  0  0  0  0  0  0  0  0  0
   -1.9537    0.7348   -1.2763 C   0  0  0  0  0  0  0  0  0  0  0  0
   -3.2707    0.4339   -1.2713 N   0  0  0  0  0  0  0  0  0  0  0  0
   -3.7401    0.3721   -0.0367 N   0  0  0  0  0  0  0  0  0  0  0  0
   -5.1105    0.0744    0.3858 C   0  0  0  0  0  0  0  0  0  0  0  0
   -5.2418   -1.4059    0.5868 C   0  0  0  0  0  0  0  0  0  0  0  0
   -6.6025   -1.9704    0.4467 C   0  0  0  0  0  0  0  0  0  0  0  0
   -7.6137   -1.0560   -0.0126 N   0  0  0  0  0  0  0  0  0  0  0  0
   -7.0541   -0.3333   -1.1415 C   0  0  0  0  0  0  0  0  0  0  0  0
   -6.0809    0.6694   -0.5625 C   0  0  0  0  0  0  0  0  0  0  0  0
   -2.6912    0.6422    0.7830 C   0  0  0  0  0  0  0  0  0  0  0  0
   -0.0197    1.9350    1.6605 C   0  0  0  0  0  0  0  0  0  0  0  0
    1.1820    2.2341    2.0860 N   0  0  0  0  0  0  0  0  0  0  0  0
    2.2861    1.8335    1.4017 C   0  0  0  0  0  0  0  0  0  0  0  0
    3.5390    2.2318    1.9823 N   0  0  0  0  0  0  0  0  0  0  0  0
    5.2802   -0.5534   -0.2809 C   0  0  0  0  0  0  0  0  0  0  0  0
    4.7340   -1.6410   -0.9271 C   0  0  0  0  0  0  0  0  0  0  0  0
    3.2448   -1.4681   -1.8183 Cl  0  0  0  0  0  0  0  0  0  0  0  0
    5.3612   -2.8787   -0.8747 C   0  0  0  0  0  0  0  0  0  0  0  0
    6.5344   -3.0496   -0.1821 C   0  0  0  0  0  0  0  0  0  0  0  0
    7.0790   -1.9498    0.4664 C   0  0  0  0  0  0  0  0  0  0  0  0
    8.2389   -2.1576    1.1401 F   0  0  0  0  0  0  0  0  0  0  0  0
    6.4573   -0.7208    0.4151 C   0  0  0  0  0  0  0  0  0  0  0  0
    7.1693    0.6518    1.2446 Cl  0  0  0  0  0  0  0  0  0  0  0  0
    4.4213    2.2587   -1.8946 H   0  0  0  0  0  0  0  0  0  0  0  0
    6.1365    1.9534   -1.3400 H   0  0  0  0  0  0  0  0  0  0  0  0
    5.2896    0.7354   -2.3704 H   0  0  0  0  0  0  0  0  0  0  0  0
    4.9674    1.3405    0.5207 H   0  0  0  0  0  0  0  0  0  0  0  0
    0.8205    0.2278   -1.0931 H   0  0  0  0  0  0  0  0  0  0  0  0
   -1.3551    0.8388   -2.1682 H   0  0  0  0  0  0  0  0  0  0  0  0
   -5.2554    0.5437    1.3878 H   0  0  0  0  0  0  0  0  0  0  0  0
   -4.5654   -1.8936   -0.1672 H   0  0  0  0  0  0  0  0  0  0  0  0
   -4.8187   -1.7190    1.5768 H   0  0  0  0  0  0  0  0  0  0  0  0
   -6.6100   -2.8301   -0.2788 H   0  0  0  0  0  0  0  0  0  0  0  0
   -6.9626   -2.3729    1.4230 H   0  0  0  0  0  0  0  0  0  0  0  0
   -7.8768   -0.3904    0.7431 H   0  0  0  0  0  0  0  0  0  0  0  0
   -6.4580   -1.0349   -1.7589 H   0  0  0  0  0  0  0  0  0  0  0  0
   -7.8182    0.2099   -1.7206 H   0  0  0  0  0  0  0  0  0  0  0  0
   -5.5289    1.1786   -1.3944 H   0  0  0  0  0  0  0  0  0  0  0  0
   -6.6878    1.4514   -0.0651 H   0  0  0  0  0  0  0  0  0  0  0  0
   -2.7288    0.6735    1.8614 H   0  0  0  0  0  0  0  0  0  0  0  0
   -0.9479    2.2373    2.1807 H   0  0  0  0  0  0  0  0  0  0  0  0
    3.9909    3.1401    1.7298 H   0  0  0  0  0  0  0  0  0  0  0  0
    3.9995    1.5842    2.6806 H   0  0  0  0  0  0  0  0  0  0  0  0
    4.9037   -3.7089   -1.3935 H   0  0  0  0  0  0  0  0  0  0  0  0
    7.0297   -4.0040   -0.1343 H   0  0  0  0  0  0  0  0  0  0  0  0
  1  2  1  0
  2  3  1  0
  3  4  1  0
  4  5  2  0
  5  6  1  0
  6  7  1  0
  7  8  1  0
  8  9  2  0
  9 10  1  0
 10 11  1  0
 11 12  1  0
 12 13  1  0
 13 14  1  0
 14 15  1  0
 15 16  1  0
 10 17  1  0
  6 18  2  0
 18 19  1  0
 19 20  2  0
 20 21  1  0
  2 22  1  0
 22 23  2  0
 23 24  1  0
 23 25  1  0
 25 26  2  0
 26 27  1  0
 27 28  1  0
 27 29  2  0
 29 30  1  0
 20  4  1  0
 29 22  1  0
 17  7  2  0
 16 11  1  0
  1 31  1  0
  1 32  1  0
  1 33  1  0
  2 34  1  1
  5 35  1  0
  8 36  1  0
 11 37  1  0
 12 38  1  0
 12 39  1  0
 13 40  1  0
 13 41  1  0
 14 42  1  0
 15 43  1  0
 15 44  1  0
 16 45  1  0
 16 46  1  0
 17 47  1  0
 18 48  1  0
 21 49  1  0
 21 50  1  0
 25 51  1  0
 26 52  1  0
M  END
$$$$
