@<TRIPOS>MOLECULE
*****
 52 55 0 0 0
SMALL
GASTEIGER

@<TRIPOS>ATOM
      1 C           5.1679    1.5145   -1.5788 C.3     1  UNL1       -0.0234
      2 C           4.5880    0.7972   -0.3430 C.3     1  UNL1        0.1253
      3 O           3.2427    0.6653   -0.4986 O.3     1  UNL1       -0.4810
      4 C           2.2050    1.1033    0.2426 C.ar    1  UNL1        0.1613
      5 C           0.8890    0.7997   -0.1855 C.ar    1  UNL1       -0.0072
      6 C          -0.2032    1.1995    0.4971 C.ar    1  UNL1        0.0068
      7 C          -1.5619    0.8727    0.0342 C.ar    1  UNL1        0.0211
      8 C          -1.9537    0.7348   -1.2763 C.ar    1  UNL1        0.0571
      9 N          -3.2707    0.4339   -1.2713 N.ar    1  UNL1       -0.1788
     10 N          -3.7401    0.3721   -0.0367 N.ar    1  UNL1       -0.2677
     11 C          -5.1105    0.0744    0.3858 C.3     1  UNL1        0.0550
     12 C          -5.2418   -1.4059    0.5868 C.3     1  UNL1       -0.0179
     13 C          -6.6025   -1.9704    0.4467 C.3     1  UNL1       -0.0022
     14 N          -7.6137   -1.0560   -0.0126 N.3     1  UNL1       -0.3158
     15 C          -7.0541   -0.3333   -1.1415 C.3     1  UNL1       -0.0022
     16 C          -6.0809    0.6694   -0.5625 C.3     1  UNL1       -0.0179
     17 C          -2.6912    0.6422    0.7830 C.ar    1  UNL1        0.0336
     18 C          -0.0197    1.9350    1.6605 C.ar    1  UNL1        0.0377
     19 N           1.1820    2.2341    2.0860 N.ar    1  UNL1       -0.2364
     20 C           2.2861    1.8335    1.4017 C.ar    1  UNL1        0.1583
     21 N           3.5390    2.2318    1.9823 N.pl3   1  UNL1       -0.3402
     22 C           5.2802   -0.5534   -0.2809 C.ar    1  UNL1        0.0318
     23 C           4.7340   -1.6410   -0.9271 C.ar    1  UNL1        0.0492
     24 CL          3.2448   -1.4681   -1.8183 Cl      1  UNL1       -0.0831
     25 C           5.3612   -2.8787   -0.8747 C.ar    1  UNL1       -0.0402
     26 C           6.5344   -3.0496   -0.1821 C.ar    1  UNL1       -0.0236
     27 C           7.0790   -1.9498    0.4664 C.ar    1  UNL1        0.1421
     28 F           8.2389   -2.1576    1.1401 F       1  UNL1       -0.2039
     29 C           6.4573   -0.7208    0.4151 C.ar    1  UNL1        0.0841
     30 CL          7.1693    0.6518    1.2446 Cl      1  UNL1       -0.0801
     31 H           4.4213    2.2587   -1.8946 H       1  UNL1        0.0269
     32 H           6.1365    1.9534   -1.3400 H       1  UNL1        0.0269
     33 H           5.2896    0.7354   -2.3704 H       1  UNL1        0.0269
     34 H           4.9674    1.3405    0.5207 H       1  UNL1        0.0782
     35 H           0.8205    0.2278   -1.0931 H       1  UNL1        0.0662
     36 H          -1.3551    0.8388   -2.1682 H       1  UNL1        0.0854
     37 H          -5.2554    0.5437    1.3878 H       1  UNL1        0.0545
     38 H          -4.5654   -1.8936   -0.1672 H       1  UNL1        0.0298
     39 H          -4.8187   -1.7190    1.5768 H       1  UNL1        0.0298
     40 H          -6.6100   -2.8301   -0.2788 H       1  UNL1        0.0425
     41 H          -6.9626   -2.3729    1.4230 H       1  UNL1        0.0425
     42 H          -7.8768   -0.3904    0.7431 H       1  UNL1        0.1219
     43 H          -6.4580   -1.0349   -1.7589 H       1  UNL1        0.0425
     44 H          -7.8182    0.2099   -1.7206 H       1  UNL1        0.0425
     45 H          -5.5289    1.1786   -1.3944 H       1  UNL1        0.0298
     46 H          -6.6878    1.4514   -0.0651 H       1  UNL1        0.0298
     47 H          -2.7288    0.6735    1.8614 H       1  UNL1        0.0832
     48 H          -0.9479    2.2373    2.1807 H       1  UNL1        0.0836
     49 H           3.9909    3.1401    1.7298 H       1  UNL1        0.1438
     50 H           3.9995    1.5842    2.6806 H       1  UNL1        0.1438
     51 H           4.9037   -3.7089   -1.3935 H       1  UNL1        0.0633
     52 H           7.0297   -4.0040   -0.1343 H       1  UNL1        0.0647
@<TRIPOS>BOND
     1     1     2    1
     2     2     3    1
     3     3     4    1
     4     4     5   ar
     5     5     6   ar
     6     6     7    1
     7     7     8   ar
     8     8     9   ar
     9     9    10   ar
    10    10    11    1
    11    11    12    1
    12    12    13    1
    13    13    14    1
    14    14    15    1
    15    15    16    1
    16    10    17   ar
    17     6    18   ar
    18    18    19   ar
    19    19    20   ar
    20    20    21    1
    21     2    22    1
    22    22    23   ar
    23    23    24    1
    24    23    25   ar
    25    25    26   ar
    26    26    27   ar
    27    27    28    1
    28    27    29   ar
    29    29    30    1
    30    20     4   ar
    31    29    22   ar
    32    17     7   ar
    33    16    11    1
    34     1    31    1
    35     1    32    1
    36     1    33    1
    37     2    34    1
    38     5    35    1
    39     8    36    1
    40    11    37    1
    41    12    38    1
    42    12    39    1
    43    13    40    1
    44    13    41    1
    45    14    42    1
    46    15    43    1
    47    15    44    1
    48    16    45    1
    49    16    46    1
    50    17    47    1
    51    18    48    1
    52    21    49    1
    53    21    50    1
    54    25    51    1
    55    26    52    1
