@<TRIPOS>MOLECULE
*****
 103 105 0 0 0
SMALL
GASTEIGER

@<TRIPOS>ATOM
      1 C          -6.0544    3.0360    4.3846 C.3     1  UNL1        0.0833
      2 O          -5.6764    2.8201    3.0382 O.3     1  UNL1       -0.4537
      3 C          -5.8897    1.6539    2.3553 C.2     1  UNL1        0.4006
      4 O          -6.4651    0.8187    3.0986 O.2     1  UNL1       -0.2265
      5 N          -5.5233    1.3990    1.0039 N.am    1  UNL1       -0.2693
      6 C          -5.7797    0.1329    0.3401 C.3     1  UNL1        0.1073
      7 C          -4.5610   -0.6806    0.1142 C.2     1  UNL1        0.2343
      8 O          -4.2958   -1.8129   -0.3644 O.2     1  UNL1       -0.2737
      9 N          -3.3502   -0.0506    0.5406 N.am    1  UNL1       -0.3081
     10 C          -1.9136   -0.4633    0.5485 C.3     1  UNL1        0.0543
     11 C          -1.2358    0.2271   -0.6098 C.3     1  UNL1       -0.0067
     12 C          -1.9271   -0.2245   -1.8569 C.ar    1  UNL1       -0.0455
     13 C          -1.4585   -1.3948   -2.4572 C.ar    1  UNL1       -0.0585
     14 C          -1.9513   -1.9705   -3.6252 C.ar    1  UNL1       -0.0615
     15 C          -2.9976   -1.3180   -4.2383 C.ar    1  UNL1       -0.0617
     16 C          -3.4704   -0.1636   -3.6589 C.ar    1  UNL1       -0.0615
     17 C          -2.9791    0.4018   -2.5021 C.ar    1  UNL1       -0.0585
     18 C          -1.3363   -0.1816    1.8957 C.3     1  UNL1        0.0880
     19 O          -2.1376   -0.8884    2.8567 O.3     1  UNL1       -0.3886
     20 C           0.0702   -0.6856    2.0060 C.3     1  UNL1        0.0448
     21 N           1.0442   -0.0879    1.1303 N.3     1  UNL1       -0.2202
     22 C           1.2156    1.3037    1.5522 C.3     1  UNL1        0.0418
     23 C           2.2261    2.0222    0.7333 C.ar    1  UNL1       -0.0317
     24 C           1.7955    2.6498   -0.4189 C.ar    1  UNL1       -0.0567
     25 C           2.6118    3.3533   -1.2755 C.ar    1  UNL1       -0.0523
     26 C           3.9566    3.4587   -0.9941 C.ar    1  UNL1        0.0004
     27 C           4.4127    2.8425    0.1488 C.ar    1  UNL1       -0.0523
     28 C           3.5832    2.1407    0.9985 C.ar    1  UNL1       -0.0567
     29 C           4.7861    4.2033   -1.9124 C.ar    1  UNL1        0.0710
     30 C           6.1364    4.3867   -1.7387 C.ar    1  UNL1       -0.0357
     31 C           6.8771    5.1121   -2.6451 C.ar    1  UNL1       -0.0583
     32 C           6.2721    5.6704   -3.7497 C.ar    1  UNL1       -0.0436
     33 C           4.9080    5.4732   -3.9061 C.ar    1  UNL1        0.0283
     34 N           4.2161    4.7598   -3.0019 N.ar    1  UNL1       -0.2550
     35 N           2.2979   -0.7134    1.4008 N.am    1  UNL1       -0.2463
     36 C           2.4631   -1.9290    0.6388 C.2     1  UNL1        0.2476
     37 O           1.5119   -2.2769   -0.1455 O.2     1  UNL1       -0.2724
     38 C           3.6038   -2.8521    0.6376 C.3     1  UNL1        0.1085
     39 N           4.6909   -2.3653    1.4986 N.am    1  UNL1       -0.2693
     40 C           5.9487   -2.1300    0.8847 C.2     1  UNL1        0.4006
     41 O           6.2880   -2.2786   -0.3249 O.2     1  UNL1       -0.2265
     42 O           7.1416   -1.6724    1.4540 O.3     1  UNL1       -0.4537
     43 C           8.2932   -1.5127    0.6182 C.3     1  UNL1        0.0833
     44 C           3.2159   -4.2600    1.0416 C.3     1  UNL1       -0.0107
     45 C           2.2021   -4.7787    0.0793 C.3     1  UNL1       -0.0579
     46 C           2.7784   -4.3354    2.4798 C.3     1  UNL1       -0.0579
     47 C           4.4661   -5.1040    0.9242 C.3     1  UNL1       -0.0579
     48 C          -6.7339    0.2150   -0.7829 C.3     1  UNL1       -0.0107
     49 C          -6.9266   -1.1619   -1.4315 C.3     1  UNL1       -0.0579
     50 C          -8.1115    0.5195   -0.1461 C.3     1  UNL1       -0.0579
     51 C          -6.4448    1.1758   -1.8765 C.3     1  UNL1       -0.0579
     52 H          -5.9558    4.0742    4.6974 H       1  UNL1        0.0661
     53 H          -5.3231    2.4370    5.0052 H       1  UNL1        0.0661
     54 H          -7.0722    2.6122    4.5556 H       1  UNL1        0.0661
     55 H          -5.0531    2.2515    0.5859 H       1  UNL1        0.1528
     56 H          -6.3384   -0.4583    1.1455 H       1  UNL1        0.0601
     57 H          -3.3613    0.9319    0.9578 H       1  UNL1        0.1491
     58 H          -1.8715   -1.5380    0.3207 H       1  UNL1        0.0527
     59 H          -0.1966   -0.0931   -0.7116 H       1  UNL1        0.0332
     60 H          -1.2548    1.3267   -0.5120 H       1  UNL1        0.0332
     61 H          -0.6197   -1.9190   -1.9678 H       1  UNL1        0.0620
     62 H          -1.5231   -2.8740   -4.0073 H       1  UNL1        0.0618
     63 H          -3.4382   -1.7040   -5.1544 H       1  UNL1        0.0618
     64 H          -4.3009    0.3280   -4.1827 H       1  UNL1        0.0618
     65 H          -3.3414    1.3060   -2.0412 H       1  UNL1        0.0620
     66 H          -1.4015    0.8889    2.1390 H       1  UNL1        0.0625
     67 H          -1.6133   -0.8603    3.6827 H       1  UNL1        0.2099
     68 H           0.4043   -0.5520    3.0861 H       1  UNL1        0.0469
     69 H           0.1218   -1.8007    1.8804 H       1  UNL1        0.0469
     70 H           0.2733    1.8807    1.5069 H       1  UNL1        0.0492
     71 H           1.5649    1.3500    2.6159 H       1  UNL1        0.0492
     72 H           0.7506    2.6008   -0.6867 H       1  UNL1        0.0621
     73 H           2.1776    3.8224   -2.1738 H       1  UNL1        0.0624
     74 H           5.4627    2.9072    0.3932 H       1  UNL1        0.0624
     75 H           3.9313    1.6564    1.8991 H       1  UNL1        0.0621
     76 H           6.6414    3.9633   -0.8856 H       1  UNL1        0.0639
     77 H           7.9530    5.2942   -2.5640 H       1  UNL1        0.0619
     78 H           6.7336    6.2626   -4.5401 H       1  UNL1        0.0633
     79 H           4.3760    5.8944   -4.7670 H       1  UNL1        0.0830
     80 H           3.1840   -0.6060    1.9803 H       1  UNL1        0.1693
     81 H           4.0175   -2.9085   -0.3834 H       1  UNL1        0.0601
     82 H           4.6868   -2.1584    2.5175 H       1  UNL1        0.1528
     83 H           8.0594   -0.9426   -0.3047 H       1  UNL1        0.0661
     84 H           9.0932   -1.0594    1.2093 H       1  UNL1        0.0661
     85 H           8.5970   -2.5446    0.2977 H       1  UNL1        0.0661
     86 H           1.1789   -4.4995    0.4478 H       1  UNL1        0.0236
     87 H           2.2186   -5.9022    0.1483 H       1  UNL1        0.0236
     88 H           2.3556   -4.4196   -0.9541 H       1  UNL1        0.0236
     89 H           3.0283   -5.3614    2.8810 H       1  UNL1        0.0236
     90 H           3.4022   -3.6425    3.0842 H       1  UNL1        0.0236
     91 H           1.6894   -4.2168    2.6340 H       1  UNL1        0.0236
     92 H           4.7925   -5.2480   -0.1154 H       1  UNL1        0.0236
     93 H           5.2885   -4.5614    1.4771 H       1  UNL1        0.0236
     94 H           4.3392   -6.1000    1.4195 H       1  UNL1        0.0236
     95 H          -6.8351   -1.9334   -0.6397 H       1  UNL1        0.0236
     96 H          -7.9142   -1.2585   -1.9233 H       1  UNL1        0.0236
     97 H          -6.0684   -1.3498   -2.1301 H       1  UNL1        0.0236
     98 H          -8.6697   -0.4141    0.0751 H       1  UNL1        0.0236
     99 H          -8.7440    1.0781   -0.8637 H       1  UNL1        0.0236
    100 H          -7.9631    1.1789    0.7326 H       1  UNL1        0.0236
    101 H          -5.6273    1.8905   -1.6713 H       1  UNL1        0.0236
    102 H          -7.3921    1.7728   -2.0640 H       1  UNL1        0.0236
    103 H          -6.2362    0.7337   -2.8724 H       1  UNL1        0.0236
@<TRIPOS>BOND
     1     1     2    1
     2     2     3    1
     3     3     4    2
     4     3     5   am
     5     5     6    1
     6     6     7    1
     7     7     8    2
     8     7     9   am
     9     9    10    1
    10    10    11    1
    11    11    12    1
    12    12    13   ar
    13    13    14   ar
    14    14    15   ar
    15    15    16   ar
    16    16    17   ar
    17    10    18    1
    18    18    19    1
    19    18    20    1
    20    20    21    1
    21    21    22    1
    22    22    23    1
    23    23    24   ar
    24    24    25   ar
    25    25    26   ar
    26    26    27   ar
    27    27    28   ar
    28    26    29    1
    29    29    30   ar
    30    30    31   ar
    31    31    32   ar
    32    32    33   ar
    33    33    34   ar
    34    21    35    1
    35    35    36   am
    36    36    37    2
    37    36    38    1
    38    38    39    1
    39    39    40   am
    40    40    41    2
    41    40    42    1
    42    42    43    1
    43    38    44    1
    44    44    45    1
    45    44    46    1
    46    44    47    1
    47     6    48    1
    48    48    49    1
    49    48    50    1
    50    48    51    1
    51    17    12   ar
    52    28    23   ar
    53    34    29   ar
    54     1    52    1
    55     1    53    1
    56     1    54    1
    57     5    55    1
    58     6    56    1
    59     9    57    1
    60    10    58    1
    61    11    59    1
    62    11    60    1
    63    13    61    1
    64    14    62    1
    65    15    63    1
    66    16    64    1
    67    17    65    1
    68    18    66    1
    69    19    67    1
    70    20    68    1
    71    20    69    1
    72    22    70    1
    73    22    71    1
    74    24    72    1
    75    25    73    1
    76    27    74    1
    77    28    75    1
    78    30    76    1
    79    31    77    1
    80    32    78    1
    81    33    79    1
    82    35    80    1
    83    38    81    1
    84    39    82    1
    85    43    83    1
    86    43    84    1
    87    43    85    1
    88    45    86    1
    89    45    87    1
    90    45    88    1
    91    46    89    1
    92    46    90    1
    93    46    91    1
    94    47    92    1
    95    47    93    1
    96    47    94    1
    97    49    95    1
    98    49    96    1
    99    49    97    1
   100    50    98    1
   101    50    99    1
   102    50   100    1
   103    51   101    1
   104    51   102    1
   105    51   103    1
