@<TRIPOS>MOLECULE
*****
 25 27 0 0 0
SMALL
GASTEIGER

@<TRIPOS>ATOM
      1 O           3.8613    1.9523    1.8479 O.2     1  UNL1       -0.2674
      2 C           3.6923    0.8896    1.1520 C.2     1  UNL1        0.2774
      3 N           4.7294    0.0349    0.8270 N.am    1  UNL1       -0.1348
      4 C           4.5071   -0.9918    0.1431 C.2     1  UNL1        0.2466
      5 O           5.4452   -1.9322   -0.2544 O.2     1  UNL1       -0.4890
      6 S           2.7567   -1.0107   -0.2192 S.3     1  UNL1       -0.0290
      7 C           2.3902    0.5047    0.6514 C.2     1  UNL1        0.0812
      8 C           1.2596    1.1247    0.8103 C.2     1  UNL1       -0.0355
      9 C           0.0153    0.6089    0.2400 C.ar    1  UNL1       -0.0217
     10 C          -0.0442    0.0272   -0.9839 C.ar    1  UNL1       -0.0524
     11 C          -1.2554   -0.4526   -1.4843 C.ar    1  UNL1       -0.0337
     12 C          -2.3912   -0.3297   -0.7246 C.ar    1  UNL1        0.0892
     13 N          -3.5994   -0.7757   -1.1497 N.ar    1  UNL1       -0.2519
     14 C          -4.6990   -0.6493   -0.3939 C.ar    1  UNL1        0.0464
     15 C          -4.6334   -0.0579    0.8481 C.ar    1  UNL1        0.0464
     16 N          -3.4482    0.3926    1.2941 N.ar    1  UNL1       -0.2519
     17 C          -2.3529    0.2574    0.5211 C.ar    1  UNL1        0.0897
     18 C          -1.1316    0.7335    1.0103 C.ar    1  UNL1       -0.0270
     19 H           6.4061   -1.5933   -0.3155 H       1  UNL1        0.2941
     20 H           1.2609    2.0543    1.3887 H       1  UNL1        0.0636
     21 H           0.8374   -0.0738   -1.5967 H       1  UNL1        0.0624
     22 H          -1.3331   -0.9277   -2.4559 H       1  UNL1        0.0640
     23 H          -5.6340   -1.0190   -0.7755 H       1  UNL1        0.0845
     24 H          -5.5376    0.0459    1.4743 H       1  UNL1        0.0845
     25 H          -1.1015    1.1878    1.9782 H       1  UNL1        0.0645
@<TRIPOS>BOND
     1     1     2    2
     2     2     3    1
     3     3     4    2
     4     4     5    1
     5     4     6    1
     6     6     7    1
     7     7     8    2
     8     8     9    1
     9     9    10   ar
    10    10    11   ar
    11    11    12   ar
    12    12    13   ar
    13    13    14   ar
    14    14    15   ar
    15    15    16   ar
    16    16    17   ar
    17    17    18   ar
    18     7     2    1
    19    18     9   ar
    20    17    12   ar
    21     5    19    1
    22     8    20    1
    23    10    21    1
    24    11    22    1
    25    14    23    1
    26    15    24    1
    27    18    25    1
