@<TRIPOS>MOLECULE
*****
 72 74 0 0 0
SMALL
GASTEIGER

@<TRIPOS>ATOM
      1 C           9.1797   -1.4519   -0.8269 C.3     1  UNL1       -0.0224
      2 C           7.9281   -1.2824   -0.0272 C.ar    1  UNL1        0.0385
      3 C           6.9737   -0.3587   -0.3959 C.ar    1  UNL1       -0.0372
      4 C           5.8138   -0.2017    0.3453 C.ar    1  UNL1       -0.0413
      5 C           4.7657    0.7946   -0.0379 C.3     1  UNL1       -0.0271
      6 C           3.5860    0.1260   -0.6727 C.3     1  UNL1       -0.0461
      7 C           2.5051    1.0650   -1.0906 C.3     1  UNL1       -0.0383
      8 C           1.3696    0.2715   -1.7230 C.3     1  UNL1       -0.0357
      9 C           0.4868   -0.3284   -0.6483 C.3     1  UNL1        0.0204
     10 N          -0.0526    0.7534    0.1353 N.3     1  UNL1       -0.1810
     11 S          -1.3970    0.4193    1.0757 S.O2    1  UNL1        0.0339
     12 O          -1.6379    1.5950    2.0032 O.2     1  UNL1       -0.1580
     13 O          -1.0386   -0.7776    1.9752 O.2     1  UNL1       -0.1580
     14 C          -2.8837   -0.0555    0.2547 C.3     1  UNL1        0.1053
     15 C          -3.4307    1.0238   -0.5953 C.3     1  UNL1        0.0821
     16 C          -3.6775    2.2364    0.3277 C.3     1  UNL1       -0.0396
     17 C          -4.6825    0.7054   -1.3501 C.3     1  UNL1       -0.0183
     18 C          -5.9214    0.3377   -0.6778 C.3     1  UNL1        0.0182
     19 C          -6.5400    1.2912    0.2783 C.3     1  UNL1       -0.0554
     20 C          -6.0685   -1.0463   -0.1783 C.ar    1  UNL1        0.1320
     21 N          -6.1931   -2.0991   -0.9899 N.ar    1  UNL1       -0.2372
     22 C          -6.3602   -3.3332   -0.5156 C.ar    1  UNL1        0.0663
     23 C          -6.4082   -3.5487    0.8392 C.ar    1  UNL1        0.1594
     24 F          -6.5788   -4.8037    1.3618 F       1  UNL1       -0.2023
     25 C          -6.2813   -2.4741    1.6864 C.ar    1  UNL1        0.0663
     26 N          -6.1148   -1.2527    1.1444 N.ar    1  UNL1       -0.2372
     27 N          -2.4861    1.4554   -1.5809 N.am    1  UNL1       -0.1788
     28 O          -1.9657    2.7276   -1.5790 O.3     1  UNL1       -0.2921
     29 C          -2.0491    0.5882   -2.5988 C.2     1  UNL1        0.2256
     30 O          -2.3843   -0.6047   -2.7635 O.2     1  UNL1       -0.2772
     31 C           1.0311    1.3015    0.9217 C.3     1  UNL1        0.0204
     32 C           2.0008    1.9935   -0.0437 C.3     1  UNL1       -0.0357
     33 C           5.5955   -0.9687    1.4659 C.ar    1  UNL1       -0.0292
     34 C           4.3859   -0.8598    2.3064 C.3     1  UNL1       -0.0380
     35 C           6.5778   -1.8875    1.8062 C.ar    1  UNL1        0.0310
     36 N           7.6939   -2.0219    1.0725 N.ar    1  UNL1       -0.2599
     37 H           9.9953   -1.8682   -0.2007 H       1  UNL1        0.0292
     38 H           9.0435   -2.1474   -1.6709 H       1  UNL1        0.0292
     39 H           9.5251   -0.4453   -1.1648 H       1  UNL1        0.0292
     40 H           7.1057    0.2628   -1.2677 H       1  UNL1        0.0638
     41 H           5.2284    1.4612   -0.8063 H       1  UNL1        0.0313
     42 H           4.5068    1.4432    0.8197 H       1  UNL1        0.0313
     43 H           3.9705   -0.3458   -1.6256 H       1  UNL1        0.0271
     44 H           3.2125   -0.7382   -0.0710 H       1  UNL1        0.0271
     45 H           2.9211    1.6924   -1.9257 H       1  UNL1        0.0302
     46 H           0.8042    1.0118   -2.3240 H       1  UNL1        0.0281
     47 H           1.8360   -0.4860   -2.3693 H       1  UNL1        0.0281
     48 H          -0.2775   -0.9584   -1.0754 H       1  UNL1        0.0444
     49 H           1.2005   -0.9384    0.0054 H       1  UNL1        0.0444
     50 H          -3.5811   -0.4176    1.0377 H       1  UNL1        0.0538
     51 H          -2.5816   -0.9104   -0.4267 H       1  UNL1        0.0538
     52 H          -4.4238    2.9289   -0.0942 H       1  UNL1        0.0252
     53 H          -3.8481    1.9333    1.3730 H       1  UNL1        0.0252
     54 H          -2.7193    2.8370    0.3512 H       1  UNL1        0.0252
     55 H          -4.4457   -0.1102   -2.0798 H       1  UNL1        0.0294
     56 H          -4.8838    1.5915   -1.9996 H       1  UNL1        0.0294
     57 H          -6.6905    0.3304   -1.5682 H       1  UNL1        0.0377
     58 H          -6.1320    1.3080    1.2924 H       1  UNL1        0.0236
     59 H          -6.7173    2.3117   -0.1635 H       1  UNL1        0.0236
     60 H          -7.6053    0.9179    0.4282 H       1  UNL1        0.0236
     61 H          -6.4641   -4.2069   -1.1584 H       1  UNL1        0.0860
     62 H          -6.3168   -2.6239    2.7751 H       1  UNL1        0.0860
     63 H          -2.3459    3.1829   -2.3880 H       1  UNL1        0.2417
     64 H          -1.3314    0.9534   -3.3609 H       1  UNL1        0.1274
     65 H           0.6932    2.0465    1.6596 H       1  UNL1        0.0444
     66 H           1.5878    0.4903    1.4450 H       1  UNL1        0.0444
     67 H           1.3972    2.7995   -0.5575 H       1  UNL1        0.0281
     68 H           2.8240    2.4566    0.4904 H       1  UNL1        0.0281
     69 H           3.8960    0.1095    2.2338 H       1  UNL1        0.0278
     70 H           4.7130   -0.9691    3.3764 H       1  UNL1        0.0278
     71 H           3.7137   -1.7085    2.0645 H       1  UNL1        0.0278
     72 H           6.4485   -2.5237    2.6940 H       1  UNL1        0.0832
@<TRIPOS>BOND
     1     1     2    1
     2     2     3   ar
     3     3     4   ar
     4     4     5    1
     5     5     6    1
     6     6     7    1
     7     7     8    1
     8     8     9    1
     9     9    10    1
    10    10    11    1
    11    11    12    2
    12    11    13    2
    13    11    14    1
    14    14    15    1
    15    15    16    1
    16    15    17    1
    17    17    18    1
    18    18    19    1
    19    18    20    1
    20    20    21   ar
    21    21    22   ar
    22    22    23   ar
    23    23    24    1
    24    23    25   ar
    25    25    26   ar
    26    15    27    1
    27    27    28    1
    28    27    29   am
    29    29    30    2
    30    10    31    1
    31    31    32    1
    32     4    33   ar
    33    33    34    1
    34    33    35   ar
    35    35    36   ar
    36    36     2   ar
    37    32     7    1
    38    26    20   ar
    39     1    37    1
    40     1    38    1
    41     1    39    1
    42     3    40    1
    43     5    41    1
    44     5    42    1
    45     6    43    1
    46     6    44    1
    47     7    45    1
    48     8    46    1
    49     8    47    1
    50     9    48    1
    51     9    49    1
    52    14    50    1
    53    14    51    1
    54    16    52    1
    55    16    53    1
    56    16    54    1
    57    17    55    1
    58    17    56    1
    59    18    57    1
    60    19    58    1
    61    19    59    1
    62    19    60    1
    63    22    61    1
    64    25    62    1
    65    28    63    1
    66    29    64    1
    67    31    65    1
    68    31    66    1
    69    32    67    1
    70    32    68    1
    71    34    69    1
    72    34    70    1
    73    34    71    1
    74    35    72    1
