@<TRIPOS>MOLECULE
*****
 38 40 0 0 0
SMALL
GASTEIGER

@<TRIPOS>ATOM
      1 C          -6.6906    2.2522   -0.6603 C.3     1  UNL1        0.0788
      2 O          -6.2080    1.0761   -1.2794 O.3     1  UNL1       -0.4951
      3 C          -5.2940    0.3050   -0.5971 C.ar    1  UNL1        0.1201
      4 C          -4.7959   -0.8499   -1.1609 C.ar    1  UNL1       -0.0197
      5 C          -3.8804   -1.6535   -0.5174 C.ar    1  UNL1       -0.0547
      6 C          -3.4199   -1.3267    0.7372 C.ar    1  UNL1       -0.0408
      7 C          -2.4449   -2.1384    1.4791 C.3     1  UNL1        0.0231
      8 C          -1.0784   -1.6795    1.1546 C.ar    1  UNL1        0.1080
      9 N          -0.2556   -0.7746    1.6754 N.ar    1  UNL1       -0.1443
     10 N           0.8876   -0.5995    1.1675 N.ar    1  UNL1       -0.1256
     11 C           1.3552   -1.1965    0.1989 C.ar    1  UNL1        0.1877
     12 N           2.5420   -1.2459   -0.5915 N.am    1  UNL1       -0.2630
     13 C           3.5828   -0.3802   -0.2503 C.2     1  UNL1        0.2235
     14 O           3.4560    0.4203    0.7389 O.2     1  UNL1       -0.2750
     15 C           4.8538   -0.3653   -1.0196 C.3     1  UNL1        0.0557
     16 C           5.8234    0.6072   -0.5130 C.ar    1  UNL1       -0.0015
     17 C           6.7968    0.5488    0.4039 C.ar    1  UNL1       -0.0511
     18 C           7.5549    1.6215    0.6753 C.ar    1  UNL1       -0.0545
     19 C           7.3053    2.7876   -0.0155 C.ar    1  UNL1       -0.0241
     20 S           5.9185    2.3384   -1.1111 S.2     1  UNL1       -0.1011
     21 S          -0.0323   -2.2968   -0.1949 S.2     1  UNL1       -0.0350
     22 C          -3.9132   -0.1719    1.3098 C.ar    1  UNL1       -0.0547
     23 C          -4.8429    0.6457    0.6581 C.ar    1  UNL1       -0.0197
     24 H          -7.0796    2.0830    0.3469 H       1  UNL1        0.0660
     25 H          -7.4836    2.6963   -1.3196 H       1  UNL1        0.0660
     26 H          -5.8111    2.9552   -0.5895 H       1  UNL1        0.0660
     27 H          -5.1512   -1.1194   -2.1512 H       1  UNL1        0.0654
     28 H          -3.5290   -2.5440   -1.0116 H       1  UNL1        0.0622
     29 H          -2.6121   -3.1987    1.1975 H       1  UNL1        0.0382
     30 H          -2.5491   -2.0503    2.5788 H       1  UNL1        0.0382
     31 H           2.6643   -1.8870   -1.3965 H       1  UNL1        0.1568
     32 H           5.3084   -1.3701   -0.9921 H       1  UNL1        0.0412
     33 H           4.6801   -0.1323   -2.1015 H       1  UNL1        0.0412
     34 H           6.9619   -0.4328    0.9440 H       1  UNL1        0.0626
     35 H           8.3934    1.6418    1.4372 H       1  UNL1        0.0623
     36 H           7.7672    3.7771    0.0168 H       1  UNL1        0.0693
     37 H          -3.5622    0.1057    2.3024 H       1  UNL1        0.0622
     38 H          -5.2177    1.5512    1.1290 H       1  UNL1        0.0654
@<TRIPOS>BOND
     1     1     2    1
     2     2     3    1
     3     3     4   ar
     4     4     5   ar
     5     5     6   ar
     6     6     7    1
     7     7     8    1
     8     8     9   ar
     9     9    10   ar
    10    10    11   ar
    11    11    12    1
    12    12    13   am
    13    13    14    2
    14    13    15    1
    15    15    16    1
    16    16    17   ar
    17    17    18   ar
    18    18    19   ar
    19    19    20   ar
    20    11    21   ar
    21     6    22   ar
    22    22    23   ar
    23    23     3   ar
    24    21     8   ar
    25    20    16   ar
    26     1    24    1
    27     1    25    1
    28     1    26    1
    29     4    27    1
    30     5    28    1
    31     7    29    1
    32     7    30    1
    33    12    31    1
    34    15    32    1
    35    15    33    1
    36    17    34    1
    37    18    35    1
    38    19    36    1
    39    22    37    1
    40    23    38    1
