@<TRIPOS>MOLECULE
*****
 48 50 0 0 0
SMALL
GASTEIGER

@<TRIPOS>ATOM
      1 C           2.5010   -1.4781    1.2873 C.3     1  UNL1       -0.0598
      2 C           1.7840   -0.1826    0.7594 C.3     1  UNL1       -0.0150
      3 C           2.6797    0.0198   -0.4855 C.3     1  UNL1        0.0023
      4 N           4.0470    0.2000   -0.1691 N.3     1  UNL1       -0.3080
      5 C           4.7665    0.3784   -1.4401 C.3     1  UNL1       -0.0130
      6 C           4.2615    1.3930    0.6254 C.3     1  UNL1       -0.0130
      7 C           0.4297   -0.5041    0.5478 C.3     1  UNL1        0.0210
      8 N          -0.8355   -0.1952    0.1848 N.pl3   1  UNL1       -0.2993
      9 C          -1.7617   -1.3154    0.0537 C.ar    1  UNL1        0.0372
     10 C          -1.3532   -2.4267    0.7797 C.ar    1  UNL1       -0.0401
     11 C          -2.0314   -3.6244    0.8355 C.ar    1  UNL1       -0.0600
     12 C          -3.1944   -3.7548    0.1337 C.ar    1  UNL1       -0.0614
     13 C          -3.6510   -2.6959   -0.6023 C.ar    1  UNL1       -0.0568
     14 C          -2.9567   -1.5261   -0.6361 C.ar    1  UNL1       -0.0257
     15 C          -3.5300   -0.4144   -1.4804 C.3     1  UNL1       -0.0219
     16 C          -3.8168    0.7957   -0.6234 C.3     1  UNL1       -0.0219
     17 C          -2.6123    1.6329   -0.4212 C.ar    1  UNL1       -0.0257
     18 C          -2.8132    2.9829   -0.5968 C.ar    1  UNL1       -0.0568
     19 C          -1.7804    3.8820   -0.4277 C.ar    1  UNL1       -0.0614
     20 C          -0.5222    3.3916   -0.0731 C.ar    1  UNL1       -0.0600
     21 C          -0.4017    2.0308    0.0837 C.ar    1  UNL1       -0.0401
     22 C          -1.3969    1.0911   -0.0729 C.ar    1  UNL1        0.0372
     23 H           3.5712   -1.3262    1.3072 H       1  UNL1        0.0233
     24 H           2.0714   -1.6643    2.3038 H       1  UNL1        0.0233
     25 H           2.1969   -2.3350    0.6586 H       1  UNL1        0.0233
     26 H           2.1064    0.5055    1.5957 H       1  UNL1        0.0326
     27 H           2.3357    0.9075   -1.0597 H       1  UNL1        0.0429
     28 H           2.5661   -0.8773   -1.1145 H       1  UNL1        0.0429
     29 H           5.3108    1.3402   -1.4522 H       1  UNL1        0.0391
     30 H           5.4454   -0.4959   -1.5706 H       1  UNL1        0.0391
     31 H           4.0821    0.3678   -2.3130 H       1  UNL1        0.0391
     32 H           4.9899    2.0879    0.1250 H       1  UNL1        0.0391
     33 H           4.7728    1.1139    1.5861 H       1  UNL1        0.0391
     34 H           3.3216    1.9584    0.8312 H       1  UNL1        0.0391
     35 H           0.1766   -0.6858    1.6644 H       1  UNL1        0.0471
     36 H           0.6241   -1.4770   -0.0176 H       1  UNL1        0.0471
     37 H          -0.4456   -2.4059    1.3541 H       1  UNL1        0.0636
     38 H          -1.6773   -4.4645    1.4140 H       1  UNL1        0.0618
     39 H          -3.7922   -4.6406    0.1125 H       1  UNL1        0.0618
     40 H          -4.5416   -2.6469   -1.2016 H       1  UNL1        0.0621
     41 H          -4.4685   -0.8058   -1.8646 H       1  UNL1        0.0317
     42 H          -2.7910   -0.1288   -2.2655 H       1  UNL1        0.0317
     43 H          -4.5526    1.4127   -1.1975 H       1  UNL1        0.0317
     44 H          -4.2579    0.5018    0.3574 H       1  UNL1        0.0317
     45 H          -3.7965    3.3350   -0.8708 H       1  UNL1        0.0621
     46 H          -1.9378    4.9421   -0.5657 H       1  UNL1        0.0618
     47 H           0.2970    4.0807    0.0634 H       1  UNL1        0.0618
     48 H           0.5810    1.7198    0.3618 H       1  UNL1        0.0636
@<TRIPOS>BOND
     1     1     2    1
     2     2     3    1
     3     3     4    1
     4     4     5    1
     5     4     6    1
     6     2     7    1
     7     7     8    1
     8     8     9    1
     9     9    10   ar
    10    10    11   ar
    11    11    12   ar
    12    12    13   ar
    13    13    14   ar
    14    14    15    1
    15    15    16    1
    16    16    17    1
    17    17    18   ar
    18    18    19   ar
    19    19    20   ar
    20    20    21   ar
    21    21    22   ar
    22    22     8    1
    23    14     9   ar
    24    22    17   ar
    25     1    23    1
    26     1    24    1
    27     1    25    1
    28     2    26    1
    29     3    27    1
    30     3    28    1
    31     5    29    1
    32     5    30    1
    33     5    31    1
    34     6    32    1
    35     6    33    1
    36     6    34    1
    37     7    35    1
    38     7    36    1
    39    10    37    1
    40    11    38    1
    41    12    39    1
    42    13    40    1
    43    15    41    1
    44    15    42    1
    45    16    43    1
    46    16    44    1
    47    18    45    1
    48    19    46    1
    49    20    47    1
    50    21    48    1
