
     RDKit          3D

 36 38  0  0  0  0  0  0  0  0999 V2000
    5.7588    0.5409    1.2091 C   0  0  0  0  0  0  0  0  0  0  0  0
    4.4047    0.8723    1.1950 O   0  0  0  0  0  0  0  0  0  0  0  0
    3.4445    0.3206    0.3563 C   0  0  0  0  0  0  0  0  0  0  0  0
    3.7090   -0.6282   -0.5724 N   0  0  0  0  0  0  0  0  0  0  0  0
    2.7237   -1.1276   -1.3628 C   0  0  0  0  0  0  0  0  0  0  0  0
    3.0724   -2.1356   -2.3314 N   0  0  0  0  0  0  0  0  0  0  0  0
    1.4449   -0.7124   -1.2684 N   0  0  0  0  0  0  0  0  0  0  0  0
    1.1306    0.2299   -0.3598 C   0  0  0  0  0  0  0  0  0  0  0  0
    2.1333    0.7449    0.4517 C   0  0  0  0  0  0  0  0  0  0  0  0
    1.5921    1.6541    1.2645 N   0  0  0  0  0  0  0  0  0  0  0  0
    0.2700    1.7322    0.9923 C   0  0  0  0  0  0  0  0  0  0  0  0
   -0.0230    0.8540   -0.0116 N   0  0  0  0  0  0  0  0  0  0  0  0
   -1.3198    0.6269   -0.5986 C   0  0  2  0  0  0  0  0  0  0  0  0
   -2.2840    1.3248    0.1211 O   0  0  0  0  0  0  0  0  0  0  0  0
   -3.4705    0.6146   -0.0022 C   0  0  2  0  0  0  0  0  0  0  0  0
   -4.4268    0.8929    1.1349 C   0  0  0  0  0  0  0  0  0  0  0  0
   -4.8030    2.2075    1.2533 O   0  0  0  0  0  0  0  0  0  0  0  0
   -2.9942   -0.8085    0.1943 C   0  0  1  0  0  0  0  0  0  0  0  0
   -3.9141   -1.7325   -0.2924 O   0  0  0  0  0  0  0  0  0  0  0  0
   -1.7143   -0.8063   -0.6134 C   0  0  2  0  0  0  0  0  0  0  0  0
   -0.7577   -1.6536   -0.0666 O   0  0  0  0  0  0  0  0  0  0  0  0
    6.2777    1.3764    1.7513 H   0  0  0  0  0  0  0  0  0  0  0  0
    5.9584   -0.4361    1.7077 H   0  0  0  0  0  0  0  0  0  0  0  0
    6.1363    0.4989    0.1542 H   0  0  0  0  0  0  0  0  0  0  0  0
    3.9648   -2.6641   -2.2277 H   0  0  0  0  0  0  0  0  0  0  0  0
    2.4468   -2.3465   -3.1359 H   0  0  0  0  0  0  0  0  0  0  0  0
   -0.4009    2.3962    1.5119 H   0  0  0  0  0  0  0  0  0  0  0  0
   -1.3877    1.0376   -1.6397 H   0  0  0  0  0  0  0  0  0  0  0  0
   -3.9445    0.7738   -0.9913 H   0  0  0  0  0  0  0  0  0  0  0  0
   -5.3431    0.2936    0.9112 H   0  0  0  0  0  0  0  0  0  0  0  0
   -3.9963    0.4697    2.0687 H   0  0  0  0  0  0  0  0  0  0  0  0
   -4.6486    2.7769    0.4724 H   0  0  0  0  0  0  0  0  0  0  0  0
   -2.7747   -0.9437    1.2724 H   0  0  0  0  0  0  0  0  0  0  0  0
   -3.4742   -2.6082   -0.3258 H   0  0  0  0  0  0  0  0  0  0  0  0
   -2.0157   -1.1321   -1.6410 H   0  0  0  0  0  0  0  0  0  0  0  0
   -0.7750   -2.5034   -0.5813 H   0  0  0  0  0  0  0  0  0  0  0  0
  1  2  1  0
  2  3  1  0
  3  4  2  0
  4  5  1  0
  5  6  1  0
  5  7  2  0
  7  8  1  0
  8  9  2  0
  9 10  1  0
 10 11  2  0
 11 12  1  0
 12 13  1  0
 13 14  1  0
 14 15  1  0
 15 16  1  0
 16 17  1  0
 15 18  1  0
 18 19  1  0
 18 20  1  0
 20 21  1  0
  9  3  1  0
 20 13  1  0
 12  8  1  0
  1 22  1  0
  1 23  1  0
  1 24  1  0
  6 25  1  0
  6 26  1  0
 11 27  1  0
 13 28  1  6
 15 29  1  6
 16 30  1  0
 16 31  1  0
 17 32  1  0
 18 33  1  1
 19 34  1  0
 20 35  1  6
 21 36  1  0
M  END
$$$$
