@<TRIPOS>MOLECULE
*****
 36 38 0 0 0
SMALL
GASTEIGER

@<TRIPOS>ATOM
      1 C           5.7588    0.5409    1.2091 C.3     1  UNL1        0.0805
      2 O           4.4047    0.8723    1.1950 O.3     1  UNL1       -0.4781
      3 C           3.4445    0.3206    0.3563 C.ar    1  UNL1        0.2474
      4 N           3.7090   -0.6282   -0.5724 N.ar    1  UNL1       -0.1777
      5 C           2.7237   -1.1276   -1.3628 C.ar    1  UNL1        0.2176
      6 N           3.0724   -2.1356   -2.3314 N.pl3   1  UNL1       -0.3273
      7 N           1.4449   -0.7124   -1.2684 N.ar    1  UNL1       -0.1947
      8 C           1.1306    0.2299   -0.3598 C.ar    1  UNL1        0.1712
      9 C           2.1333    0.7449    0.4517 C.ar    1  UNL1        0.1693
     10 N           1.5921    1.6541    1.2645 N.ar    1  UNL1       -0.2287
     11 C           0.2700    1.7322    0.9923 C.ar    1  UNL1        0.1005
     12 N          -0.0230    0.8540   -0.0116 N.ar    1  UNL1       -0.2854
     13 C1*        -1.3198    0.6269   -0.5986 C.3     1  UNL1        0.1667
     14 O4*        -2.2840    1.3248    0.1211 O.3     1  UNL1       -0.3457
     15 C4*        -3.4705    0.6146   -0.0022 C.3     1  UNL1        0.1126
     16 C5*        -4.4268    0.8929    1.1349 C.3     1  UNL1        0.0730
     17 O5*        -4.8030    2.2075    1.2533 O.3     1  UNL1       -0.3924
     18 C3*        -2.9942   -0.8085    0.1943 C.3     1  UNL1        0.1135
     19 O3*        -3.9141   -1.7325   -0.2924 O.3     1  UNL1       -0.3864
     20 C2*        -1.7143   -0.8063   -0.6134 C.3     1  UNL1        0.1285
     21 O2*        -0.7577   -1.6536   -0.0666 O.3     1  UNL1       -0.3847
     22 H           6.2777    1.3764    1.7513 H       1  UNL1        0.0660
     23 H           5.9584   -0.4361    1.7077 H       1  UNL1        0.0660
     24 H           6.1363    0.4989    0.1542 H       1  UNL1        0.0660
     25 H           3.9648   -2.6641   -2.2277 H       1  UNL1        0.1452
     26 H           2.4468   -2.3465   -3.1359 H       1  UNL1        0.1452
     27 H          -0.4009    2.3962    1.5119 H       1  UNL1        0.1030
     28 H1*        -1.3877    1.0376   -1.6397 H       1  UNL1        0.0866
     29 H4*        -3.9445    0.7738   -0.9913 H       1  UNL1        0.0647
     30 H5*1       -5.3431    0.2936    0.9112 H       1  UNL1        0.0584
     31 H5*2       -3.9963    0.4697    2.0687 H       1  UNL1        0.0584
     32 H5*        -4.6486    2.7769    0.4724 H       1  UNL1        0.2095
     33 H3*        -2.7747   -0.9437    1.2724 H       1  UNL1        0.0647
     34 H3*        -3.4742   -2.6082   -0.3258 H       1  UNL1        0.2100
     35 H2*        -2.0157   -1.1321   -1.6410 H       1  UNL1        0.0665
     36 H2*        -0.7750   -2.5034   -0.5813 H       1  UNL1        0.2101
@<TRIPOS>BOND
     1     1     2    1
     2     2     3    1
     3     3     4   ar
     4     4     5   ar
     5     5     6    1
     6     5     7   ar
     7     7     8   ar
     8     8     9   ar
     9     9    10   ar
    10    10    11   ar
    11    11    12   ar
    12    12    13    1
    13    13    14    1
    14    14    15    1
    15    15    16    1
    16    16    17    1
    17    15    18    1
    18    18    19    1
    19    18    20    1
    20    20    21    1
    21     9     3   ar
    22    20    13    1
    23    12     8   ar
    24     1    22    1
    25     1    23    1
    26     1    24    1
    27     6    25    1
    28     6    26    1
    29    11    27    1
    30    13    28    1
    31    15    29    1
    32    16    30    1
    33    16    31    1
    34    17    32    1
    35    18    33    1
    36    19    34    1
    37    20    35    1
    38    21    36    1
