@<TRIPOS>MOLECULE
*****
 78 82 0 0 0
SMALL
GASTEIGER

@<TRIPOS>ATOM
      1 C           1.0787   -2.4214   -0.7722 C.3     1  UNL1        0.0790
      2 O           2.4476   -2.1724   -0.5220 O.3     1  UNL1       -0.4914
      3 C           2.7941   -0.9420    0.0145 C.ar    1  UNL1        0.1623
      4 C           1.8977    0.0397    0.3148 C.ar    1  UNL1       -0.0036
      5 C           2.2393    1.2612    0.8470 C.ar    1  UNL1        0.0463
      6 C           1.2580    2.2341    1.1354 C.ar    1  UNL1        0.1393
      7 O           0.0253    2.0275    0.9179 O.3     1  UNL1       -0.4524
      8 C          -1.2212    1.7640    0.7409 C.ar    1  UNL1        0.1636
      9 C          -1.8904    0.6874    1.3633 C.ar    1  UNL1       -0.0147
     10 C          -3.2139    0.4195    1.1697 C.ar    1  UNL1       -0.0368
     11 C          -3.9293    1.2397    0.3266 C.ar    1  UNL1        0.0364
     12 N          -5.3315    0.9587    0.1261 N.am    1  UNL1       -0.2846
     13 C          -6.3277    1.4918    0.9350 C.2     1  UNL1        0.2323
     14 O          -5.8296    2.2732    1.8691 O.2     1  UNL1       -0.2743
     15 C          -7.7802    1.3615    0.9490 C.3     1  UNL1        0.1233
     16 C          -8.6013    0.4653    0.1362 C.2     1  UNL1        0.2323
     17 O          -9.8766    0.6976    0.2493 O.2     1  UNL1       -0.2743
     18 N          -8.2823   -0.5771   -0.7204 N.am    1  UNL1       -0.2846
     19 C          -9.1684   -1.3999   -1.4919 C.ar    1  UNL1        0.0336
     20 C          -8.6368   -2.4172   -2.2837 C.ar    1  UNL1       -0.0378
     21 C          -9.4127   -3.2442   -3.0528 C.ar    1  UNL1       -0.0247
     22 C         -10.7663   -3.0789   -3.0556 C.ar    1  UNL1        0.1235
     23 F         -11.5376   -3.9032   -3.8223 F       1  UNL1       -0.2055
     24 C         -11.3440   -2.1035   -2.3033 C.ar    1  UNL1       -0.0247
     25 C         -10.5244   -1.2698   -1.5244 C.ar    1  UNL1       -0.0378
     26 C          -8.4886    2.7361    1.2435 C.3     1  UNL1       -0.0292
     27 C          -8.4179    1.7549    2.3236 C.3     1  UNL1       -0.0292
     28 C          -3.3384    2.3063   -0.3124 C.ar    1  UNL1       -0.0015
     29 C          -2.0016    2.5695   -0.1112 C.ar    1  UNL1        0.1672
     30 F          -1.3783    3.6161   -0.7250 F       1  UNL1       -0.2016
     31 C           1.7647    3.4335    1.6778 C.ar    1  UNL1       -0.0006
     32 C           3.0906    3.6152    1.8959 C.ar    1  UNL1        0.0318
     33 N           3.9751    2.6546    1.6022 N.ar    1  UNL1       -0.2546
     34 C           3.5703    1.4902    1.0851 C.ar    1  UNL1        0.0782
     35 C           4.5181    0.4981    0.7867 C.ar    1  UNL1        0.0098
     36 C           4.1625   -0.7114    0.2570 C.ar    1  UNL1        0.1639
     37 O           5.0402   -1.6941   -0.0493 O.3     1  UNL1       -0.4882
     38 C           6.3935   -1.8441    0.0061 C.3     1  UNL1        0.0898
     39 C           7.1577   -0.9195   -0.8751 C.3     1  UNL1       -0.0186
     40 C           8.6627   -1.1159   -0.7866 C.3     1  UNL1       -0.0495
     41 C           9.1824   -0.8877    0.5932 C.3     1  UNL1       -0.0446
     42 C          10.6524   -1.0813    0.6885 C.3     1  UNL1        0.0259
     43 C          11.4612   -0.1780   -0.1386 C.2     1  UNL1        0.2354
     44 O          10.9408    0.7331   -0.8219 O.2     1  UNL1       -0.2737
     45 N          12.8926   -0.3011   -0.2000 N.am    1  UNL1       -0.1975
     46 O          13.5832    0.5504   -0.9717 O.3     1  UNL1       -0.2952
     47 H           1.0192   -3.4554   -1.1793 H       1  UNL1        0.0660
     48 H           0.6636   -1.6592   -1.4427 H       1  UNL1        0.0660
     49 H           0.4790   -2.4085    0.1706 H       1  UNL1        0.0660
     50 H           0.8458   -0.1693    0.1159 H       1  UNL1        0.0663
     51 H          -1.3244    0.0608    2.0132 H       1  UNL1        0.0656
     52 H          -3.7454   -0.3960    1.6351 H       1  UNL1        0.0637
     53 H          -5.5729    0.3565   -0.6668 H       1  UNL1        0.1548
     54 H          -7.2459   -0.8102   -0.7924 H       1  UNL1        0.1548
     55 H          -7.5549   -2.5475   -2.2790 H       1  UNL1        0.0637
     56 H          -8.9467   -4.0329   -3.6613 H       1  UNL1        0.0647
     57 H         -12.4136   -1.9714   -2.3037 H       1  UNL1        0.0647
     58 H         -11.0576   -0.5288   -0.9640 H       1  UNL1        0.0637
     59 H          -7.8330    3.6171    1.3300 H       1  UNL1        0.0280
     60 H          -9.4758    2.8855    0.7722 H       1  UNL1        0.0280
     61 H          -7.6841    1.8548    3.1574 H       1  UNL1        0.0280
     62 H          -9.3094    1.1407    2.5560 H       1  UNL1        0.0280
     63 H          -3.9097    2.9508   -0.9769 H       1  UNL1        0.0666
     64 H           1.0834    4.2186    1.9235 H       1  UNL1        0.0670
     65 H           3.5154    4.5352    2.3154 H       1  UNL1        0.0831
     66 H           5.5511    0.7234    1.0095 H       1  UNL1        0.0677
     67 H           6.6249   -2.9260   -0.2123 H       1  UNL1        0.0696
     68 H           6.6984   -1.7122    1.0957 H       1  UNL1        0.0696
     69 H           6.8976   -1.1321   -1.9423 H       1  UNL1        0.0298
     70 H           6.9389    0.1149   -0.6801 H       1  UNL1        0.0298
     71 H           8.8900   -2.1331   -1.1650 H       1  UNL1        0.0266
     72 H           9.1009   -0.4113   -1.4955 H       1  UNL1        0.0266
     73 H           8.9598    0.1502    0.9524 H       1  UNL1        0.0270
     74 H           8.7049   -1.5973    1.3195 H       1  UNL1        0.0270
     75 H          10.9087   -2.1585    0.4697 H       1  UNL1        0.0359
     76 H          10.9948   -0.9434    1.7564 H       1  UNL1        0.0359
     77 H          13.3394   -1.0709    0.3769 H       1  UNL1        0.1822
     78 H          13.3678    0.3048   -1.9219 H       1  UNL1        0.2414
@<TRIPOS>BOND
     1     1     2    1
     2     2     3    1
     3     3     4   ar
     4     4     5   ar
     5     5     6   ar
     6     6     7    1
     7     7     8    1
     8     8     9   ar
     9     9    10   ar
    10    10    11   ar
    11    11    12    1
    12    12    13   am
    13    13    14    2
    14    13    15    1
    15    15    16    1
    16    16    17    2
    17    16    18   am
    18    18    19    1
    19    19    20   ar
    20    20    21   ar
    21    21    22   ar
    22    22    23    1
    23    22    24   ar
    24    24    25   ar
    25    15    26    1
    26    26    27    1
    27    11    28   ar
    28    28    29   ar
    29    29    30    1
    30     6    31   ar
    31    31    32   ar
    32    32    33   ar
    33    33    34   ar
    34    34    35   ar
    35    35    36   ar
    36    36    37    1
    37    37    38    1
    38    38    39    1
    39    39    40    1
    40    40    41    1
    41    41    42    1
    42    42    43    1
    43    43    44    2
    44    43    45   am
    45    45    46    1
    46    36     3   ar
    47    34     5   ar
    48    29     8   ar
    49    27    15    1
    50    25    19   ar
    51     1    47    1
    52     1    48    1
    53     1    49    1
    54     4    50    1
    55     9    51    1
    56    10    52    1
    57    12    53    1
    58    18    54    1
    59    20    55    1
    60    21    56    1
    61    24    57    1
    62    25    58    1
    63    26    59    1
    64    26    60    1
    65    27    61    1
    66    27    62    1
    67    28    63    1
    68    31    64    1
    69    32    65    1
    70    35    66    1
    71    38    67    1
    72    38    68    1
    73    39    69    1
    74    39    70    1
    75    40    71    1
    76    40    72    1
    77    41    73    1
    78    41    74    1
    79    42    75    1
    80    42    76    1
    81    45    77    1
    82    46    78    1
