@<TRIPOS>MOLECULE
*****
 56 61 0 0 0
SMALL
GASTEIGER

@<TRIPOS>ATOM
      1 C           3.5685   -3.8805   -0.7306 C.3     1  UNL1       -0.0209
      2 C           3.5282   -2.5330   -0.0889 C.ar    1  UNL1        0.0569
      3 C           4.5860   -1.6670   -0.3473 C.ar    1  UNL1        0.0329
      4 N           4.6502   -0.4465    0.1696 N.ar    1  UNL1       -0.2948
      5 C           5.5279    0.5501    0.0846 C.ar    1  UNL1        0.0762
      6 C           6.7857    0.6519   -0.6417 C.ar    1  UNL1        0.0375
      7 C           7.4312   -0.2406   -1.4499 C.ar    1  UNL1        0.0583
      8 N           8.5758    0.3753   -1.8662 N.ar    1  UNL1       -0.1817
      9 N           8.6493    1.5665   -1.3605 N.ar    1  UNL1       -0.2841
     10 C           7.5973    1.8016   -0.6074 C.ar    1  UNL1        0.0315
     11 C           4.9891    1.5624    0.8802 C.ar    1  UNL1        0.0545
     12 N           3.8327    1.1943    1.4247 N.ar    1  UNL1       -0.2323
     13 C           3.6171   -0.0632    0.9821 C.ar    1  UNL1        0.1788
     14 C           2.5522   -0.8855    1.2648 C.ar    1  UNL1        0.1666
     15 N           1.4841   -0.4438    2.1155 N.pl3   1  UNL1       -0.2965
     16 C           0.2950    0.1344    1.5434 C.ar    1  UNL1        0.0339
     17 C           0.1630    0.1754    0.1900 C.ar    1  UNL1       -0.0397
     18 C          -0.9705    0.7245   -0.3517 C.ar    1  UNL1       -0.0465
     19 C          -1.9916    1.2421    0.4398 C.ar    1  UNL1        0.0553
     20 C          -3.1876    1.8241   -0.1490 C.2     1  UNL1        0.2481
     21 O          -3.1508    3.0663   -0.4134 O.2     1  UNL1       -0.2699
     22 N          -4.3561    1.0774   -0.4298 N.am    1  UNL1       -0.2945
     23 C          -5.4882    1.7552   -1.0228 C.3     1  UNL1        0.0276
     24 C          -6.0517    0.8057   -2.0771 C.3     1  UNL1        0.0123
     25 N          -6.5780   -0.3983   -1.4576 N.3     1  UNL1       -0.3076
     26 C          -5.9903   -0.6298   -0.1620 C.3     1  UNL1        0.0351
     27 C          -6.5992   -1.5014    0.8529 C.3     1  UNL1       -0.0315
     28 C          -6.8056   -0.0372    0.9817 C.3     1  UNL1       -0.0315
     29 C          -4.5012   -0.3364   -0.1558 C.3     1  UNL1        0.0333
     30 C          -1.8060    1.1752    1.7997 C.ar    1  UNL1        0.0548
     31 CL         -3.0562    1.8106    2.8376 Cl      1  UNL1       -0.0827
     32 C          -0.6774    0.6290    2.3844 C.ar    1  UNL1       -0.0214
     33 N           2.5535   -2.1079    0.7070 N.ar    1  UNL1       -0.2320
     34 H           3.7286   -3.7728   -1.8421 H       1  UNL1        0.0293
     35 H           4.4718   -4.3941   -0.3454 H       1  UNL1        0.0293
     36 H           2.6327   -4.4146   -0.5663 H       1  UNL1        0.0293
     37 H           5.3752   -1.9961   -0.9846 H       1  UNL1        0.0831
     38 H           7.1642   -1.2226   -1.7409 H       1  UNL1        0.0854
     39 H           9.4169    2.2648   -1.5075 H       1  UNL1        0.1882
     40 H           7.3551    2.6767   -0.0545 H       1  UNL1        0.0830
     41 H           5.4694    2.5248    1.0247 H       1  UNL1        0.0852
     42 H           1.6037   -0.5567    3.1353 H       1  UNL1        0.1537
     43 H           0.9355   -0.2166   -0.4395 H       1  UNL1        0.0636
     44 H          -1.0955    0.7666   -1.4171 H       1  UNL1        0.0626
     45 H          -5.1496    2.6731   -1.5682 H       1  UNL1        0.0477
     46 H          -6.2346    2.0327   -0.2796 H       1  UNL1        0.0477
     47 H          -5.3190    0.5948   -2.8533 H       1  UNL1        0.0440
     48 H          -6.9049    1.3341   -2.5480 H       1  UNL1        0.0440
     49 H          -6.5341   -1.2324   -2.0847 H       1  UNL1        0.1226
     50 H          -5.9001   -1.9411    1.6163 H       1  UNL1        0.0284
     51 H          -7.4939   -2.1047    0.6046 H       1  UNL1        0.0284
     52 H          -7.8176    0.3607    0.7626 H       1  UNL1        0.0284
     53 H          -6.2334    0.5850    1.6854 H       1  UNL1        0.0284
     54 H          -4.1652   -0.5221    0.9065 H       1  UNL1        0.0483
     55 H          -3.9457   -0.9690   -0.8535 H       1  UNL1        0.0483
     56 H          -0.5362    0.5786    3.4595 H       1  UNL1        0.0651
@<TRIPOS>BOND
     1     1     2    1
     2     2     3   ar
     3     3     4   ar
     4     4     5   ar
     5     5     6    1
     6     6     7   ar
     7     7     8   ar
     8     8     9   ar
     9     9    10   ar
    10     5    11   ar
    11    11    12   ar
    12    12    13   ar
    13    13    14   ar
    14    14    15    1
    15    15    16    1
    16    16    17   ar
    17    17    18   ar
    18    18    19   ar
    19    19    20    1
    20    20    21    2
    21    20    22   am
    22    22    23    1
    23    23    24    1
    24    24    25    1
    25    25    26    1
    26    26    27    1
    27    27    28    1
    28    26    29    1
    29    19    30   ar
    30    30    31    1
    31    30    32   ar
    32    14    33   ar
    33    33     2   ar
    34    13     4   ar
    35    32    16   ar
    36    10     6   ar
    37    29    22    1
    38    28    26    1
    39     1    34    1
    40     1    35    1
    41     1    36    1
    42     3    37    1
    43     7    38    1
    44     9    39    1
    45    10    40    1
    46    11    41    1
    47    15    42    1
    48    17    43    1
    49    18    44    1
    50    23    45    1
    51    23    46    1
    52    24    47    1
    53    24    48    1
    54    25    49    1
    55    27    50    1
    56    27    51    1
    57    28    52    1
    58    28    53    1
    59    29    54    1
    60    29    55    1
    61    32    56    1
