
     RDKit          3D

 37 39  0  0  0  0  0  0  0  0999 V2000
   -1.6352    1.0445   -1.4847 C   0  0  0  0  0  0  0  0  0  0  0  0
   -2.1284    0.4508   -0.2441 C   0  0  2  0  0  0  0  0  0  0  0  0
   -2.7829   -0.7815   -0.4812 F   0  0  0  0  0  0  0  0  0  0  0  0
   -3.1633    1.2752    0.5158 C   0  0  0  0  0  0  0  0  0  0  0  0
   -3.3680    0.3993    1.7491 C   0  0  0  0  0  0  0  0  0  0  0  0
   -2.2179   -0.5973    1.7781 C   0  0  0  0  0  0  0  0  0  0  0  0
   -1.1740    0.1685    0.8762 C   0  0  1  0  0  0  0  0  0  0  0  0
   -0.0734   -0.6654    0.5969 N   0  0  0  0  0  0  0  0  0  0  0  0
    1.1485   -0.4886   -0.0433 C   0  0  0  0  0  0  0  0  0  0  0  0
    1.9665   -1.5665   -0.3545 C   0  0  0  0  0  0  0  0  0  0  0  0
    1.5282   -2.9332   -0.2086 C   0  0  0  0  0  0  0  0  0  0  0  0
    2.5200   -3.9734   -0.4287 N   0  0  0  0  0  0  0  0  0  0  0  0
    0.3855   -3.3369    0.0885 O   0  0  0  0  0  0  0  0  0  0  0  0
    3.2338   -1.3151   -0.8925 C   0  0  0  0  0  0  0  0  0  0  0  0
    3.7046   -0.0970   -1.1274 N   0  0  0  0  0  0  0  0  0  0  0  0
    2.9094    0.9290   -0.8264 N   0  0  0  0  0  0  0  0  0  0  0  0
    3.1484    2.2597   -0.9578 C   0  0  0  0  0  0  0  0  0  0  0  0
    2.0942    2.9851   -0.5313 C   0  0  0  0  0  0  0  0  0  0  0  0
    1.1494    2.0672   -0.1130 C   0  0  0  0  0  0  0  0  0  0  0  0
    1.6779    0.7946   -0.3060 C   0  0  0  0  0  0  0  0  0  0  0  0
   -0.7397    0.4741   -1.8318 H   0  0  0  0  0  0  0  0  0  0  0  0
   -2.3793    0.8838   -2.3242 H   0  0  0  0  0  0  0  0  0  0  0  0
   -1.4376    2.1224   -1.4691 H   0  0  0  0  0  0  0  0  0  0  0  0
   -2.7016    2.2380    0.8163 H   0  0  0  0  0  0  0  0  0  0  0  0
   -4.0851    1.4276   -0.0531 H   0  0  0  0  0  0  0  0  0  0  0  0
   -4.3490   -0.1193    1.6578 H   0  0  0  0  0  0  0  0  0  0  0  0
   -3.3787    1.0089    2.6627 H   0  0  0  0  0  0  0  0  0  0  0  0
   -1.8104   -0.7494    2.7738 H   0  0  0  0  0  0  0  0  0  0  0  0
   -2.5555   -1.4991    1.2459 H   0  0  0  0  0  0  0  0  0  0  0  0
   -0.9732    1.0419    1.5520 H   0  0  0  0  0  0  0  0  0  0  0  0
   -0.1998   -1.6654    1.0116 H   0  0  0  0  0  0  0  0  0  0  0  0
    2.7568   -4.2322   -1.3921 H   0  0  0  0  0  0  0  0  0  0  0  0
    2.9312   -4.3938    0.4119 H   0  0  0  0  0  0  0  0  0  0  0  0
    3.8362   -2.2146   -1.1172 H   0  0  0  0  0  0  0  0  0  0  0  0
    4.0650    2.6778   -1.3530 H   0  0  0  0  0  0  0  0  0  0  0  0
    1.9255    4.0598   -0.4850 H   0  0  0  0  0  0  0  0  0  0  0  0
    0.1718    2.3207    0.2884 H   0  0  0  0  0  0  0  0  0  0  0  0
  1  2  1  0
  2  3  1  6
  2  4  1  0
  4  5  1  0
  5  6  1  0
  6  7  1  0
  7  8  1  0
  8  9  1  0
  9 10  2  0
 10 11  1  0
 11 12  1  0
 11 13  2  0
 10 14  1  0
 14 15  2  0
 15 16  1  0
 16 17  1  0
 17 18  2  0
 18 19  1  0
 19 20  2  0
  7  2  1  0
 20  9  1  0
 20 16  1  0
  1 21  1  0
  1 22  1  0
  1 23  1  0
  4 24  1  0
  4 25  1  0
  5 26  1  0
  5 27  1  0
  6 28  1  0
  6 29  1  0
  7 30  1  1
  8 31  1  0
 12 32  1  0
 12 33  1  0
 14 34  1  0
 17 35  1  0
 18 36  1  0
 19 37  1  0
M  END
$$$$
