@<TRIPOS>MOLECULE
*****
 37 39 0 0 0
SMALL
GASTEIGER

@<TRIPOS>ATOM
      1 C          -1.6352    1.0445   -1.4847 C.3     1  UNL1       -0.0292
      2 C          -2.1284    0.4508   -0.2441 C.3     1  UNL1        0.1269
      3 F          -2.7829   -0.7815   -0.4812 F       1  UNL1       -0.2403
      4 C          -3.1633    1.2752    0.5158 C.3     1  UNL1       -0.0173
      5 C          -3.3680    0.3993    1.7491 C.3     1  UNL1       -0.0484
      6 C          -2.2179   -0.5973    1.7781 C.3     1  UNL1       -0.0315
      7 C          -1.1740    0.1685    0.8762 C.3     1  UNL1        0.0543
      8 N          -0.0734   -0.6654    0.5969 N.pl3   1  UNL1       -0.3357
      9 C           1.1485   -0.4886   -0.0433 C.ar    1  UNL1        0.0669
     10 C           1.9665   -1.5665   -0.3545 C.ar    1  UNL1        0.0790
     11 C           1.5282   -2.9332   -0.2086 C.2     1  UNL1        0.2449
     12 N           2.5200   -3.9734   -0.4287 N.am    1  UNL1       -0.3253
     13 O           0.3855   -3.3369    0.0885 O.2     1  UNL1       -0.2703
     14 C           3.2338   -1.3151   -0.8925 C.ar    1  UNL1        0.0623
     15 N           3.7046   -0.0970   -1.1274 N.ar    1  UNL1       -0.1740
     16 N           2.9094    0.9290   -0.8264 N.ar    1  UNL1       -0.2381
     17 C           3.1484    2.2597   -0.9578 C.ar    1  UNL1        0.0299
     18 C           2.0942    2.9851   -0.5313 C.ar    1  UNL1       -0.0415
     19 C           1.1494    2.0672   -0.1130 C.ar    1  UNL1       -0.0330
     20 C           1.6779    0.7946   -0.3060 C.ar    1  UNL1        0.0869
     21 H          -0.7397    0.4741   -1.8318 H       1  UNL1        0.0261
     22 H          -2.3793    0.8838   -2.3242 H       1  UNL1        0.0261
     23 H          -1.4376    2.1224   -1.4691 H       1  UNL1        0.0261
     24 H          -2.7016    2.2380    0.8163 H       1  UNL1        0.0296
     25 H          -4.0851    1.4276   -0.0531 H       1  UNL1        0.0296
     26 H          -4.3490   -0.1193    1.6578 H       1  UNL1        0.0267
     27 H          -3.3787    1.0089    2.6627 H       1  UNL1        0.0267
     28 H          -1.8104   -0.7494    2.7738 H       1  UNL1        0.0284
     29 H          -2.5555   -1.4991    1.2459 H       1  UNL1        0.0284
     30 H          -0.9732    1.0419    1.5520 H       1  UNL1        0.0528
     31 H          -0.1998   -1.6654    1.0116 H       1  UNL1        0.1465
     32 H           2.7568   -4.2322   -1.3921 H       1  UNL1        0.1453
     33 H           2.9312   -4.3938    0.4119 H       1  UNL1        0.1453
     34 H           3.8362   -2.2146   -1.1172 H       1  UNL1        0.0856
     35 H           4.0650    2.6778   -1.3530 H       1  UNL1        0.0830
     36 H           1.9255    4.0598   -0.4850 H       1  UNL1        0.0633
     37 H           0.1718    2.3207    0.2884 H       1  UNL1        0.0640
@<TRIPOS>BOND
     1     1     2    1
     2     2     3    1
     3     2     4    1
     4     4     5    1
     5     5     6    1
     6     6     7    1
     7     7     8    1
     8     8     9    1
     9     9    10   ar
    10    10    11    1
    11    11    12   am
    12    11    13    2
    13    10    14   ar
    14    14    15   ar
    15    15    16   ar
    16    16    17   ar
    17    17    18   ar
    18    18    19   ar
    19    19    20   ar
    20     7     2    1
    21    20     9   ar
    22    20    16   ar
    23     1    21    1
    24     1    22    1
    25     1    23    1
    26     4    24    1
    27     4    25    1
    28     5    26    1
    29     5    27    1
    30     6    28    1
    31     6    29    1
    32     7    30    1
    33     8    31    1
    34    12    32    1
    35    12    33    1
    36    14    34    1
    37    17    35    1
    38    18    36    1
    39    19    37    1
