
     RDKit          3D

 27 29  0  0  0  0  0  0  0  0999 V2000
   -2.9955    2.1941   -1.2023 O   0  0  0  0  0  0  0  0  0  0  0  0
   -1.7716    2.0555   -1.0515 C   0  0  0  0  0  0  0  0  0  0  0  0
   -1.0396    3.1963   -1.5013 O   0  0  0  0  0  0  0  0  0  0  0  0
   -1.0408    0.9346   -0.5034 C   0  0  0  0  0  0  0  0  0  0  0  0
    0.3571    0.9979   -0.4297 C   0  0  0  0  0  0  0  0  0  0  0  0
    1.0850   -0.0526    0.0868 C   0  0  0  0  0  0  0  0  0  0  0  0
    2.5322   -0.0199    0.1776 C   0  0  0  0  0  0  0  0  0  0  0  0
    3.3396    1.0146   -0.2202 C   0  0  0  0  0  0  0  0  0  0  0  0
    4.6531    0.6381    0.0415 C   0  0  0  0  0  0  0  0  0  0  0  0
    4.5561   -0.6193    0.5892 C   0  0  0  0  0  0  0  0  0  0  0  0
    3.2910   -0.9563    0.6460 O   0  0  0  0  0  0  0  0  0  0  0  0
    0.4404   -1.1323    0.5165 N   0  0  0  0  0  0  0  0  0  0  0  0
   -0.8742   -1.2569    0.4759 C   0  0  0  0  0  0  0  0  0  0  0  0
   -1.4913   -2.4029    0.9369 C   0  0  0  0  0  0  0  0  0  0  0  0
   -2.8574   -2.5491    0.9021 C   0  0  0  0  0  0  0  0  0  0  0  0
   -3.6195   -1.5214    0.3932 C   0  0  0  0  0  0  0  0  0  0  0  0
   -5.5284   -1.6373    0.3057 Br  0  0  0  0  0  0  0  0  0  0  0  0
   -3.0143   -0.3487   -0.0804 C   0  0  0  0  0  0  0  0  0  0  0  0
   -1.6419   -0.2015   -0.0457 C   0  0  0  0  0  0  0  0  0  0  0  0
   -1.4735    4.1042   -1.5220 H   0  0  0  0  0  0  0  0  0  0  0  0
    0.8935    1.8682   -0.7748 H   0  0  0  0  0  0  0  0  0  0  0  0
    3.0828    1.9635   -0.6575 H   0  0  0  0  0  0  0  0  0  0  0  0
    5.5559    1.1994   -0.1406 H   0  0  0  0  0  0  0  0  0  0  0  0
    5.3559   -1.2506    0.9259 H   0  0  0  0  0  0  0  0  0  0  0  0
   -0.8307   -3.1816    1.3285 H   0  0  0  0  0  0  0  0  0  0  0  0
   -3.3108   -3.4571    1.2699 H   0  0  0  0  0  0  0  0  0  0  0  0
   -3.6534    0.4213   -0.4666 H   0  0  0  0  0  0  0  0  0  0  0  0
  1  2  2  0
  2  3  1  0
  2  4  1  0
  4  5  2  0
  5  6  1  0
  6  7  1  0
  7  8  2  0
  8  9  1  0
  9 10  2  0
 10 11  1  0
  6 12  2  0
 12 13  1  0
 13 14  2  0
 14 15  1  0
 15 16  2  0
 16 17  1  0
 16 18  1  0
 18 19  2  0
 19  4  1  0
 11  7  1  0
 19 13  1  0
  3 20  1  0
  5 21  1  0
  8 22  1  0
  9 23  1  0
 10 24  1  0
 14 25  1  0
 15 26  1  0
 18 27  1  0
M  END
$$$$
