@<TRIPOS>MOLECULE
*****
 27 29 0 0 0
SMALL
GASTEIGER

@<TRIPOS>ATOM
      1 O          -2.9955    2.1941   -1.2023 O.2     1  UNL1       -0.2451
      2 C          -1.7716    2.0555   -1.0515 C.2     1  UNL1        0.3375
      3 O          -1.0396    3.1963   -1.5013 O.3     1  UNL1       -0.4771
      4 C          -1.0408    0.9346   -0.5034 C.ar    1  UNL1        0.0701
      5 C           0.3571    0.9979   -0.4297 C.ar    1  UNL1       -0.0181
      6 C           1.0850   -0.0526    0.0868 C.ar    1  UNL1        0.1074
      7 C           2.5322   -0.0199    0.1776 C.ar    1  UNL1        0.1529
      8 C           3.3396    1.0146   -0.2202 C.ar    1  UNL1       -0.0144
      9 C           4.6531    0.6381    0.0415 C.ar    1  UNL1       -0.0233
     10 C           4.5561   -0.6193    0.5892 C.ar    1  UNL1        0.0926
     11 O           3.2910   -0.9563    0.6460 O.2     1  UNL1       -0.4614
     12 N           0.4404   -1.1323    0.5165 N.ar    1  UNL1       -0.2436
     13 C          -0.8742   -1.2569    0.4759 C.ar    1  UNL1        0.0726
     14 C          -1.4913   -2.4029    0.9369 C.ar    1  UNL1       -0.0347
     15 C          -2.8574   -2.5491    0.9021 C.ar    1  UNL1       -0.0457
     16 C          -3.6195   -1.5214    0.3932 C.ar    1  UNL1        0.0186
     17 BR         -5.5284   -1.6373    0.3057 Br      1  UNL1       -0.0503
     18 C          -3.0143   -0.3487   -0.0804 C.ar    1  UNL1       -0.0378
     19 C          -1.6419   -0.2015   -0.0457 C.ar    1  UNL1        0.0154
     20 H          -1.4735    4.1042   -1.5220 H       1  UNL1        0.2954
     21 H           0.8935    1.8682   -0.7748 H       1  UNL1        0.0648
     22 H           3.0828    1.9635   -0.6575 H       1  UNL1        0.0656
     23 H           5.5559    1.1994   -0.1406 H       1  UNL1        0.0649
     24 H           5.3559   -1.2506    0.9259 H       1  UNL1        0.1029
     25 H          -0.8307   -3.1816    1.3285 H       1  UNL1        0.0639
     26 H          -3.3108   -3.4571    1.2699 H       1  UNL1        0.0629
     27 H          -3.6534    0.4213   -0.4666 H       1  UNL1        0.0635
@<TRIPOS>BOND
     1     1     2    2
     2     2     3    1
     3     2     4    1
     4     4     5   ar
     5     5     6   ar
     6     6     7    1
     7     7     8   ar
     8     8     9   ar
     9     9    10   ar
    10    10    11   ar
    11     6    12   ar
    12    12    13   ar
    13    13    14   ar
    14    14    15   ar
    15    15    16   ar
    16    16    17    1
    17    16    18   ar
    18    18    19   ar
    19    19     4   ar
    20    11     7   ar
    21    19    13   ar
    22     3    20    1
    23     5    21    1
    24     8    22    1
    25     9    23    1
    26    10    24    1
    27    14    25    1
    28    15    26    1
    29    18    27    1
