@<TRIPOS>MOLECULE
*****
 32 34 0 0 0
SMALL
GASTEIGER

@<TRIPOS>ATOM
      1 O           2.2135   -0.8991    2.7260 O.2     1  UNL1       -0.2917
      2 C           1.5401   -0.4725    1.7529 C.2     1  UNL1        0.1740
      3 C           0.0590   -0.3398    1.7778 C.3     1  UNL1        0.0520
      4 C          -0.4255   -0.5050    0.3647 C.3     1  UNL1        0.1322
      5 C          -1.8826   -0.3083    0.2304 C.ar    1  UNL1       -0.0067
      6 C          -2.7440   -0.2542    1.3028 C.ar    1  UNL1       -0.0516
      7 C          -4.1114   -0.0660    1.1111 C.ar    1  UNL1       -0.0198
      8 C          -4.6511    0.0723   -0.1496 C.ar    1  UNL1        0.1169
      9 O          -6.0300    0.2608   -0.3182 O.3     1  UNL1       -0.5068
     10 C          -3.7907    0.0185   -1.2229 C.ar    1  UNL1       -0.0198
     11 C          -2.4210   -0.1700   -1.0313 C.ar    1  UNL1       -0.0516
     12 O           0.2201    0.4186   -0.4916 O.3     1  UNL1       -0.4828
     13 C           1.6023    0.3542   -0.5816 C.ar    1  UNL1        0.1389
     14 C           2.2583    0.7206   -1.7392 C.ar    1  UNL1        0.0225
     15 C           3.6327    0.6397   -1.7810 C.ar    1  UNL1        0.1238
     16 O           4.2764    1.0059   -2.9355 O.3     1  UNL1       -0.5065
     17 C           4.3504    0.1968   -0.6776 C.ar    1  UNL1        0.0222
     18 C           3.6475   -0.1573    0.4545 C.ar    1  UNL1        0.1343
     19 O           4.3658   -0.5995    1.5557 O.3     1  UNL1       -0.5058
     20 C           2.2787   -0.0957    0.5496 C.ar    1  UNL1        0.1007
     21 H          -0.3699   -1.1502    2.4074 H       1  UNL1        0.0385
     22 H          -0.1593    0.6655    2.1900 H       1  UNL1        0.0385
     23 H          -0.1901   -1.5435    0.0523 H       1  UNL1        0.0789
     24 H          -2.3513   -0.3598    2.3112 H       1  UNL1        0.0623
     25 H          -4.8063   -0.0211    1.9525 H       1  UNL1        0.0654
     26 H          -6.3625    1.2357   -0.3646 H       1  UNL1        0.2921
     27 H          -4.1887    0.1243   -2.2232 H       1  UNL1        0.0654
     28 H          -1.7992   -0.2031   -1.9158 H       1  UNL1        0.0623
     29 H           1.6937    1.0641   -2.5933 H       1  UNL1        0.0691
     30 H           3.9212    1.7644   -3.5115 H       1  UNL1        0.2921
     31 H           5.4285    0.1208   -0.6753 H       1  UNL1        0.0691
     32 H           4.7953   -1.5172    1.4733 H       1  UNL1        0.2922
@<TRIPOS>BOND
     1     1     2    2
     2     2     3    1
     3     3     4    1
     4     4     5    1
     5     5     6   ar
     6     6     7   ar
     7     7     8   ar
     8     8     9    1
     9     8    10   ar
    10    10    11   ar
    11     4    12    1
    12    12    13    1
    13    13    14   ar
    14    14    15   ar
    15    15    16    1
    16    15    17   ar
    17    17    18   ar
    18    18    19    1
    19    18    20   ar
    20    20     2    1
    21    11     5   ar
    22    20    13   ar
    23     3    21    1
    24     3    22    1
    25     4    23    1
    26     6    24    1
    27     7    25    1
    28     9    26    1
    29    10    27    1
    30    11    28    1
    31    14    29    1
    32    16    30    1
    33    17    31    1
    34    19    32    1
