@<TRIPOS>MOLECULE
*****
 54 58 0 0 0
SMALL
GASTEIGER

@<TRIPOS>ATOM
      1 C           6.5714    0.7697    0.8710 C.3     1  UNL1       -0.0172
      2 C           5.2183    0.3052    1.4690 C.3     1  UNL1        0.1931
      3 O           4.2072    0.4151    0.6051 O.3     1  UNL1       -0.4765
      4 C           3.1590    1.2475    0.4513 C.ar    1  UNL1        0.1402
      5 C           2.2400    1.0129   -0.5989 C.ar    1  UNL1       -0.0136
      6 C           1.1486    1.7737   -0.8623 C.ar    1  UNL1       -0.0241
      7 C           0.2560    1.4395   -1.9780 C.3     1  UNL1        0.0533
      8 N          -0.8656    0.6210   -1.6294 N.ar    1  UNL1       -0.2873
      9 C          -2.0654    1.0644   -1.2253 C.ar    1  UNL1        0.3362
     10 O          -2.3837    2.2786   -1.0914 O.2     1  UNL1       -0.2459
     11 N          -2.8653   -0.0020   -0.9896 N.ar    1  UNL1       -0.2413
     12 C          -4.2146    0.0438   -0.5490 C.ar    1  UNL1        0.1922
     13 N          -5.3387   -0.2819   -1.2001 N.ar    1  UNL1       -0.0587
     14 O          -6.3698   -0.0921   -0.4430 O.2     1  UNL1       -0.3526
     15 C          -6.0021    0.3655    0.7417 C.ar    1  UNL1        0.1695
     16 C          -6.6740    0.7250    1.8879 C.ar    1  UNL1       -0.0146
     17 C          -5.9879    1.1817    3.0005 C.ar    1  UNL1       -0.0398
     18 C          -4.6012    1.2851    2.9762 C.ar    1  UNL1        0.0419
     19 CL         -3.7325    1.8691    4.4037 Cl      1  UNL1       -0.0835
     20 C          -3.9464    0.9276    1.8390 C.ar    1  UNL1       -0.0290
     21 C          -4.6132    0.4627    0.7009 C.ar    1  UNL1        0.0673
     22 C          -2.1966   -1.1409   -1.2367 C.ar    1  UNL1        0.0766
     23 C          -2.4791   -2.4904   -1.1782 C.ar    1  UNL1       -0.0351
     24 C          -1.5270   -3.4257   -1.5142 C.ar    1  UNL1       -0.0480
     25 C          -0.2657   -3.0513   -1.9186 C.ar    1  UNL1        0.0569
     26 C           0.7525   -4.0743   -2.2789 C.3     1  UNL1        0.4175
     27 F           1.9197   -3.5028   -2.6925 F       1  UNL1       -0.1659
     28 F           0.2306   -4.9305   -3.2394 F       1  UNL1       -0.1659
     29 F           0.9290   -4.8591   -1.1371 F       1  UNL1       -0.1659
     30 C          -0.0073   -1.6990   -1.9690 C.ar    1  UNL1       -0.0244
     31 C          -0.9216   -0.7240   -1.6441 C.ar    1  UNL1        0.0712
     32 C           0.8856    2.8546   -0.0759 C.ar    1  UNL1       -0.0553
     33 C           1.7305    3.1379    0.9535 C.ar    1  UNL1       -0.0395
     34 C           2.8594    2.3429    1.2181 C.ar    1  UNL1        0.0826
     35 CL          3.9020    2.8122    2.5705 Cl      1  UNL1       -0.0798
     36 C           5.5155   -1.1158    1.8935 C.2     1  UNL1        0.3456
     37 O           6.4455   -1.2799    2.7077 O.2     1  UNL1       -0.2468
     38 O           4.8060   -2.1837    1.4175 O.3     1  UNL1       -0.4781
     39 H           7.3368    0.4297    1.5970 H       1  UNL1        0.0271
     40 H           6.7337    0.3333   -0.1167 H       1  UNL1        0.0271
     41 H           6.5669    1.8678    0.8657 H       1  UNL1        0.0271
     42 H           5.1327    0.8648    2.3952 H       1  UNL1        0.0849
     43 H           2.4808    0.1344   -1.2166 H       1  UNL1        0.0658
     44 H          -0.1525    2.4157   -2.3706 H       1  UNL1        0.0543
     45 H           0.8257    1.0281   -2.8610 H       1  UNL1        0.0543
     46 H          -7.7557    0.6320    1.8724 H       1  UNL1        0.0656
     47 H          -6.5353    1.4567    3.8852 H       1  UNL1        0.0633
     48 H          -2.8679    1.0044    1.8093 H       1  UNL1        0.0640
     49 H          -3.4864   -2.7627   -0.8549 H       1  UNL1        0.0639
     50 H          -1.8176   -4.4674   -1.4447 H       1  UNL1        0.0624
     51 H           0.9651   -1.3730   -2.2813 H       1  UNL1        0.0644
     52 H           0.0278    3.4638   -0.2724 H       1  UNL1        0.0621
     53 H           1.5746    3.9968    1.6269 H       1  UNL1        0.0633
     54 H           5.2524   -3.1068    1.3027 H       1  UNL1        0.2952
@<TRIPOS>BOND
     1     1     2    1
     2     2     3    1
     3     3     4    1
     4     4     5   ar
     5     5     6   ar
     6     6     7    1
     7     7     8    1
     8     8     9   ar
     9     9    10    2
    10     9    11   ar
    11    11    12    1
    12    12    13   ar
    13    13    14   ar
    14    14    15   ar
    15    15    16   ar
    16    16    17   ar
    17    17    18   ar
    18    18    19    1
    19    18    20   ar
    20    20    21   ar
    21    11    22   ar
    22    22    23   ar
    23    23    24   ar
    24    24    25   ar
    25    25    26    1
    26    26    27    1
    27    26    28    1
    28    26    29    1
    29    25    30   ar
    30    30    31   ar
    31     6    32   ar
    32    32    33   ar
    33    33    34   ar
    34    34    35    1
    35     2    36    1
    36    36    37    2
    37    36    38    1
    38    34     4   ar
    39    31     8   ar
    40    21    12   ar
    41    31    22   ar
    42    21    15   ar
    43     1    39    1
    44     1    40    1
    45     1    41    1
    46     2    42    1
    47     5    43    1
    48     7    44    1
    49     7    45    1
    50    16    46    1
    51    17    47    1
    52    20    48    1
    53    23    49    1
    54    24    50    1
    55    30    51    1
    56    32    52    1
    57    33    53    1
    58    38    54    1
