
     RDKit          3D

 44 48  0  0  0  0  0  0  0  0999 V2000
   -3.9737    2.3870    0.6872 C   0  0  0  0  0  0  0  0  0  0  0  0
   -4.7857    1.2900    0.1142 C   0  0  0  0  0  0  0  0  0  0  0  0
   -6.1559    1.3929    0.0045 C   0  0  0  0  0  0  0  0  0  0  0  0
   -6.9503    0.3964   -0.5167 C   0  0  0  0  0  0  0  0  0  0  0  0
   -6.3244   -0.7482   -0.9421 C   0  0  0  0  0  0  0  0  0  0  0  0
   -4.9677   -0.9045   -0.8571 C   0  0  0  0  0  0  0  0  0  0  0  0
   -4.1879    0.1307   -0.3210 C   0  0  0  0  0  0  0  0  0  0  0  0
   -2.7330   -0.0161   -0.2272 C   0  0  0  0  0  0  0  0  0  0  0  0
   -1.8351    0.9487   -0.6304 C   0  0  0  0  0  0  0  0  0  0  0  0
   -0.4688    0.7803   -0.5261 C   0  0  0  0  0  0  0  0  0  0  0  0
    0.0250   -0.4069    0.0055 C   0  0  0  0  0  0  0  0  0  0  0  0
   -0.8285   -1.3820    0.4141 C   0  0  0  0  0  0  0  0  0  0  0  0
   -2.1970   -1.1771    0.2938 C   0  0  0  0  0  0  0  0  0  0  0  0
   -0.3512   -2.5310    0.9285 N   0  0  0  0  0  0  0  0  0  0  0  0
    0.9715   -2.7440    1.0514 C   0  0  0  0  0  0  0  0  0  0  0  0
    1.4545   -3.8011    1.5256 O   0  0  0  0  0  0  0  0  0  0  0  0
    1.8644   -1.7764    0.6469 C   0  0  0  0  0  0  0  0  0  0  0  0
    3.2192   -1.6555    0.6241 N   0  0  0  0  0  0  0  0  0  0  0  0
    3.5827   -0.4697    0.1122 C   0  0  0  0  0  0  0  0  0  0  0  0
    4.9403    0.0288   -0.0761 C   0  0  0  0  0  0  0  0  0  0  0  0
    6.0801   -0.6598    0.2512 C   0  0  0  0  0  0  0  0  0  0  0  0
    5.9844   -1.8873    0.7874 F   0  0  0  0  0  0  0  0  0  0  0  0
    7.3507   -0.1417    0.0524 C   0  0  0  0  0  0  0  0  0  0  0  0
    7.5055    1.1159   -0.4957 C   0  0  0  0  0  0  0  0  0  0  0  0
    6.3748    1.8269   -0.8327 C   0  0  0  0  0  0  0  0  0  0  0  0
    5.1190    1.2932   -0.6266 C   0  0  0  0  0  0  0  0  0  0  0  0
    3.7031    2.2185   -1.0639 Cl  0  0  0  0  0  0  0  0  0  0  0  0
    2.4292    0.1912   -0.2033 N   0  0  0  0  0  0  0  0  0  0  0  0
    1.4025   -0.5905    0.1167 C   0  0  0  0  0  0  0  0  0  0  0  0
   -3.8556    3.2429   -0.0094 H   0  0  0  0  0  0  0  0  0  0  0  0
   -3.0612    2.0569    1.1813 H   0  0  0  0  0  0  0  0  0  0  0  0
   -4.6142    2.8097    1.5215 H   0  0  0  0  0  0  0  0  0  0  0  0
   -6.6113    2.3060    0.3488 H   0  0  0  0  0  0  0  0  0  0  0  0
   -8.0242    0.4695   -0.6059 H   0  0  0  0  0  0  0  0  0  0  0  0
   -6.9007   -1.5826   -1.3684 H   0  0  0  0  0  0  0  0  0  0  0  0
   -4.4430   -1.8041   -1.1878 H   0  0  0  0  0  0  0  0  0  0  0  0
   -2.1962    1.8766   -1.0477 H   0  0  0  0  0  0  0  0  0  0  0  0
    0.2452    1.5180   -0.8337 H   0  0  0  0  0  0  0  0  0  0  0  0
   -2.8374   -1.9712    0.6277 H   0  0  0  0  0  0  0  0  0  0  0  0
   -0.9806   -3.2898    1.2472 H   0  0  0  0  0  0  0  0  0  0  0  0
    3.8106   -2.4296    0.9767 H   0  0  0  0  0  0  0  0  0  0  0  0
    8.2446   -0.6791    0.3079 H   0  0  0  0  0  0  0  0  0  0  0  0
    8.4989    1.5400   -0.6595 H   0  0  0  0  0  0  0  0  0  0  0  0
    6.4773    2.8280   -1.2694 H   0  0  0  0  0  0  0  0  0  0  0  0
  1  2  1  0
  2  3  2  0
  3  4  1  0
  4  5  2  0
  5  6  1  0
  6  7  2  0
  7  8  1  0
  8  9  2  0
  9 10  1  0
 10 11  2  0
 11 12  1  0
 12 13  2  0
 12 14  1  0
 14 15  1  0
 15 16  2  0
 15 17  1  0
 17 18  1  0
 18 19  1  0
 19 20  1  0
 20 21  2  0
 21 22  1  0
 21 23  1  0
 23 24  2  0
 24 25  1  0
 25 26  2  0
 26 27  1  0
 19 28  2  0
 28 29  1  0
  7  2  1  0
 13  8  1  0
 29 17  2  0
 29 11  1  0
 26 20  1  0
  1 30  1  0
  1 31  1  0
  1 32  1  0
  3 33  1  0
  4 34  1  0
  5 35  1  0
  6 36  1  0
  9 37  1  0
 10 38  1  0
 13 39  1  0
 14 40  1  0
 18 41  1  0
 23 42  1  0
 24 43  1  0
 25 44  1  0
M  END
$$$$
