@<TRIPOS>MOLECULE
*****
 44 48 0 0 0
SMALL
GASTEIGER

@<TRIPOS>ATOM
      1 C          -3.9737    2.3870    0.6872 C.3     1  UNL1       -0.0391
      2 C          -4.7857    1.2900    0.1142 C.ar    1  UNL1       -0.0427
      3 C          -6.1559    1.3929    0.0045 C.ar    1  UNL1       -0.0583
      4 C          -6.9503    0.3964   -0.5167 C.ar    1  UNL1       -0.0615
      5 C          -6.3244   -0.7482   -0.9421 C.ar    1  UNL1       -0.0612
      6 C          -4.9677   -0.9045   -0.8571 C.ar    1  UNL1       -0.0538
      7 C          -4.1879    0.1307   -0.3210 C.ar    1  UNL1       -0.0149
      8 C          -2.7330   -0.0161   -0.2272 C.ar    1  UNL1       -0.0157
      9 C          -1.8351    0.9487   -0.6304 C.ar    1  UNL1       -0.0533
     10 C          -0.4688    0.7803   -0.5261 C.ar    1  UNL1       -0.0499
     11 C           0.0250   -0.4069    0.0055 C.ar    1  UNL1        0.0260
     12 C          -0.8285   -1.3820    0.4141 C.ar    1  UNL1        0.0519
     13 C          -2.1970   -1.1771    0.2938 C.ar    1  UNL1       -0.0299
     14 N          -0.3512   -2.5310    0.9285 N.ar    1  UNL1       -0.3203
     15 C           0.9715   -2.7440    1.0514 C.ar    1  UNL1        0.2748
     16 O           1.4545   -3.8011    1.5256 O.2     1  UNL1       -0.2656
     17 C           1.8644   -1.7764    0.6469 C.ar    1  UNL1        0.1322
     18 N           3.2192   -1.6555    0.6241 N.ar    1  UNL1       -0.3335
     19 C           3.5827   -0.4697    0.1122 C.ar    1  UNL1        0.1436
     20 C           4.9403    0.0288   -0.0761 C.ar    1  UNL1        0.0707
     21 C           6.0801   -0.6598    0.2512 C.ar    1  UNL1        0.1354
     22 F           5.9844   -1.8873    0.7874 F       1  UNL1       -0.2047
     23 C           7.3507   -0.1417    0.0524 C.ar    1  UNL1       -0.0257
     24 C           7.5055    1.1159   -0.4957 C.ar    1  UNL1       -0.0576
     25 C           6.3748    1.8269   -0.8327 C.ar    1  UNL1       -0.0425
     26 C           5.1190    1.2932   -0.6266 C.ar    1  UNL1        0.0544
     27 CL          3.7031    2.2185   -1.0639 Cl      1  UNL1       -0.0827
     28 N           2.4292    0.1912   -0.2033 N.ar    1  UNL1       -0.2268
     29 C           1.4025   -0.5905    0.1167 C.ar    1  UNL1        0.1039
     30 H          -3.8556    3.2429   -0.0094 H       1  UNL1        0.0278
     31 H          -3.0612    2.0569    1.1813 H       1  UNL1        0.0278
     32 H          -4.6142    2.8097    1.5215 H       1  UNL1        0.0278
     33 H          -6.6113    2.3060    0.3488 H       1  UNL1        0.0620
     34 H          -8.0242    0.4695   -0.6059 H       1  UNL1        0.0618
     35 H          -6.9007   -1.5826   -1.3684 H       1  UNL1        0.0618
     36 H          -4.4430   -1.8041   -1.1878 H       1  UNL1        0.0624
     37 H          -2.1962    1.8766   -1.0477 H       1  UNL1        0.0624
     38 H           0.2452    1.5180   -0.8337 H       1  UNL1        0.0625
     39 H          -2.8374   -1.9712    0.6277 H       1  UNL1        0.0644
     40 H          -0.9806   -3.2898    1.2472 H       1  UNL1        0.1690
     41 H           3.8106   -2.4296    0.9767 H       1  UNL1        0.1675
     42 H           8.2446   -0.6791    0.3079 H       1  UNL1        0.0646
     43 H           8.4989    1.5400   -0.6595 H       1  UNL1        0.0619
     44 H           6.4773    2.8280   -1.2694 H       1  UNL1        0.0632
@<TRIPOS>BOND
     1     1     2    1
     2     2     3   ar
     3     3     4   ar
     4     4     5   ar
     5     5     6   ar
     6     6     7   ar
     7     7     8    1
     8     8     9   ar
     9     9    10   ar
    10    10    11   ar
    11    11    12   ar
    12    12    13   ar
    13    12    14   ar
    14    14    15   ar
    15    15    16    2
    16    15    17   ar
    17    17    18   ar
    18    18    19   ar
    19    19    20    1
    20    20    21   ar
    21    21    22    1
    22    21    23   ar
    23    23    24   ar
    24    24    25   ar
    25    25    26   ar
    26    26    27    1
    27    19    28   ar
    28    28    29   ar
    29     7     2   ar
    30    13     8   ar
    31    29    17   ar
    32    29    11   ar
    33    26    20   ar
    34     1    30    1
    35     1    31    1
    36     1    32    1
    37     3    33    1
    38     4    34    1
    39     5    35    1
    40     6    36    1
    41     9    37    1
    42    10    38    1
    43    13    39    1
    44    14    40    1
    45    18    41    1
    46    23    42    1
    47    24    43    1
    48    25    44    1
