
     RDKit          3D

 31 32  0  0  0  0  0  0  0  0999 V2000
    5.0315   -2.4051   -1.2493 C   0  0  0  0  0  0  0  0  0  0  0  0
    4.4833   -1.1151   -1.7196 C   0  0  0  0  0  0  0  0  0  0  0  0
    5.1710   -0.4179   -2.5003 O   0  0  0  0  0  0  0  0  0  0  0  0
    3.1761   -0.5960   -1.3274 C   0  0  0  0  0  0  0  0  0  0  0  0
    2.7015    0.6140   -1.7900 C   0  0  0  0  0  0  0  0  0  0  0  0
    1.4665    1.0977   -1.4155 C   0  0  0  0  0  0  0  0  0  0  0  0
    0.6546    0.3858   -0.5595 C   0  0  0  0  0  0  0  0  0  0  0  0
   -0.5877    0.8362   -0.1614 O   0  0  0  0  0  0  0  0  0  0  0  0
   -1.3473    0.0451    0.7137 C   0  0  0  0  0  0  0  0  0  0  0  0
   -2.6494    0.6462    1.0543 C   0  0  0  0  0  0  0  0  0  0  0  0
   -2.7336    1.4862    2.1640 C   0  0  0  0  0  0  0  0  0  0  0  0
   -3.9541    2.0739    2.5163 C   0  0  0  0  0  0  0  0  0  0  0  0
   -5.0823    1.8285    1.7711 C   0  0  0  0  0  0  0  0  0  0  0  0
   -5.0019    1.0010    0.6769 C   0  0  0  0  0  0  0  0  0  0  0  0
   -6.3856    0.6347   -0.3254 Cl  0  0  0  0  0  0  0  0  0  0  0  0
   -3.7811    0.4126    0.3238 C   0  0  0  0  0  0  0  0  0  0  0  0
    1.1355   -0.8193   -0.1032 C   0  0  0  0  0  0  0  0  0  0  0  0
    2.3647   -1.3254   -0.4614 C   0  0  0  0  0  0  0  0  0  0  0  0
    5.8204   -2.7580   -1.9234 H   0  0  0  0  0  0  0  0  0  0  0  0
    5.3941   -2.2465   -0.2136 H   0  0  0  0  0  0  0  0  0  0  0  0
    4.2278   -3.1912   -1.2779 H   0  0  0  0  0  0  0  0  0  0  0  0
    3.3566    1.1692   -2.4694 H   0  0  0  0  0  0  0  0  0  0  0  0
    1.1266    2.0613   -1.8043 H   0  0  0  0  0  0  0  0  0  0  0  0
   -0.7659   -0.0594    1.6562 H   0  0  0  0  0  0  0  0  0  0  0  0
   -1.5301   -0.9779    0.3028 H   0  0  0  0  0  0  0  0  0  0  0  0
   -1.8550    1.6846    2.7542 H   0  0  0  0  0  0  0  0  0  0  0  0
   -3.9688    2.7155    3.3818 H   0  0  0  0  0  0  0  0  0  0  0  0
   -6.0189    2.2837    2.0471 H   0  0  0  0  0  0  0  0  0  0  0  0
   -3.7077   -0.2384   -0.5332 H   0  0  0  0  0  0  0  0  0  0  0  0
    0.5200   -1.4016    0.5710 H   0  0  0  0  0  0  0  0  0  0  0  0
    2.7391   -2.2768   -0.0983 H   0  0  0  0  0  0  0  0  0  0  0  0
  1  2  1  0
  2  3  2  0
  2  4  1  0
  4  5  2  0
  5  6  1  0
  6  7  2  0
  7  8  1  0
  8  9  1  0
  9 10  1  0
 10 11  2  0
 11 12  1  0
 12 13  2  0
 13 14  1  0
 14 15  1  0
 14 16  2  0
  7 17  1  0
 17 18  2  0
 18  4  1  0
 16 10  1  0
  1 19  1  0
  1 20  1  0
  1 21  1  0
  5 22  1  0
  6 23  1  0
  9 24  1  0
  9 25  1  0
 11 26  1  0
 12 27  1  0
 13 28  1  0
 16 29  1  0
 17 30  1  0
 18 31  1  0
M  END
$$$$
