@<TRIPOS>MOLECULE
*****
 31 32 0 0 0
SMALL
GASTEIGER

@<TRIPOS>ATOM
      1 C           5.0315   -2.4051   -1.2493 C.3     1  UNL1       -0.0014
      2 C           4.4833   -1.1151   -1.7196 C.2     1  UNL1        0.1601
      3 O           5.1710   -0.4179   -2.5003 O.2     1  UNL1       -0.2924
      4 C           3.1761   -0.5960   -1.3274 C.ar    1  UNL1        0.0173
      5 C           2.7015    0.6140   -1.7900 C.ar    1  UNL1       -0.0478
      6 C           1.4665    1.0977   -1.4155 C.ar    1  UNL1       -0.0193
      7 C           0.6546    0.3858   -0.5595 C.ar    1  UNL1        0.1210
      8 O          -0.5877    0.8362   -0.1614 O.3     1  UNL1       -0.4874
      9 C          -1.3473    0.0451    0.7137 C.3     1  UNL1        0.1147
     10 C          -2.6494    0.6462    1.0543 C.ar    1  UNL1       -0.0090
     11 C          -2.7336    1.4862    2.1640 C.ar    1  UNL1       -0.0553
     12 C          -3.9541    2.0739    2.5163 C.ar    1  UNL1       -0.0600
     13 C          -5.0823    1.8285    1.7711 C.ar    1  UNL1       -0.0434
     14 C          -5.0019    1.0010    0.6769 C.ar    1  UNL1        0.0413
     15 CL         -6.3856    0.6347   -0.3254 Cl      1  UNL1       -0.0835
     16 C          -3.7811    0.4126    0.3238 C.ar    1  UNL1       -0.0370
     17 C           1.1355   -0.8193   -0.1032 C.ar    1  UNL1       -0.0193
     18 C           2.3647   -1.3254   -0.4614 C.ar    1  UNL1       -0.0478
     19 H           5.8204   -2.7580   -1.9234 H       1  UNL1        0.0309
     20 H           5.3941   -2.2465   -0.2136 H       1  UNL1        0.0309
     21 H           4.2278   -3.1912   -1.2779 H       1  UNL1        0.0309
     22 H           3.3566    1.1692   -2.4694 H       1  UNL1        0.0626
     23 H           1.1266    2.0613   -1.8043 H       1  UNL1        0.0654
     24 H          -0.7659   -0.0594    1.6562 H       1  UNL1        0.0748
     25 H          -1.5301   -0.9779    0.3028 H       1  UNL1        0.0748
     26 H          -1.8550    1.6846    2.7542 H       1  UNL1        0.0621
     27 H          -3.9688    2.7155    3.3818 H       1  UNL1        0.0618
     28 H          -6.0189    2.2837    2.0471 H       1  UNL1        0.0632
     29 H          -3.7077   -0.2384   -0.5332 H       1  UNL1        0.0636
     30 H           0.5200   -1.4016    0.5710 H       1  UNL1        0.0654
     31 H           2.7391   -2.2768   -0.0983 H       1  UNL1        0.0626
@<TRIPOS>BOND
     1     1     2    1
     2     2     3    2
     3     2     4    1
     4     4     5   ar
     5     5     6   ar
     6     6     7   ar
     7     7     8    1
     8     8     9    1
     9     9    10    1
    10    10    11   ar
    11    11    12   ar
    12    12    13   ar
    13    13    14   ar
    14    14    15    1
    15    14    16   ar
    16     7    17   ar
    17    17    18   ar
    18    18     4   ar
    19    16    10   ar
    20     1    19    1
    21     1    20    1
    22     1    21    1
    23     5    22    1
    24     6    23    1
    25     9    24    1
    26     9    25    1
    27    11    26    1
    28    12    27    1
    29    13    28    1
    30    16    29    1
    31    17    30    1
    32    18    31    1
