@<TRIPOS>MOLECULE
*****
 54 58 0 0 0
SMALL
GASTEIGER

@<TRIPOS>ATOM
      1 C         -10.7157    1.0709    0.4734 C.3     1  UNL1        0.0302
      2 N          -9.4566    0.3366    0.2755 N.ar    1  UNL1       -0.2738
      3 C          -8.2055    0.8295    0.3265 C.ar    1  UNL1        0.0343
      4 C          -7.2796   -0.1635    0.0898 C.ar    1  UNL1        0.0357
      5 C          -5.8242   -0.0877    0.0489 C.ar    1  UNL1        0.0505
      6 C          -4.9695   -1.1437   -0.1941 C.ar    1  UNL1       -0.0271
      7 C          -3.6626   -0.7039   -0.1551 C.ar    1  UNL1        0.0185
      8 C          -2.4284   -1.2944   -0.3189 C.ar    1  UNL1        0.0389
      9 N          -1.2786   -0.5781   -0.2184 N.ar    1  UNL1       -0.2395
     10 C          -1.2913    0.7406    0.0457 C.ar    1  UNL1        0.1249
     11 N          -0.0767    1.5124    0.1556 N.pl3   1  UNL1       -0.2982
     12 C           1.1436    0.7984   -0.0153 C.ar    1  UNL1        0.0510
     13 C           2.0402    1.1027   -1.0180 C.ar    1  UNL1       -0.0384
     14 C           3.2161    0.4060   -1.1705 C.ar    1  UNL1       -0.0478
     15 C           3.5588   -0.6346   -0.3261 C.ar    1  UNL1        0.0384
     16 C           4.7953   -1.3820   -0.4713 C.2     1  UNL1        0.2467
     17 O           4.7066   -2.6245   -0.6967 O.2     1  UNL1       -0.2700
     18 N           6.0306   -0.7014   -0.3566 N.am    1  UNL1       -0.2944
     19 C           6.0205    0.7102   -0.1014 C.3     1  UNL1        0.0344
     20 C           7.1985    1.2135    0.6836 C.3     1  UNL1        0.0815
     21 S           7.7119   -0.0777    1.7918 S.O2    1  UNL1       -0.0281
     22 O           6.5710   -0.4254    2.7052 O.2     1  UNL1       -0.1743
     23 O           8.9218    0.3358    2.5808 O.2     1  UNL1       -0.1743
     24 C           8.0398   -1.5129    0.7919 C.3     1  UNL1        0.0815
     25 C           7.2569   -1.4691   -0.5019 C.3     1  UNL1        0.0344
     26 C           2.6604   -0.9384    0.6776 C.ar    1  UNL1       -0.0295
     27 C           1.4800   -0.2455    0.8374 C.ar    1  UNL1        0.0628
     28 CL          0.3816   -0.6737    2.1319 Cl      1  UNL1       -0.0816
     29 C          -2.5248    1.3364    0.2105 C.ar    1  UNL1        0.0023
     30 C          -3.7211    0.6445    0.1165 C.ar    1  UNL1        0.0516
     31 N          -5.0184    0.9713    0.2304 N.ar    1  UNL1       -0.3539
     32 C          -8.0317   -1.3009   -0.1109 C.ar    1  UNL1        0.0585
     33 N          -9.3282   -0.9534    0.0097 N.ar    1  UNL1       -0.1792
     34 H         -11.2396    1.0865   -0.5100 H       1  UNL1        0.0473
     35 H         -10.4606    2.1081    0.7672 H       1  UNL1        0.0473
     36 H         -11.3185    0.6174    1.2663 H       1  UNL1        0.0473
     37 H          -7.9349    1.8545    0.5231 H       1  UNL1        0.0833
     38 H          -5.2786   -2.1715   -0.3880 H       1  UNL1        0.0645
     39 H          -2.4222   -2.3640   -0.5327 H       1  UNL1        0.0837
     40 H          -0.1569    2.5161    0.3476 H       1  UNL1        0.1536
     41 H           1.7848    1.9262   -1.6974 H       1  UNL1        0.0637
     42 H           3.8983    0.6880   -1.9880 H       1  UNL1        0.0626
     43 H           6.0153    1.3092   -1.0556 H       1  UNL1        0.0480
     44 H           5.0863    0.9594    0.4416 H       1  UNL1        0.0480
     45 H           8.0196    1.4551   -0.0230 H       1  UNL1        0.0515
     46 H           6.8713    2.0934    1.2521 H       1  UNL1        0.0515
     47 H           7.8710   -2.4514    1.3349 H       1  UNL1        0.0515
     48 H           9.1138   -1.4681    0.5176 H       1  UNL1        0.0515
     49 H           7.0169   -2.5135   -0.7740 H       1  UNL1        0.0480
     50 H           7.8352   -1.0320   -1.3430 H       1  UNL1        0.0480
     51 H           2.9026   -1.7542    1.3596 H       1  UNL1        0.0640
     52 H          -2.5449    2.4007    0.4237 H       1  UNL1        0.0673
     53 H          -5.3441    1.9331    0.4348 H       1  UNL1        0.1659
     54 H          -7.6355   -2.2912   -0.3264 H       1  UNL1        0.0854
@<TRIPOS>BOND
     1     1     2    1
     2     2     3   ar
     3     3     4   ar
     4     4     5    1
     5     5     6   ar
     6     6     7   ar
     7     7     8   ar
     8     8     9   ar
     9     9    10   ar
    10    10    11    1
    11    11    12    1
    12    12    13   ar
    13    13    14   ar
    14    14    15   ar
    15    15    16    1
    16    16    17    2
    17    16    18   am
    18    18    19    1
    19    19    20    1
    20    20    21    1
    21    21    22    2
    22    21    23    2
    23    21    24    1
    24    24    25    1
    25    15    26   ar
    26    26    27   ar
    27    27    28    1
    28    10    29   ar
    29    29    30   ar
    30    30    31   ar
    31     4    32   ar
    32    32    33   ar
    33    33     2   ar
    34    31     5   ar
    35    30     7   ar
    36    27    12   ar
    37    25    18    1
    38     1    34    1
    39     1    35    1
    40     1    36    1
    41     3    37    1
    42     6    38    1
    43     8    39    1
    44    11    40    1
    45    13    41    1
    46    14    42    1
    47    19    43    1
    48    19    44    1
    49    20    45    1
    50    20    46    1
    51    24    47    1
    52    24    48    1
    53    25    49    1
    54    25    50    1
    55    26    51    1
    56    29    52    1
    57    31    53    1
    58    32    54    1
