
     RDKit          3D

 54 58  0  0  0  0  0  0  0  0999 V2000
  -10.7157    1.0709    0.4734 C   0  0  0  0  0  0  0  0  0  0  0  0
   -9.4566    0.3366    0.2755 N   0  0  0  0  0  0  0  0  0  0  0  0
   -8.2055    0.8295    0.3265 C   0  0  0  0  0  0  0  0  0  0  0  0
   -7.2796   -0.1635    0.0898 C   0  0  0  0  0  0  0  0  0  0  0  0
   -5.8242   -0.0877    0.0489 C   0  0  0  0  0  0  0  0  0  0  0  0
   -4.9695   -1.1437   -0.1941 C   0  0  0  0  0  0  0  0  0  0  0  0
   -3.6626   -0.7039   -0.1551 C   0  0  0  0  0  0  0  0  0  0  0  0
   -2.4284   -1.2944   -0.3189 C   0  0  0  0  0  0  0  0  0  0  0  0
   -1.2786   -0.5781   -0.2184 N   0  0  0  0  0  0  0  0  0  0  0  0
   -1.2913    0.7406    0.0457 C   0  0  0  0  0  0  0  0  0  0  0  0
   -0.0767    1.5124    0.1556 N   0  0  0  0  0  0  0  0  0  0  0  0
    1.1436    0.7984   -0.0153 C   0  0  0  0  0  0  0  0  0  0  0  0
    2.0402    1.1027   -1.0180 C   0  0  0  0  0  0  0  0  0  0  0  0
    3.2161    0.4060   -1.1705 C   0  0  0  0  0  0  0  0  0  0  0  0
    3.5588   -0.6346   -0.3261 C   0  0  0  0  0  0  0  0  0  0  0  0
    4.7953   -1.3820   -0.4713 C   0  0  0  0  0  0  0  0  0  0  0  0
    4.7066   -2.6245   -0.6967 O   0  0  0  0  0  0  0  0  0  0  0  0
    6.0306   -0.7014   -0.3566 N   0  0  0  0  0  0  0  0  0  0  0  0
    6.0205    0.7102   -0.1014 C   0  0  0  0  0  0  0  0  0  0  0  0
    7.1985    1.2135    0.6836 C   0  0  0  0  0  0  0  0  0  0  0  0
    7.7119   -0.0777    1.7918 S   0  0  0  0  0  6  0  0  0  0  0  0
    6.5710   -0.4254    2.7052 O   0  0  0  0  0  0  0  0  0  0  0  0
    8.9218    0.3358    2.5808 O   0  0  0  0  0  0  0  0  0  0  0  0
    8.0398   -1.5129    0.7919 C   0  0  0  0  0  0  0  0  0  0  0  0
    7.2569   -1.4691   -0.5019 C   0  0  0  0  0  0  0  0  0  0  0  0
    2.6604   -0.9384    0.6776 C   0  0  0  0  0  0  0  0  0  0  0  0
    1.4800   -0.2455    0.8374 C   0  0  0  0  0  0  0  0  0  0  0  0
    0.3816   -0.6737    2.1319 Cl  0  0  0  0  0  0  0  0  0  0  0  0
   -2.5248    1.3364    0.2105 C   0  0  0  0  0  0  0  0  0  0  0  0
   -3.7211    0.6445    0.1165 C   0  0  0  0  0  0  0  0  0  0  0  0
   -5.0184    0.9713    0.2304 N   0  0  0  0  0  0  0  0  0  0  0  0
   -8.0317   -1.3009   -0.1109 C   0  0  0  0  0  0  0  0  0  0  0  0
   -9.3282   -0.9534    0.0097 N   0  0  0  0  0  0  0  0  0  0  0  0
  -11.2396    1.0865   -0.5100 H   0  0  0  0  0  0  0  0  0  0  0  0
  -10.4606    2.1081    0.7672 H   0  0  0  0  0  0  0  0  0  0  0  0
  -11.3185    0.6174    1.2663 H   0  0  0  0  0  0  0  0  0  0  0  0
   -7.9349    1.8545    0.5231 H   0  0  0  0  0  0  0  0  0  0  0  0
   -5.2786   -2.1715   -0.3880 H   0  0  0  0  0  0  0  0  0  0  0  0
   -2.4222   -2.3640   -0.5327 H   0  0  0  0  0  0  0  0  0  0  0  0
   -0.1569    2.5161    0.3476 H   0  0  0  0  0  0  0  0  0  0  0  0
    1.7848    1.9262   -1.6974 H   0  0  0  0  0  0  0  0  0  0  0  0
    3.8983    0.6880   -1.9880 H   0  0  0  0  0  0  0  0  0  0  0  0
    6.0153    1.3092   -1.0556 H   0  0  0  0  0  0  0  0  0  0  0  0
    5.0863    0.9594    0.4416 H   0  0  0  0  0  0  0  0  0  0  0  0
    8.0196    1.4551   -0.0230 H   0  0  0  0  0  0  0  0  0  0  0  0
    6.8713    2.0934    1.2521 H   0  0  0  0  0  0  0  0  0  0  0  0
    7.8710   -2.4514    1.3349 H   0  0  0  0  0  0  0  0  0  0  0  0
    9.1138   -1.4681    0.5176 H   0  0  0  0  0  0  0  0  0  0  0  0
    7.0169   -2.5135   -0.7740 H   0  0  0  0  0  0  0  0  0  0  0  0
    7.8352   -1.0320   -1.3430 H   0  0  0  0  0  0  0  0  0  0  0  0
    2.9026   -1.7542    1.3596 H   0  0  0  0  0  0  0  0  0  0  0  0
   -2.5449    2.4007    0.4237 H   0  0  0  0  0  0  0  0  0  0  0  0
   -5.3441    1.9331    0.4348 H   0  0  0  0  0  0  0  0  0  0  0  0
   -7.6355   -2.2912   -0.3264 H   0  0  0  0  0  0  0  0  0  0  0  0
  1  2  1  0
  2  3  1  0
  3  4  2  0
  4  5  1  0
  5  6  2  0
  6  7  1  0
  7  8  2  0
  8  9  1  0
  9 10  2  0
 10 11  1  0
 11 12  1  0
 12 13  2  0
 13 14  1  0
 14 15  2  0
 15 16  1  0
 16 17  2  0
 16 18  1  0
 18 19  1  0
 19 20  1  0
 20 21  1  0
 21 22  2  0
 21 23  2  0
 21 24  1  0
 24 25  1  0
 15 26  1  0
 26 27  2  0
 27 28  1  0
 10 29  1  0
 29 30  2  0
 30 31  1  0
  4 32  1  0
 32 33  2  0
 33  2  1  0
 31  5  1  0
 30  7  1  0
 27 12  1  0
 25 18  1  0
  1 34  1  0
  1 35  1  0
  1 36  1  0
  3 37  1  0
  6 38  1  0
  8 39  1  0
 11 40  1  0
 13 41  1  0
 14 42  1  0
 19 43  1  0
 19 44  1  0
 20 45  1  0
 20 46  1  0
 24 47  1  0
 24 48  1  0
 25 49  1  0
 25 50  1  0
 26 51  1  0
 29 52  1  0
 31 53  1  0
 32 54  1  0
M  END
$$$$
