@<TRIPOS>MOLECULE
*****
 74 78 0 0 0
SMALL
GASTEIGER

@<TRIPOS>ATOM
      1 C         -10.0011    1.7162   -2.5015 C.3     1  UNL1        0.0805
      2 O          -9.1974    0.9132   -1.9056 O.3     1  UNL1       -0.4774
      3 C          -8.4855   -0.0490   -1.3693 C.ar    1  UNL1        0.2552
      4 N          -8.6996   -1.4174   -1.4799 N.ar    1  UNL1       -0.1317
      5 N          -7.7920   -2.0732   -0.8126 N.ar    1  UNL1       -0.2692
      6 C          -7.6769   -3.5076   -0.6761 C.3     1  UNL1        0.0304
      7 C          -6.9501   -1.1846   -0.2386 C.ar    1  UNL1        0.0503
      8 C          -7.3405    0.0870   -0.5551 C.ar    1  UNL1        0.1152
      9 N          -6.7949    1.3341   -0.2044 N.pl3   1  UNL1       -0.2782
     10 C          -5.7299    1.5273    0.7398 C.ar    1  UNL1        0.2202
     11 N          -5.9947    2.1448    1.9165 N.ar    1  UNL1       -0.2224
     12 C          -5.0351    2.3521    2.8226 C.ar    1  UNL1        0.0361
     13 C          -3.7251    1.9468    2.6013 C.ar    1  UNL1       -0.0062
     14 C          -2.6762    2.2152    3.6145 C.3     1  UNL1       -0.0362
     15 C          -3.4468    1.3056    1.3840 C.ar    1  UNL1        0.0809
     16 C          -2.0697    0.8875    1.1506 C.ar    1  UNL1        0.0258
     17 C          -1.4121   -0.0207    1.9799 C.ar    1  UNL1        0.0120
     18 N          -0.1762   -0.1983    1.5002 N.ar    1  UNL1       -0.3586
     19 C          -0.0312    0.5653    0.3996 C.ar    1  UNL1        0.0686
     20 C           1.1098    0.6904   -0.4129 C.ar    1  UNL1        0.0576
     21 N           2.2778   -0.0417   -0.1027 N.am    1  UNL1       -0.2825
     22 C           2.4388   -1.3696   -0.6516 C.2     1  UNL1        0.2342
     23 O           1.4911   -1.7506   -1.3726 O.2     1  UNL1       -0.2738
     24 C           3.6405   -2.1877   -0.3638 C.3     1  UNL1        0.0848
     25 C           4.0430   -2.8808   -1.6513 C.3     1  UNL1       -0.0409
     26 N           4.6759   -1.3661    0.1654 N.3     1  UNL1       -0.2893
     27 C           5.2458   -0.5092   -0.8254 C.3     1  UNL1        0.0124
     28 C           6.3085    0.3228   -0.1022 C.3     1  UNL1        0.0118
     29 N           7.4348   -0.5411    0.1491 N.3     1  UNL1       -0.2977
     30 C           8.4095   -0.0281    1.0502 C.3     1  UNL1        0.0222
     31 C           9.1054    1.1569    0.3764 C.3     1  UNL1        0.0569
     32 O           9.7329    0.7684   -0.8075 O.3     1  UNL1       -0.3937
     33 C           7.0592   -1.9123    0.3746 C.3     1  UNL1        0.0118
     34 C           5.6690   -2.0822    0.9329 C.3     1  UNL1        0.0124
     35 C           1.0153    1.5434   -1.4785 C.ar    1  UNL1       -0.0384
     36 C          -0.1743    2.2433   -1.7240 C.ar    1  UNL1       -0.0593
     37 C          -1.2643    2.1228   -0.9502 C.ar    1  UNL1       -0.0518
     38 C          -1.1989    1.2552    0.1552 C.ar    1  UNL1        0.0107
     39 N          -4.4640    1.1422    0.5431 N.ar    1  UNL1       -0.2139
     40 H         -10.2041    2.6640   -1.8699 H       1  UNL1        0.0660
     41 H          -9.7439    2.0730   -3.5413 H       1  UNL1        0.0660
     42 H         -11.0704    1.2915   -2.5476 H       1  UNL1        0.0660
     43 H          -7.5770   -3.7904    0.4028 H       1  UNL1        0.0473
     44 H          -8.5995   -3.9707   -1.0718 H       1  UNL1        0.0473
     45 H          -6.8477   -3.8944   -1.2859 H       1  UNL1        0.0473
     46 H          -6.0738   -1.4347    0.3848 H       1  UNL1        0.0846
     47 H          -7.1671    2.2263   -0.6348 H       1  UNL1        0.1552
     48 H          -5.2688    2.8507    3.7636 H       1  UNL1        0.0834
     49 H          -1.8164    2.7863    3.1454 H       1  UNL1        0.0279
     50 H          -3.0939    2.9717    4.3469 H       1  UNL1        0.0279
     51 H          -2.3632    1.3508    4.1982 H       1  UNL1        0.0279
     52 H          -1.7964   -0.5250    2.8731 H       1  UNL1        0.0814
     53 H           0.5319   -0.8285    1.9255 H       1  UNL1        0.1654
     54 H           2.9993    0.3544    0.5170 H       1  UNL1        0.1549
     55 H           3.3240   -2.9899    0.3367 H       1  UNL1        0.0556
     56 H           3.2136   -3.5883   -1.8783 H       1  UNL1        0.0249
     57 H           4.0334   -2.1116   -2.4490 H       1  UNL1        0.0249
     58 H           5.0232   -3.3914   -1.5466 H       1  UNL1        0.0249
     59 H           5.7110   -1.0727   -1.6650 H       1  UNL1        0.0439
     60 H           4.4814    0.1466   -1.2595 H       1  UNL1        0.0439
     61 H           5.8186    0.6998    0.8125 H       1  UNL1        0.0439
     62 H           6.6047    1.1402   -0.7778 H       1  UNL1        0.0439
     63 H           8.0052    0.3284    2.0085 H       1  UNL1        0.0449
     64 H           9.1979   -0.8203    1.1624 H       1  UNL1        0.0449
     65 H           9.9083    1.5165    1.0647 H       1  UNL1        0.0570
     66 H           8.3782    1.9640    0.1775 H       1  UNL1        0.0570
     67 H           9.6162    1.4960   -1.4662 H       1  UNL1        0.2095
     68 H           7.7719   -2.3375    1.1131 H       1  UNL1        0.0439
     69 H           7.1934   -2.5017   -0.5643 H       1  UNL1        0.0439
     70 H           5.6075   -1.7740    1.9844 H       1  UNL1        0.0439
     71 H           5.4216   -3.1675    0.8897 H       1  UNL1        0.0439
     72 H           1.8809    1.6631   -2.1258 H       1  UNL1        0.0637
     73 H          -0.2059    2.9161   -2.5836 H       1  UNL1        0.0618
     74 H          -2.2148    2.6390   -1.0809 H       1  UNL1        0.0624
@<TRIPOS>BOND
     1     1     2    1
     2     2     3    1
     3     3     4   ar
     4     4     5   ar
     5     5     6    1
     6     5     7   ar
     7     7     8   ar
     8     8     9    1
     9     9    10    1
    10    10    11   ar
    11    11    12   ar
    12    12    13   ar
    13    13    14    1
    14    13    15   ar
    15    15    16    1
    16    16    17   ar
    17    17    18   ar
    18    18    19   ar
    19    19    20   ar
    20    20    21    1
    21    21    22   am
    22    22    23    2
    23    22    24    1
    24    24    25    1
    25    24    26    1
    26    26    27    1
    27    27    28    1
    28    28    29    1
    29    29    30    1
    30    30    31    1
    31    31    32    1
    32    29    33    1
    33    33    34    1
    34    20    35   ar
    35    35    36   ar
    36    36    37   ar
    37    37    38   ar
    38    15    39   ar
    39     8     3   ar
    40    39    10   ar
    41    38    16   ar
    42    38    19   ar
    43    34    26    1
    44     1    40    1
    45     1    41    1
    46     1    42    1
    47     6    43    1
    48     6    44    1
    49     6    45    1
    50     7    46    1
    51     9    47    1
    52    12    48    1
    53    14    49    1
    54    14    50    1
    55    14    51    1
    56    17    52    1
    57    18    53    1
    58    21    54    1
    59    24    55    1
    60    25    56    1
    61    25    57    1
    62    25    58    1
    63    27    59    1
    64    27    60    1
    65    28    61    1
    66    28    62    1
    67    30    63    1
    68    30    64    1
    69    31    65    1
    70    31    66    1
    71    32    67    1
    72    33    68    1
    73    33    69    1
    74    34    70    1
    75    34    71    1
    76    35    72    1
    77    36    73    1
    78    37    74    1
