@<TRIPOS>MOLECULE
*****
 58 62 0 0 0
SMALL
GASTEIGER

@<TRIPOS>ATOM
      1 C          -7.9150    0.6708    2.0619 C.3     1  UNL1       -0.0512
      2 C          -8.3291    1.2433    0.7267 C.3     1  UNL1        0.0444
      3 C          -7.5765    0.8421   -0.4632 C.2     1  UNL1        0.2215
      4 O          -7.8820    1.5369   -1.5270 O.2     1  UNL1       -0.2750
      5 N          -6.6029   -0.1722   -0.5907 N.am    1  UNL1       -0.2986
      6 C          -5.9749   -1.2182    0.1638 C.3     1  UNL1        0.0299
      7 C          -5.2462   -1.7247   -1.0738 C.3     1  UNL1        0.0524
      8 C          -3.7866   -1.6621   -0.7928 C.1     1  UNL1       -0.0905
      9 C          -2.5715   -1.6265   -0.5446 C.1     1  UNL1       -0.0658
     10 C          -1.1729   -1.6045   -0.2754 C.ar    1  UNL1        0.0285
     11 C          -0.6832   -1.9753    0.9842 C.ar    1  UNL1       -0.0454
     12 C           0.6581   -1.8679    1.2081 C.ar    1  UNL1       -0.0462
     13 C           1.5639   -1.4136    0.2573 C.ar    1  UNL1        0.0646
     14 C           2.9124   -1.3044    0.5116 C.ar    1  UNL1        0.2001
     15 O           3.3437   -1.6375    1.6590 O.2     1  UNL1       -0.2864
     16 C           3.7673   -0.8399   -0.4568 C.ar    1  UNL1        0.0643
     17 C           5.1788   -0.6623   -0.2595 C.ar    1  UNL1       -0.0112
     18 C           5.6732   -0.1968    0.9484 C.ar    1  UNL1       -0.0520
     19 C           7.0353    0.0489    1.1175 C.ar    1  UNL1       -0.0388
     20 C           7.9132   -0.1691    0.0911 C.ar    1  UNL1        0.0477
     21 N           9.3227    0.1017    0.2055 N.pl3   1  UNL1       -0.2209
     22 S           9.7565    1.6137    0.9200 S.O2    1  UNL1        0.0403
     23 C           9.1562    3.0136    0.0527 C.3     1  UNL1        0.0736
     24 O          11.2829    1.6648    0.8450 O.2     1  UNL1       -0.1555
     25 O           9.3753    1.6773    2.3415 O.2     1  UNL1       -0.1555
     26 C           7.4501   -0.6431   -1.1344 C.ar    1  UNL1       -0.0388
     27 C           6.1055   -0.8722   -1.2686 C.ar    1  UNL1       -0.0520
     28 C           3.1939   -0.4931   -1.7022 C.ar    1  UNL1        0.1038
     29 O           1.9087   -0.6085   -1.9132 O.2     1  UNL1       -0.4621
     30 C           1.0932   -1.0475   -0.9880 C.ar    1  UNL1        0.1396
     31 C          -0.2723   -1.1593   -1.2086 C.ar    1  UNL1       -0.0032
     32 C          -5.7545   -0.5016   -1.7595 C.3     1  UNL1        0.0299
     33 C          -9.8110    1.4862    0.5670 C.3     1  UNL1       -0.0384
     34 C          -8.8935    2.6737    0.7046 C.3     1  UNL1       -0.0384
     35 H          -8.6719   -0.0244    2.4815 H       1  UNL1        0.0240
     36 H          -7.6293    1.4980    2.7690 H       1  UNL1        0.0240
     37 H          -7.0145    0.0749    1.8915 H       1  UNL1        0.0240
     38 H          -5.3121   -0.9749    0.9910 H       1  UNL1        0.0477
     39 H          -6.6833   -2.0390    0.4670 H       1  UNL1        0.0477
     40 H          -5.6077   -2.6536   -1.5237 H       1  UNL1        0.0464
     41 H          -1.3760   -2.3185    1.7092 H       1  UNL1        0.0630
     42 H           1.0980   -2.1488    2.1690 H       1  UNL1        0.0626
     43 H           5.0409   -0.0080    1.7980 H       1  UNL1        0.0624
     44 H           7.3899    0.4245    2.0734 H       1  UNL1        0.0637
     45 H           9.9996   -0.5896   -0.1150 H       1  UNL1        0.1733
     46 H           9.8285    3.2818   -0.8138 H       1  UNL1        0.0482
     47 H           9.0590    3.8493    0.7696 H       1  UNL1        0.0482
     48 H           8.1518    2.8800   -0.4189 H       1  UNL1        0.0482
     49 H           8.1279   -0.8203   -1.9503 H       1  UNL1        0.0637
     50 H           5.7394   -1.2370   -2.2208 H       1  UNL1        0.0624
     51 H           3.8901   -0.1294   -2.4588 H       1  UNL1        0.1037
     52 H          -0.6596   -0.8863   -2.1807 H       1  UNL1        0.0667
     53 H          -5.0038    0.3182   -1.8766 H       1  UNL1        0.0477
     54 H          -6.2767   -0.6160   -2.7079 H       1  UNL1        0.0477
     55 H         -10.2997    1.2482   -0.3826 H       1  UNL1        0.0275
     56 H         -10.4130    1.2498    1.4608 H       1  UNL1        0.0275
     57 H          -8.8429    3.2085    1.6723 H       1  UNL1        0.0275
     58 H          -8.7535    3.2403   -0.2588 H       1  UNL1        0.0275
@<TRIPOS>BOND
     1     1     2    1
     2     2     3    1
     3     3     4    2
     4     3     5   am
     5     5     6    1
     6     6     7    1
     7     7     8    1
     8     8     9    3
     9     9    10    1
    10    10    11   ar
    11    11    12   ar
    12    12    13   ar
    13    13    14   ar
    14    14    15    2
    15    14    16   ar
    16    16    17    1
    17    17    18   ar
    18    18    19   ar
    19    19    20   ar
    20    20    21    1
    21    21    22    1
    22    22    23    1
    23    22    24    2
    24    22    25    2
    25    20    26   ar
    26    26    27   ar
    27    16    28   ar
    28    28    29   ar
    29    29    30   ar
    30    30    31   ar
    31     7    32    1
    32     2    33    1
    33    33    34    1
    34    34     2    1
    35    32     5    1
    36    31    10   ar
    37    30    13   ar
    38    27    17   ar
    39     1    35    1
    40     1    36    1
    41     1    37    1
    42     6    38    1
    43     6    39    1
    44     7    40    1
    45    11    41    1
    46    12    42    1
    47    18    43    1
    48    19    44    1
    49    21    45    1
    50    23    46    1
    51    23    47    1
    52    23    48    1
    53    26    49    1
    54    27    50    1
    55    28    51    1
    56    31    52    1
    57    32    53    1
    58    32    54    1
    59    33    55    1
    60    33    56    1
    61    34    57    1
    62    34    58    1
