
     RDKit          3D

 58 62  0  0  0  0  0  0  0  0999 V2000
   -7.9150    0.6708    2.0619 C   0  0  0  0  0  0  0  0  0  0  0  0
   -8.3291    1.2433    0.7267 C   0  0  0  0  0  0  0  0  0  0  0  0
   -7.5765    0.8421   -0.4632 C   0  0  0  0  0  0  0  0  0  0  0  0
   -7.8820    1.5369   -1.5270 O   0  0  0  0  0  0  0  0  0  0  0  0
   -6.6029   -0.1722   -0.5907 N   0  0  0  0  0  0  0  0  0  0  0  0
   -5.9749   -1.2182    0.1638 C   0  0  0  0  0  0  0  0  0  0  0  0
   -5.2462   -1.7247   -1.0738 C   0  0  0  0  0  0  0  0  0  0  0  0
   -3.7866   -1.6621   -0.7928 C   0  0  0  0  0  0  0  0  0  0  0  0
   -2.5715   -1.6265   -0.5446 C   0  0  0  0  0  0  0  0  0  0  0  0
   -1.1729   -1.6045   -0.2754 C   0  0  0  0  0  0  0  0  0  0  0  0
   -0.6832   -1.9753    0.9842 C   0  0  0  0  0  0  0  0  0  0  0  0
    0.6581   -1.8679    1.2081 C   0  0  0  0  0  0  0  0  0  0  0  0
    1.5639   -1.4136    0.2573 C   0  0  0  0  0  0  0  0  0  0  0  0
    2.9124   -1.3044    0.5116 C   0  0  0  0  0  0  0  0  0  0  0  0
    3.3437   -1.6375    1.6590 O   0  0  0  0  0  0  0  0  0  0  0  0
    3.7673   -0.8399   -0.4568 C   0  0  0  0  0  0  0  0  0  0  0  0
    5.1788   -0.6623   -0.2595 C   0  0  0  0  0  0  0  0  0  0  0  0
    5.6732   -0.1968    0.9484 C   0  0  0  0  0  0  0  0  0  0  0  0
    7.0353    0.0489    1.1175 C   0  0  0  0  0  0  0  0  0  0  0  0
    7.9132   -0.1691    0.0911 C   0  0  0  0  0  0  0  0  0  0  0  0
    9.3227    0.1017    0.2055 N   0  0  0  0  0  0  0  0  0  0  0  0
    9.7565    1.6137    0.9200 S   0  0  0  0  0  6  0  0  0  0  0  0
    9.1562    3.0136    0.0527 C   0  0  0  0  0  0  0  0  0  0  0  0
   11.2829    1.6648    0.8450 O   0  0  0  0  0  0  0  0  0  0  0  0
    9.3753    1.6773    2.3415 O   0  0  0  0  0  0  0  0  0  0  0  0
    7.4501   -0.6431   -1.1344 C   0  0  0  0  0  0  0  0  0  0  0  0
    6.1055   -0.8722   -1.2686 C   0  0  0  0  0  0  0  0  0  0  0  0
    3.1939   -0.4931   -1.7022 C   0  0  0  0  0  0  0  0  0  0  0  0
    1.9087   -0.6085   -1.9132 O   0  0  0  0  0  0  0  0  0  0  0  0
    1.0932   -1.0475   -0.9880 C   0  0  0  0  0  0  0  0  0  0  0  0
   -0.2723   -1.1593   -1.2086 C   0  0  0  0  0  0  0  0  0  0  0  0
   -5.7545   -0.5016   -1.7595 C   0  0  0  0  0  0  0  0  0  0  0  0
   -9.8110    1.4862    0.5670 C   0  0  0  0  0  0  0  0  0  0  0  0
   -8.8935    2.6737    0.7046 C   0  0  0  0  0  0  0  0  0  0  0  0
   -8.6719   -0.0244    2.4815 H   0  0  0  0  0  0  0  0  0  0  0  0
   -7.6293    1.4980    2.7690 H   0  0  0  0  0  0  0  0  0  0  0  0
   -7.0145    0.0749    1.8915 H   0  0  0  0  0  0  0  0  0  0  0  0
   -5.3121   -0.9749    0.9910 H   0  0  0  0  0  0  0  0  0  0  0  0
   -6.6833   -2.0390    0.4670 H   0  0  0  0  0  0  0  0  0  0  0  0
   -5.6077   -2.6536   -1.5237 H   0  0  0  0  0  0  0  0  0  0  0  0
   -1.3760   -2.3185    1.7092 H   0  0  0  0  0  0  0  0  0  0  0  0
    1.0980   -2.1488    2.1690 H   0  0  0  0  0  0  0  0  0  0  0  0
    5.0409   -0.0080    1.7980 H   0  0  0  0  0  0  0  0  0  0  0  0
    7.3899    0.4245    2.0734 H   0  0  0  0  0  0  0  0  0  0  0  0
    9.9996   -0.5896   -0.1150 H   0  0  0  0  0  0  0  0  0  0  0  0
    9.8285    3.2818   -0.8138 H   0  0  0  0  0  0  0  0  0  0  0  0
    9.0590    3.8493    0.7696 H   0  0  0  0  0  0  0  0  0  0  0  0
    8.1518    2.8800   -0.4189 H   0  0  0  0  0  0  0  0  0  0  0  0
    8.1279   -0.8203   -1.9503 H   0  0  0  0  0  0  0  0  0  0  0  0
    5.7394   -1.2370   -2.2208 H   0  0  0  0  0  0  0  0  0  0  0  0
    3.8901   -0.1294   -2.4588 H   0  0  0  0  0  0  0  0  0  0  0  0
   -0.6596   -0.8863   -2.1807 H   0  0  0  0  0  0  0  0  0  0  0  0
   -5.0038    0.3182   -1.8766 H   0  0  0  0  0  0  0  0  0  0  0  0
   -6.2767   -0.6160   -2.7079 H   0  0  0  0  0  0  0  0  0  0  0  0
  -10.2997    1.2482   -0.3826 H   0  0  0  0  0  0  0  0  0  0  0  0
  -10.4130    1.2498    1.4608 H   0  0  0  0  0  0  0  0  0  0  0  0
   -8.8429    3.2085    1.6723 H   0  0  0  0  0  0  0  0  0  0  0  0
   -8.7535    3.2403   -0.2588 H   0  0  0  0  0  0  0  0  0  0  0  0
  1  2  1  0
  2  3  1  0
  3  4  2  0
  3  5  1  0
  5  6  1  0
  6  7  1  0
  7  8  1  0
  8  9  3  0
  9 10  1  0
 10 11  2  0
 11 12  1  0
 12 13  2  0
 13 14  1  0
 14 15  2  0
 14 16  1  0
 16 17  1  0
 17 18  2  0
 18 19  1  0
 19 20  2  0
 20 21  1  0
 21 22  1  0
 22 23  1  0
 22 24  2  0
 22 25  2  0
 20 26  1  0
 26 27  2  0
 16 28  2  0
 28 29  1  0
 29 30  1  0
 30 31  2  0
  7 32  1  0
  2 33  1  0
 33 34  1  0
 34  2  1  0
 32  5  1  0
 31 10  1  0
 30 13  1  0
 27 17  1  0
  1 35  1  0
  1 36  1  0
  1 37  1  0
  6 38  1  0
  6 39  1  0
  7 40  1  0
 11 41  1  0
 12 42  1  0
 18 43  1  0
 19 44  1  0
 21 45  1  0
 23 46  1  0
 23 47  1  0
 23 48  1  0
 26 49  1  0
 27 50  1  0
 28 51  1  0
 31 52  1  0
 32 53  1  0
 32 54  1  0
 33 55  1  0
 33 56  1  0
 34 57  1  0
 34 58  1  0
M  END
$$$$
