@<TRIPOS>MOLECULE
*****
 70 74 0 0 0
SMALL
GASTEIGER

@<TRIPOS>ATOM
      1 C           9.5112    2.3883    0.9505 C.3     1  UNL1        0.0805
      2 O           8.5996    1.3119    0.7403 O.3     1  UNL1       -0.4774
      3 C           7.2494    1.5705    0.4817 C.ar    1  UNL1        0.2552
      4 N           6.6263    2.7428    0.3902 N.ar    1  UNL1       -0.1317
      5 N           5.3437    2.5830    0.1334 N.ar    1  UNL1       -0.2692
      6 C           4.3386    3.6274   -0.0369 C.3     1  UNL1        0.0304
      7 C           5.1367    1.2405    0.0569 C.ar    1  UNL1        0.0503
      8 C           6.3134    0.5565    0.2705 C.ar    1  UNL1        0.1152
      9 N           6.5901   -0.8332    0.2853 N.pl3   1  UNL1       -0.2782
     10 C           5.6109   -1.8580    0.0972 C.ar    1  UNL1        0.2201
     11 N           5.9802   -3.1474    0.1027 N.ar    1  UNL1       -0.2226
     12 C           5.1022   -4.1114   -0.0609 C.ar    1  UNL1        0.0332
     13 C           3.7597   -3.7971   -0.2442 C.ar    1  UNL1       -0.0173
     14 C           3.3957   -2.4902   -0.2501 C.ar    1  UNL1        0.0780
     15 C           2.0216   -2.0460   -0.3694 C.ar    1  UNL1        0.0256
     16 C           1.5377   -0.8208    0.1365 C.ar    1  UNL1        0.0120
     17 N           0.2553   -0.7285   -0.1945 N.ar    1  UNL1       -0.3586
     18 C          -0.1350   -1.8203   -0.8901 C.ar    1  UNL1        0.0686
     19 C          -1.3761   -2.1620   -1.4567 C.ar    1  UNL1        0.0576
     20 N          -2.4321   -1.2335   -1.2785 N.am    1  UNL1       -0.2825
     21 C          -3.7479   -1.3972   -1.7345 C.2     1  UNL1        0.2342
     22 O          -4.0903   -2.4145   -2.3574 O.2     1  UNL1       -0.2738
     23 C          -4.7369   -0.2953   -1.4465 C.3     1  UNL1        0.0850
     24 C          -6.0205   -0.9869   -1.0823 C.3     1  UNL1       -0.0409
     25 N          -4.2146    0.6070   -0.5399 N.3     1  UNL1       -0.2866
     26 C          -3.9539    0.2837    0.7929 C.3     1  UNL1        0.0127
     27 C          -5.0264    0.6835    1.7772 C.3     1  UNL1        0.0115
     28 N          -5.5368    2.0072    1.5454 N.3     1  UNL1       -0.3027
     29 C          -6.8097    2.1237    2.2345 C.3     1  UNL1       -0.0127
     30 C          -5.7221    2.3593    0.1897 C.3     1  UNL1        0.0140
     31 C          -4.6389    1.9424   -0.7501 C.3     1  UNL1        0.0211
     32 C          -3.4995    2.9400   -0.8022 C.3     1  UNL1       -0.0483
     33 C          -1.4921   -3.3442   -2.1396 C.ar    1  UNL1       -0.0384
     34 C          -0.3972   -4.1999   -2.2745 C.ar    1  UNL1       -0.0593
     35 C           0.7896   -3.8262   -1.7063 C.ar    1  UNL1       -0.0518
     36 C           0.9630   -2.6331   -0.9968 C.ar    1  UNL1        0.0107
     37 N           4.3394   -1.5338   -0.0764 N.ar    1  UNL1       -0.2142
     38 H           9.4275    2.7571    1.9995 H       1  UNL1        0.0660
     39 H          10.5421    2.1060    0.6703 H       1  UNL1        0.0660
     40 H           9.2210    3.2565    0.3095 H       1  UNL1        0.0660
     41 H           3.4118    3.4031    0.4947 H       1  UNL1        0.0473
     42 H           4.1084    3.7069   -1.1279 H       1  UNL1        0.0473
     43 H           4.8030    4.5903    0.2527 H       1  UNL1        0.0473
     44 H           4.1789    0.7945   -0.1457 H       1  UNL1        0.0846
     45 H           7.5719   -1.1489    0.4433 H       1  UNL1        0.1552
     46 H           5.4108   -5.1400   -0.0544 H       1  UNL1        0.0831
     47 H           3.0687   -4.6323   -0.3381 H       1  UNL1        0.0654
     48 H           2.1437   -0.1001    0.7005 H       1  UNL1        0.0814
     49 H          -0.3541    0.0794    0.0540 H       1  UNL1        0.1654
     50 H          -2.1862   -0.3249   -0.7582 H       1  UNL1        0.1549
     51 H          -4.9121    0.1878   -2.4406 H       1  UNL1        0.0556
     52 H          -6.0067   -1.4673   -0.0990 H       1  UNL1        0.0249
     53 H          -6.9124   -0.3478   -1.2584 H       1  UNL1        0.0249
     54 H          -6.1362   -1.8323   -1.8246 H       1  UNL1        0.0249
     55 H          -3.7274   -0.7715    0.9931 H       1  UNL1        0.0439
     56 H          -3.0348    0.8522    1.1297 H       1  UNL1        0.0439
     57 H          -5.8602   -0.0447    1.8269 H       1  UNL1        0.0439
     58 H          -4.5590    0.6821    2.7839 H       1  UNL1        0.0439
     59 H          -7.1450    3.1759    2.1459 H       1  UNL1        0.0391
     60 H          -6.7282    1.7904    3.2847 H       1  UNL1        0.0391
     61 H          -7.5205    1.4135    1.7363 H       1  UNL1        0.0391
     62 H          -5.7612    3.4883    0.1437 H       1  UNL1        0.0442
     63 H          -6.6888    2.0067   -0.1656 H       1  UNL1        0.0442
     64 H          -5.0979    1.9785   -1.7851 H       1  UNL1        0.0473
     65 H          -3.7706    3.7689   -1.4633 H       1  UNL1        0.0245
     66 H          -3.1712    3.2833    0.1793 H       1  UNL1        0.0245
     67 H          -2.6155    2.4316   -1.2737 H       1  UNL1        0.0245
     68 H          -2.4154   -3.6367   -2.5831 H       1  UNL1        0.0637
     69 H          -0.5296   -5.1152   -2.8175 H       1  UNL1        0.0618
     70 H           1.6107   -4.4797   -1.8480 H       1  UNL1        0.0624
@<TRIPOS>BOND
     1     1     2    1
     2     2     3    1
     3     3     4   ar
     4     4     5   ar
     5     5     6    1
     6     5     7   ar
     7     7     8   ar
     8     8     9    1
     9     9    10    1
    10    10    11   ar
    11    11    12   ar
    12    12    13   ar
    13    13    14   ar
    14    14    15    1
    15    15    16   ar
    16    16    17   ar
    17    17    18   ar
    18    18    19   ar
    19    19    20    1
    20    20    21   am
    21    21    22    2
    22    21    23    1
    23    23    24    1
    24    23    25    1
    25    25    26    1
    26    26    27    1
    27    27    28    1
    28    28    29    1
    29    28    30    1
    30    30    31    1
    31    31    32    1
    32    19    33   ar
    33    33    34   ar
    34    34    35   ar
    35    35    36   ar
    36    14    37   ar
    37     8     3   ar
    38    37    10   ar
    39    36    15   ar
    40    36    18   ar
    41    31    25    1
    42     1    38    1
    43     1    39    1
    44     1    40    1
    45     6    41    1
    46     6    42    1
    47     6    43    1
    48     7    44    1
    49     9    45    1
    50    12    46    1
    51    13    47    1
    52    16    48    1
    53    17    49    1
    54    20    50    1
    55    23    51    1
    56    24    52    1
    57    24    53    1
    58    24    54    1
    59    26    55    1
    60    26    56    1
    61    27    57    1
    62    27    58    1
    63    29    59    1
    64    29    60    1
    65    29    61    1
    66    30    62    1
    67    30    63    1
    68    31    64    1
    69    32    65    1
    70    32    66    1
    71    32    67    1
    72    33    68    1
    73    34    69    1
    74    35    70    1
