@<TRIPOS>MOLECULE
*****
 18 18 0 0 0
SMALL
GASTEIGER

@<TRIPOS>ATOM
      1 O          -2.8676   -1.1772    0.5459 O.3     1  UNL1       -0.4770
      2 C          -1.5394   -1.3966    0.2499 C.2     1  UNL1        0.3434
      3 O          -1.4917   -2.6479    0.2527 O.2     1  UNL1       -0.2449
      4 C          -0.4035   -0.5226   -0.0147 C.ar    1  UNL1        0.1366
      5 C           0.7863   -1.1675   -0.2742 C.ar    1  UNL1       -0.0280
      6 C           1.8815   -0.3621   -0.5292 C.ar    1  UNL1        0.0059
      7 S           3.4566   -1.1763   -0.8732 S.3     1  UNL1       -0.1426
      8 C           1.8014    1.0072   -0.5269 C.ar    1  UNL1       -0.0421
      9 C           0.6125    1.6701   -0.2679 C.ar    1  UNL1        0.0175
     10 C          -0.4623    0.8527   -0.0174 C.ar    1  UNL1        0.2871
     11 N          -1.6921    1.4936    0.2521 N.pl3   1  UNL1        0.0805
     12 O          -2.2043    2.6849   -0.2084 O.co2   1  UNL1       -0.5760
     13 O          -2.7654    1.4275    0.8777 O.2     1  UNL1        0.0415
     14 H          -3.3040   -1.3349    1.4515 H       1  UNL1        0.2954
     15 H           0.8902   -2.2324   -0.2862 H       1  UNL1        0.0639
     16 H           4.1058   -1.4616    0.3586 H       1  UNL1        0.1071
     17 H           2.6796    1.6048   -0.7312 H       1  UNL1        0.0631
     18 H           0.5163    2.7383   -0.2590 H       1  UNL1        0.0686
@<TRIPOS>UNITY_ATOM_ATTR
11 1
charge 1
12 1
charge -1
@<TRIPOS>BOND
     1     1     2    1
     2     2     3    2
     3     2     4    1
     4     4     5   ar
     5     5     6   ar
     6     6     7    1
     7     6     8   ar
     8     8     9   ar
     9     9    10   ar
    10    10    11    1
    11    11    12    1
    12    11    13    2
    13    10     4   ar
    14     1    14    1
    15     5    15    1
    16     7    16    1
    17     8    17    1
    18     9    18    1
