
     RDKit          3D

 18 18  0  0  0  0  0  0  0  0999 V2000
   -2.8676   -1.1772    0.5459 O   0  0  0  0  0  0  0  0  0  0  0  0
   -1.5394   -1.3966    0.2499 C   0  0  0  0  0  0  0  0  0  0  0  0
   -1.4917   -2.6479    0.2527 O   0  0  0  0  0  0  0  0  0  0  0  0
   -0.4035   -0.5226   -0.0147 C   0  0  0  0  0  0  0  0  0  0  0  0
    0.7863   -1.1675   -0.2742 C   0  0  0  0  0  0  0  0  0  0  0  0
    1.8815   -0.3621   -0.5292 C   0  0  0  0  0  0  0  0  0  0  0  0
    3.4566   -1.1763   -0.8732 S   0  0  0  0  0  0  0  0  0  0  0  0
    1.8014    1.0072   -0.5269 C   0  0  0  0  0  0  0  0  0  0  0  0
    0.6125    1.6701   -0.2679 C   0  0  0  0  0  0  0  0  0  0  0  0
   -0.4623    0.8527   -0.0174 C   0  0  0  0  0  0  0  0  0  0  0  0
   -1.6921    1.4936    0.2521 N   0  0  0  0  0  4  0  0  0  0  0  0
   -2.2043    2.6849   -0.2084 O   0  0  0  0  0  1  0  0  0  0  0  0
   -2.7654    1.4275    0.8777 O   0  0  0  0  0  0  0  0  0  0  0  0
   -3.3040   -1.3349    1.4515 H   0  0  0  0  0  0  0  0  0  0  0  0
    0.8902   -2.2324   -0.2862 H   0  0  0  0  0  0  0  0  0  0  0  0
    4.1058   -1.4616    0.3586 H   0  0  0  0  0  0  0  0  0  0  0  0
    2.6796    1.6048   -0.7312 H   0  0  0  0  0  0  0  0  0  0  0  0
    0.5163    2.7383   -0.2590 H   0  0  0  0  0  0  0  0  0  0  0  0
  1  2  1  0
  2  3  2  0
  2  4  1  0
  4  5  2  0
  5  6  1  0
  6  7  1  0
  6  8  2  0
  8  9  1  0
  9 10  2  0
 10 11  1  0
 11 12  1  0
 11 13  2  0
 10  4  1  0
  1 14  1  0
  5 15  1  0
  7 16  1  0
  8 17  1  0
  9 18  1  0
M  CHG  2  11   1  12  -1
M  END
$$$$
