@<TRIPOS>MOLECULE
*****
 28 30 0 0 0
SMALL
GASTEIGER

@<TRIPOS>ATOM
      1 N           2.6866    0.1439   -0.1491 N.3     1  UNL1       -0.3246
      2 C           1.2826    0.1083   -0.1053 C.3     1  UNL1        0.0172
      3 C           0.7845   -1.2642   -0.5424 C.3     1  UNL1       -0.0320
      4 C          -0.7006   -1.3674   -0.3392 C.3     1  UNL1       -0.0389
      5 C          -1.1463   -1.0756    1.0622 C.3     1  UNL1       -0.0472
      6 C          -0.6256    0.2923    1.4848 C.3     1  UNL1       -0.0389
      7 C          -1.2908    1.2875    0.5673 C.3     1  UNL1       -0.0472
      8 C          -0.8913    1.0141   -0.8527 C.3     1  UNL1       -0.0389
      9 C          -1.3462   -0.3566   -1.2663 C.3     1  UNL1       -0.0472
     10 C           0.6047    1.1040   -1.0052 C.3     1  UNL1       -0.0320
     11 C           0.8660    0.2625    1.3488 C.3     1  UNL1       -0.0320
     12 H           3.2119   -0.7245   -0.2275 H       1  UNL1        0.1187
     13 H           3.1773    1.0303   -0.1990 H       1  UNL1        0.1187
     14 H           0.9468   -1.2738   -1.6512 H       1  UNL1        0.0286
     15 H           1.3606   -2.0657   -0.0644 H       1  UNL1        0.0286
     16 H          -1.0477   -2.3493   -0.6686 H       1  UNL1        0.0302
     17 H          -2.2590   -0.9525    1.0216 H       1  UNL1        0.0271
     18 H          -0.8518   -1.8430    1.7878 H       1  UNL1        0.0271
     19 H          -0.8608    0.4826    2.5433 H       1  UNL1        0.0302
     20 H          -2.3930    1.1182    0.6640 H       1  UNL1        0.0271
     21 H          -1.1154    2.3328    0.8545 H       1  UNL1        0.0271
     22 H          -1.3701    1.7764   -1.5128 H       1  UNL1        0.0302
     23 H          -2.4477   -0.4242   -1.2280 H       1  UNL1        0.0271
     24 H          -0.9398   -0.5908   -2.2882 H       1  UNL1        0.0271
     25 H           0.9566    2.1375   -0.8736 H       1  UNL1        0.0286
     26 H           0.8240    0.7723   -2.0514 H       1  UNL1        0.0286
     27 H           1.2027   -0.6821    1.8488 H       1  UNL1        0.0286
     28 H           1.3817    1.1066    1.8418 H       1  UNL1        0.0286
@<TRIPOS>BOND
     1     1     2    1
     2     2     3    1
     3     3     4    1
     4     4     5    1
     5     5     6    1
     6     6     7    1
     7     7     8    1
     8     8     9    1
     9     8    10    1
    10     6    11    1
    11    10     2    1
    12    11     2    1
    13     9     4    1
    14     1    12    1
    15     1    13    1
    16     3    14    1
    17     3    15    1
    18     4    16    1
    19     5    17    1
    20     5    18    1
    21     6    19    1
    22     7    20    1
    23     7    21    1
    24     8    22    1
    25     9    23    1
    26     9    24    1
    27    10    25    1
    28    10    26    1
    29    11    27    1
    30    11    28    1
