
     RDKit          3D

 56 61  0  0  0  0  0  0  0  0999 V2000
   -7.7832   -2.2061   -1.2266 C   0  0  0  0  0  0  0  0  0  0  0  0
   -7.5470   -1.0896   -2.1899 C   0  0  0  0  0  0  0  0  0  0  0  0
   -6.1802   -0.8034   -2.3922 O   0  0  0  0  0  0  0  0  0  0  0  0
   -5.3226   -0.4129   -1.3831 C   0  0  0  0  0  0  0  0  0  0  0  0
   -5.7967   -0.3112   -0.2310 O   0  0  0  0  0  0  0  0  0  0  0  0
   -3.9182   -0.1200   -1.5976 C   0  0  0  0  0  0  0  0  0  0  0  0
   -3.2094   -0.1645   -2.7416 N   0  0  0  0  0  0  0  0  0  0  0  0
   -1.9355    0.1801   -2.5110 C   0  0  0  0  0  0  0  0  0  0  0  0
   -1.7784    0.4682   -1.1598 C   0  0  0  0  0  0  0  0  0  0  0  0
   -3.0245    0.2734   -0.6192 C   0  0  0  0  0  0  0  0  0  0  0  0
   -3.1978    0.4933    0.7858 N   0  0  0  0  0  0  0  0  0  0  0  0
   -2.1387    0.9007    1.6286 C   0  0  0  0  0  0  0  0  0  0  0  0
   -0.9465    1.0859    1.1046 C   0  0  0  0  0  0  0  0  0  0  0  0
    0.1412    1.5083    1.9913 C   0  0  0  0  0  0  0  0  0  0  0  0
    1.1828    1.9592    1.4994 O   0  0  0  0  0  0  0  0  0  0  0  0
   -0.0310    1.3863    3.4405 C   0  0  0  0  0  0  0  0  0  0  0  0
   -1.4062    1.9446    3.7764 C   0  0  0  0  0  0  0  0  0  0  0  0
   -2.4340    1.1019    3.0908 C   0  0  0  0  0  0  0  0  0  0  0  0
   -0.6462    0.8903   -0.3311 C   0  0  0  0  0  0  0  0  0  0  0  0
    0.4121   -0.1832   -0.4030 C   0  0  0  0  0  0  0  0  0  0  0  0
    0.5074   -1.2490    0.4445 C   0  0  0  0  0  0  0  0  0  0  0  0
    1.6094   -1.9957    0.0427 C   0  0  0  0  0  0  0  0  0  0  0  0
    2.1241   -1.3267   -1.0420 C   0  0  0  0  0  0  0  0  0  0  0  0
    3.5598   -1.7772   -2.0260 S   0  0  0  0  0  0  0  0  0  0  0  0
    5.0065   -0.9947   -1.2834 C   0  0  0  0  0  0  0  0  0  0  0  0
    5.4321    0.2293   -1.6309 N   0  0  0  0  0  0  0  0  0  0  0  0
    6.5269    0.4724   -0.8702 C   0  0  0  0  0  0  0  0  0  0  0  0
    7.3756    1.5552   -0.7897 C   0  0  0  0  0  0  0  0  0  0  0  0
    7.1803    2.6522   -1.5748 F   0  0  0  0  0  0  0  0  0  0  0  0
    8.4514    1.5893    0.0743 C   0  0  0  0  0  0  0  0  0  0  0  0
    9.2685    2.6671    0.1317 F   0  0  0  0  0  0  0  0  0  0  0  0
    8.6489    0.4780    0.8693 C   0  0  0  0  0  0  0  0  0  0  0  0
    9.6788    0.4487    1.7318 F   0  0  0  0  0  0  0  0  0  0  0  0
    7.8073   -0.6142    0.8001 C   0  0  0  0  0  0  0  0  0  0  0  0
    6.7417   -0.6254   -0.0687 C   0  0  0  0  0  0  0  0  0  0  0  0
    5.7888   -1.5327   -0.3346 N   0  0  0  0  0  0  0  0  0  0  0  0
    1.3790   -0.2721   -1.2546 O   0  0  0  0  0  0  0  0  0  0  0  0
   -6.8401   -2.7090   -0.9203 H   0  0  0  0  0  0  0  0  0  0  0  0
   -8.4942   -2.9786   -1.5986 H   0  0  0  0  0  0  0  0  0  0  0  0
   -8.2221   -1.7855   -0.3020 H   0  0  0  0  0  0  0  0  0  0  0  0
   -7.9387   -1.4332   -3.1900 H   0  0  0  0  0  0  0  0  0  0  0  0
   -8.1443   -0.2159   -1.9189 H   0  0  0  0  0  0  0  0  0  0  0  0
   -3.6362   -0.4352   -3.6545 H   0  0  0  0  0  0  0  0  0  0  0  0
   -1.1257    0.2363   -3.2416 H   0  0  0  0  0  0  0  0  0  0  0  0
   -4.1379    0.3523    1.2257 H   0  0  0  0  0  0  0  0  0  0  0  0
   -0.0394    0.3308    3.7808 H   0  0  0  0  0  0  0  0  0  0  0  0
    0.6939    1.9936    4.0082 H   0  0  0  0  0  0  0  0  0  0  0  0
   -1.5315    1.8542    4.8546 H   0  0  0  0  0  0  0  0  0  0  0  0
   -1.5102    2.9907    3.4602 H   0  0  0  0  0  0  0  0  0  0  0  0
   -3.4235    1.6312    3.2184 H   0  0  0  0  0  0  0  0  0  0  0  0
   -2.5764    0.1087    3.5830 H   0  0  0  0  0  0  0  0  0  0  0  0
   -0.1382    1.8032   -0.7231 H   0  0  0  0  0  0  0  0  0  0  0  0
   -0.1357   -1.4930    1.2783 H   0  0  0  0  0  0  0  0  0  0  0  0
    1.9980   -2.9085    0.4732 H   0  0  0  0  0  0  0  0  0  0  0  0
    7.9822   -1.4808    1.4372 H   0  0  0  0  0  0  0  0  0  0  0  0
    5.6933   -2.4671    0.1191 H   0  0  0  0  0  0  0  0  0  0  0  0
  1  2  1  0
  2  3  1  0
  3  4  1  0
  4  5  2  0
  4  6  1  0
  6  7  1  0
  7  8  1  0
  8  9  2  0
  9 10  1  0
 10 11  1  0
 11 12  1  0
 12 13  2  0
 13 14  1  0
 14 15  2  0
 14 16  1  0
 16 17  1  0
 17 18  1  0
 13 19  1  0
 19 20  1  0
 20 21  2  0
 21 22  1  0
 22 23  2  0
 23 24  1  0
 24 25  1  0
 25 26  2  0
 26 27  1  0
 27 28  2  0
 28 29  1  0
 28 30  1  0
 30 31  1  0
 30 32  2  0
 32 33  1  0
 32 34  1  0
 34 35  2  0
 35 36  1  0
 23 37  1  0
 10  6  2  0
 18 12  1  0
 37 20  1  0
 19  9  1  0
 36 25  1  0
 35 27  1  0
  1 38  1  0
  1 39  1  0
  1 40  1  0
  2 41  1  0
  2 42  1  0
  7 43  1  0
  8 44  1  0
 11 45  1  0
 16 46  1  0
 16 47  1  0
 17 48  1  0
 17 49  1  0
 18 50  1  0
 18 51  1  0
 19 52  1  0
 21 53  1  0
 22 54  1  0
 34 55  1  0
 36 56  1  0
M  END
$$$$
