@<TRIPOS>MOLECULE
*****
 56 61 0 0 0
SMALL
GASTEIGER

@<TRIPOS>ATOM
      1 C          -7.7832   -2.2061   -1.2266 C.3     1  UNL1       -0.0306
      2 C          -7.5470   -1.0896   -2.1899 C.3     1  UNL1        0.0900
      3 O          -6.1802   -0.8034   -2.3922 O.3     1  UNL1       -0.4604
      4 C          -5.3226   -0.4129   -1.3831 C.2     1  UNL1        0.3575
      5 O          -5.7967   -0.3112   -0.2310 O.2     1  UNL1       -0.2432
      6 C          -3.9182   -0.1200   -1.5976 C.ar    1  UNL1        0.1461
      7 N          -3.2094   -0.1645   -2.7416 N.ar    1  UNL1       -0.3538
      8 C          -1.9355    0.1801   -2.5110 C.ar    1  UNL1        0.0084
      9 C          -1.7784    0.4682   -1.1598 C.ar    1  UNL1        0.0068
     10 C          -3.0245    0.2734   -0.6192 C.ar    1  UNL1        0.0674
     11 N          -3.1978    0.4933    0.7858 N.pl3   1  UNL1       -0.3154
     12 C          -2.1387    0.9007    1.6286 C.2     1  UNL1        0.0157
     13 C          -0.9465    1.0859    1.1046 C.2     1  UNL1        0.0268
     14 C           0.1412    1.5083    1.9913 C.2     1  UNL1        0.1617
     15 O           1.1828    1.9592    1.4994 O.2     1  UNL1       -0.2923
     16 C          -0.0310    1.3863    3.4405 C.3     1  UNL1        0.0106
     17 C          -1.4062    1.9446    3.7764 C.3     1  UNL1       -0.0409
     18 C          -2.4340    1.1019    3.0908 C.3     1  UNL1       -0.0137
     19 C          -0.6462    0.8903   -0.3311 C.3     1  UNL1        0.0750
     20 C           0.4121   -0.1832   -0.4030 C.ar    1  UNL1        0.1184
     21 C           0.5074   -1.2490    0.4445 C.ar    1  UNL1       -0.0186
     22 C           1.6094   -1.9957    0.0427 C.ar    1  UNL1       -0.0091
     23 C           2.1241   -1.3267   -1.0420 C.ar    1  UNL1        0.1689
     24 S           3.5598   -1.7772   -2.0260 S.3     1  UNL1       -0.0142
     25 C           5.0065   -0.9947   -1.2834 C.ar    1  UNL1        0.1749
     26 N           5.4321    0.2293   -1.6309 N.ar    1  UNL1       -0.2186
     27 C           6.5269    0.4724   -0.8702 C.ar    1  UNL1        0.1280
     28 C           7.3756    1.5552   -0.7897 C.ar    1  UNL1        0.1885
     29 F           7.1803    2.6522   -1.5748 F       1  UNL1       -0.2001
     30 C           8.4514    1.5893    0.0743 C.ar    1  UNL1        0.1956
     31 F           9.2685    2.6671    0.1317 F       1  UNL1       -0.1994
     32 C           8.6489    0.4780    0.8693 C.ar    1  UNL1        0.1633
     33 F           9.6788    0.4487    1.7318 F       1  UNL1       -0.2023
     34 C           7.8073   -0.6142    0.8001 C.ar    1  UNL1        0.0021
     35 C           6.7417   -0.6254   -0.0687 C.ar    1  UNL1        0.0726
     36 N           5.7888   -1.5327   -0.3346 N.ar    1  UNL1       -0.3324
     37 O           1.3790   -0.2721   -1.2546 O.2     1  UNL1       -0.4522
     38 H          -6.8401   -2.7090   -0.9203 H       1  UNL1        0.0262
     39 H          -8.4942   -2.9786   -1.5986 H       1  UNL1        0.0262
     40 H          -8.2221   -1.7855   -0.3020 H       1  UNL1        0.0262
     41 H          -7.9387   -1.4332   -3.1900 H       1  UNL1        0.0695
     42 H          -8.1443   -0.2159   -1.9189 H       1  UNL1        0.0695
     43 H          -3.6362   -0.4352   -3.6545 H       1  UNL1        0.1656
     44 H          -1.1257    0.2363   -3.2416 H       1  UNL1        0.0810
     45 H          -4.1379    0.3523    1.2257 H       1  UNL1        0.1519
     46 H          -0.0394    0.3308    3.7808 H       1  UNL1        0.0345
     47 H           0.6939    1.9936    4.0082 H       1  UNL1        0.0345
     48 H          -1.5315    1.8542    4.8546 H       1  UNL1        0.0273
     49 H          -1.5102    2.9907    3.4602 H       1  UNL1        0.0273
     50 H          -3.4235    1.6312    3.2184 H       1  UNL1        0.0326
     51 H          -2.5764    0.1087    3.5830 H       1  UNL1        0.0326
     52 H          -0.1382    1.8032   -0.7231 H       1  UNL1        0.0479
     53 H          -0.1357   -1.4930    1.2783 H       1  UNL1        0.0652
     54 H           1.9980   -2.9085    0.4732 H       1  UNL1        0.0661
     55 H           7.9822   -1.4808    1.4372 H       1  UNL1        0.0668
     56 H           5.6933   -2.4671    0.1191 H       1  UNL1        0.1679
@<TRIPOS>BOND
     1     1     2    1
     2     2     3    1
     3     3     4    1
     4     4     5    2
     5     4     6    1
     6     6     7   ar
     7     7     8   ar
     8     8     9   ar
     9     9    10   ar
    10    10    11    1
    11    11    12    1
    12    12    13    2
    13    13    14    1
    14    14    15    2
    15    14    16    1
    16    16    17    1
    17    17    18    1
    18    13    19    1
    19    19    20    1
    20    20    21   ar
    21    21    22   ar
    22    22    23   ar
    23    23    24    1
    24    24    25    1
    25    25    26   ar
    26    26    27   ar
    27    27    28   ar
    28    28    29    1
    29    28    30   ar
    30    30    31    1
    31    30    32   ar
    32    32    33    1
    33    32    34   ar
    34    34    35   ar
    35    35    36   ar
    36    23    37   ar
    37    10     6   ar
    38    18    12    1
    39    37    20   ar
    40    19     9    1
    41    36    25   ar
    42    35    27   ar
    43     1    38    1
    44     1    39    1
    45     1    40    1
    46     2    41    1
    47     2    42    1
    48     7    43    1
    49     8    44    1
    50    11    45    1
    51    16    46    1
    52    16    47    1
    53    17    48    1
    54    17    49    1
    55    18    50    1
    56    18    51    1
    57    19    52    1
    58    21    53    1
    59    22    54    1
    60    34    55    1
    61    36    56    1
