@<TRIPOS>MOLECULE
*****
 34 35 0 0 0
SMALL
GASTEIGER

@<TRIPOS>ATOM
      1 C          -1.9382   -0.9299    1.7394 C.3     1  UNL1        0.0122
      2 N          -1.4952   -0.5052    0.4311 N.ar    1  UNL1       -0.3436
      3 C          -2.3795   -0.1820   -0.5338 C.ar    1  UNL1        0.0299
      4 C          -3.8754   -0.2047   -0.4278 C.3     1  UNL1        0.0851
      5 C          -4.3909    1.1249    0.0470 C.2     1  UNL1        0.3105
      6 O          -5.7796    1.1812    0.1719 O.3     1  UNL1       -0.4804
      7 O          -3.6032    2.0739    0.2975 O.2     1  UNL1       -0.2506
      8 C          -1.7581    0.1973   -1.7035 C.ar    1  UNL1       -0.0368
      9 C          -0.4163    0.0866   -1.3975 C.ar    1  UNL1       -0.0215
     10 C           0.6770    0.3705   -2.3577 C.3     1  UNL1       -0.0376
     11 C          -0.2715   -0.3453   -0.0820 C.ar    1  UNL1        0.0926
     12 C           0.8869   -0.6367    0.7011 C.2     1  UNL1        0.2096
     13 O           0.7258   -1.3200    1.7723 O.2     1  UNL1       -0.2851
     14 C           2.3039   -0.3412    0.5964 C.ar    1  UNL1        0.0238
     15 C           3.2517   -1.2053    1.0575 C.ar    1  UNL1       -0.0495
     16 C           4.6237   -0.9282    0.9863 C.ar    1  UNL1       -0.0427
     17 C           5.0757    0.2416    0.4417 C.ar    1  UNL1        0.0410
     18 CL          6.8122    0.4608    0.4146 Cl      1  UNL1       -0.0835
     19 C           4.1575    1.1397   -0.0338 C.ar    1  UNL1       -0.0427
     20 C           2.8205    0.8172    0.0613 C.ar    1  UNL1       -0.0495
     21 H          -2.9759   -0.5642    1.9597 H       1  UNL1        0.0456
     22 H          -1.3243   -0.5580    2.5714 H       1  UNL1        0.0456
     23 H          -1.9878   -2.0341    1.8316 H       1  UNL1        0.0456
     24 H          -4.3350   -0.3883   -1.3966 H       1  UNL1        0.0441
     25 H          -4.1723   -1.0216    0.2576 H       1  UNL1        0.0441
     26 H          -6.1629    1.9723    0.7046 H       1  UNL1        0.2951
     27 H          -2.1902    0.5093   -2.6437 H       1  UNL1        0.0638
     28 H           0.2703    0.1360   -3.3857 H       1  UNL1        0.0278
     29 H           0.9936    1.4173   -2.3969 H       1  UNL1        0.0278
     30 H           1.4929   -0.3672   -2.2120 H       1  UNL1        0.0278
     31 H           2.9544   -2.1573    1.5039 H       1  UNL1        0.0625
     32 H           5.3025   -1.6808    1.3809 H       1  UNL1        0.0632
     33 H           4.5298    2.0489   -0.4565 H       1  UNL1        0.0632
     34 H           2.1776    1.5925   -0.3225 H       1  UNL1        0.0625
@<TRIPOS>BOND
     1     1     2    1
     2     2     3   ar
     3     3     4    1
     4     4     5    1
     5     5     6    1
     6     5     7    2
     7     3     8   ar
     8     8     9   ar
     9     9    10    1
    10     9    11   ar
    11    11    12    1
    12    12    13    2
    13    12    14    1
    14    14    15   ar
    15    15    16   ar
    16    16    17   ar
    17    17    18    1
    18    17    19   ar
    19    19    20   ar
    20    11     2   ar
    21    20    14   ar
    22     1    21    1
    23     1    22    1
    24     1    23    1
    25     4    24    1
    26     4    25    1
    27     6    26    1
    28     8    27    1
    29    10    28    1
    30    10    29    1
    31    10    30    1
    32    15    31    1
    33    16    32    1
    34    19    33    1
    35    20    34    1
