@<TRIPOS>MOLECULE
*****
 53 55 0 0 0
SMALL
GASTEIGER

@<TRIPOS>ATOM
      1 C           9.9841    1.7690    0.7742 C.2     1  UNL1       -0.0938
      2 C           9.2479    1.0263   -0.0189 C.2     1  UNL1       -0.0066
      3 C           7.8696    0.7494    0.3509 C.2     1  UNL1        0.2405
      4 O           7.4116    1.2155    1.4040 O.2     1  UNL1       -0.2705
      5 N           7.0676   -0.0443   -0.4882 N.am    1  UNL1       -0.2820
      6 C           5.7161   -0.4040   -0.2734 C.ar    1  UNL1        0.0338
      7 C           4.9510   -0.0330    0.8049 C.ar    1  UNL1       -0.0386
      8 C           3.6135   -0.4309    0.9440 C.ar    1  UNL1       -0.0336
      9 C           3.0269   -1.2153   -0.0125 C.ar    1  UNL1        0.1056
     10 S           1.3516   -1.6822    0.2003 S.O2    1  UNL1        0.0609
     11 O           1.0477   -1.8273    1.6586 O.2     1  UNL1       -0.1528
     12 O           1.1645   -3.0138   -0.4523 O.2     1  UNL1       -0.1528
     13 N           0.3679   -0.5329   -0.5743 N.3     1  UNL1       -0.1736
     14 C           0.4465    0.7944   -0.0935 C.3     1  UNL1        0.0364
     15 C          -0.7041    1.2256    0.7721 C.3     1  UNL1        0.0323
     16 N          -1.9221    0.5417    0.4976 N.am    1  UNL1       -0.2649
     17 C          -3.1915    1.1742    0.5409 C.2     1  UNL1        0.4033
     18 O          -3.2104    2.4045    0.8413 O.2     1  UNL1       -0.2262
     19 O          -4.3698    0.4939    0.2699 O.3     1  UNL1       -0.4454
     20 C          -5.5651    1.2540    0.3505 C.3     1  UNL1        0.1205
     21 C          -6.7613    0.4612    0.0495 C.ar    1  UNL1        0.0081
     22 C          -7.3809    0.6003   -1.1743 C.ar    1  UNL1       -0.0540
     23 C          -8.4931   -0.0928   -1.5417 C.ar    1  UNL1       -0.0613
     24 C          -9.0522   -0.9930   -0.6559 C.ar    1  UNL1       -0.0604
     25 C          -8.4637   -1.1675    0.5884 C.ar    1  UNL1       -0.0430
     26 C          -7.3289   -0.4420    0.9279 C.ar    1  UNL1        0.0474
     27 CL         -6.5511   -0.6279    2.4870 Cl      1  UNL1       -0.0831
     28 C          -1.8748   -0.8652    0.1561 C.3     1  UNL1        0.0323
     29 C          -0.9075   -0.9943   -1.0025 C.3     1  UNL1        0.0364
     30 C           3.7580   -1.6009   -1.0946 C.ar    1  UNL1       -0.0336
     31 C           5.0669   -1.2043   -1.2186 C.ar    1  UNL1       -0.0386
     32 H           9.6129    2.1872    1.6944 H       1  UNL1        0.0536
     33 H          11.0058    1.9781    0.5067 H       1  UNL1        0.0536
     34 H           9.6749    0.6358   -0.9272 H       1  UNL1        0.0663
     35 H           7.5230   -0.4188   -1.3867 H       1  UNL1        0.1551
     36 H           5.3587    0.5768    1.5773 H       1  UNL1        0.0637
     37 H           3.0751   -0.0889    1.8418 H       1  UNL1        0.0638
     38 H           1.3773    0.9169    0.4955 H       1  UNL1        0.0459
     39 H           0.5761    1.4739   -0.9837 H       1  UNL1        0.0459
     40 H          -0.4854    1.1328    1.8638 H       1  UNL1        0.0479
     41 H          -0.8338    2.3334    0.6025 H       1  UNL1        0.0479
     42 H          -5.4885    2.0942   -0.3558 H       1  UNL1        0.0750
     43 H          -5.6115    1.6126    1.4188 H       1  UNL1        0.0750
     44 H          -6.9524    1.3071   -1.8864 H       1  UNL1        0.0622
     45 H          -8.9799    0.0166   -2.5037 H       1  UNL1        0.0618
     46 H          -9.9346   -1.5592   -0.9150 H       1  UNL1        0.0618
     47 H          -8.8880   -1.8707    1.2997 H       1  UNL1        0.0632
     48 H          -1.3814   -1.3713    1.0231 H       1  UNL1        0.0479
     49 H          -2.8629   -1.2919   -0.0717 H       1  UNL1        0.0479
     50 H          -0.8021   -2.0704   -1.2802 H       1  UNL1        0.0459
     51 H          -1.2223   -0.3850   -1.8755 H       1  UNL1        0.0459
     52 H           3.2808   -2.2336   -1.8632 H       1  UNL1        0.0638
     53 H           5.6435   -1.5139   -2.0815 H       1  UNL1        0.0637
@<TRIPOS>BOND
     1     1     2    2
     2     2     3    1
     3     3     4    2
     4     3     5   am
     5     5     6    1
     6     6     7   ar
     7     7     8   ar
     8     8     9   ar
     9     9    10    1
    10    10    11    2
    11    10    12    2
    12    10    13    1
    13    13    14    1
    14    14    15    1
    15    15    16    1
    16    16    17   am
    17    17    18    2
    18    17    19    1
    19    19    20    1
    20    20    21    1
    21    21    22   ar
    22    22    23   ar
    23    23    24   ar
    24    24    25   ar
    25    25    26   ar
    26    26    27    1
    27    16    28    1
    28    28    29    1
    29     9    30   ar
    30    30    31   ar
    31    31     6   ar
    32    29    13    1
    33    26    21   ar
    34     1    32    1
    35     1    33    1
    36     2    34    1
    37     5    35    1
    38     7    36    1
    39     8    37    1
    40    14    38    1
    41    14    39    1
    42    15    40    1
    43    15    41    1
    44    20    42    1
    45    20    43    1
    46    22    44    1
    47    23    45    1
    48    24    46    1
    49    25    47    1
    50    28    48    1
    51    28    49    1
    52    29    50    1
    53    29    51    1
    54    30    52    1
    55    31    53    1
