
     RDKit          3D

 53 55  0  0  0  0  0  0  0  0999 V2000
    9.9841    1.7690    0.7742 C   0  0  0  0  0  0  0  0  0  0  0  0
    9.2479    1.0263   -0.0189 C   0  0  0  0  0  0  0  0  0  0  0  0
    7.8696    0.7494    0.3509 C   0  0  0  0  0  0  0  0  0  0  0  0
    7.4116    1.2155    1.4040 O   0  0  0  0  0  0  0  0  0  0  0  0
    7.0676   -0.0443   -0.4882 N   0  0  0  0  0  0  0  0  0  0  0  0
    5.7161   -0.4040   -0.2734 C   0  0  0  0  0  0  0  0  0  0  0  0
    4.9510   -0.0330    0.8049 C   0  0  0  0  0  0  0  0  0  0  0  0
    3.6135   -0.4309    0.9440 C   0  0  0  0  0  0  0  0  0  0  0  0
    3.0269   -1.2153   -0.0125 C   0  0  0  0  0  0  0  0  0  0  0  0
    1.3516   -1.6822    0.2003 S   0  0  0  0  0  6  0  0  0  0  0  0
    1.0477   -1.8273    1.6586 O   0  0  0  0  0  0  0  0  0  0  0  0
    1.1645   -3.0138   -0.4523 O   0  0  0  0  0  0  0  0  0  0  0  0
    0.3679   -0.5329   -0.5743 N   0  0  0  0  0  0  0  0  0  0  0  0
    0.4465    0.7944   -0.0935 C   0  0  0  0  0  0  0  0  0  0  0  0
   -0.7041    1.2256    0.7721 C   0  0  0  0  0  0  0  0  0  0  0  0
   -1.9221    0.5417    0.4976 N   0  0  0  0  0  0  0  0  0  0  0  0
   -3.1915    1.1742    0.5409 C   0  0  0  0  0  0  0  0  0  0  0  0
   -3.2104    2.4045    0.8413 O   0  0  0  0  0  0  0  0  0  0  0  0
   -4.3698    0.4939    0.2699 O   0  0  0  0  0  0  0  0  0  0  0  0
   -5.5651    1.2540    0.3505 C   0  0  0  0  0  0  0  0  0  0  0  0
   -6.7613    0.4612    0.0495 C   0  0  0  0  0  0  0  0  0  0  0  0
   -7.3809    0.6003   -1.1743 C   0  0  0  0  0  0  0  0  0  0  0  0
   -8.4931   -0.0928   -1.5417 C   0  0  0  0  0  0  0  0  0  0  0  0
   -9.0522   -0.9930   -0.6559 C   0  0  0  0  0  0  0  0  0  0  0  0
   -8.4637   -1.1675    0.5884 C   0  0  0  0  0  0  0  0  0  0  0  0
   -7.3289   -0.4420    0.9279 C   0  0  0  0  0  0  0  0  0  0  0  0
   -6.5511   -0.6279    2.4870 Cl  0  0  0  0  0  0  0  0  0  0  0  0
   -1.8748   -0.8652    0.1561 C   0  0  0  0  0  0  0  0  0  0  0  0
   -0.9075   -0.9943   -1.0025 C   0  0  0  0  0  0  0  0  0  0  0  0
    3.7580   -1.6009   -1.0946 C   0  0  0  0  0  0  0  0  0  0  0  0
    5.0669   -1.2043   -1.2186 C   0  0  0  0  0  0  0  0  0  0  0  0
    9.6129    2.1872    1.6944 H   0  0  0  0  0  0  0  0  0  0  0  0
   11.0058    1.9781    0.5067 H   0  0  0  0  0  0  0  0  0  0  0  0
    9.6749    0.6358   -0.9272 H   0  0  0  0  0  0  0  0  0  0  0  0
    7.5230   -0.4188   -1.3867 H   0  0  0  0  0  0  0  0  0  0  0  0
    5.3587    0.5768    1.5773 H   0  0  0  0  0  0  0  0  0  0  0  0
    3.0751   -0.0889    1.8418 H   0  0  0  0  0  0  0  0  0  0  0  0
    1.3773    0.9169    0.4955 H   0  0  0  0  0  0  0  0  0  0  0  0
    0.5761    1.4739   -0.9837 H   0  0  0  0  0  0  0  0  0  0  0  0
   -0.4854    1.1328    1.8638 H   0  0  0  0  0  0  0  0  0  0  0  0
   -0.8338    2.3334    0.6025 H   0  0  0  0  0  0  0  0  0  0  0  0
   -5.4885    2.0942   -0.3558 H   0  0  0  0  0  0  0  0  0  0  0  0
   -5.6115    1.6126    1.4188 H   0  0  0  0  0  0  0  0  0  0  0  0
   -6.9524    1.3071   -1.8864 H   0  0  0  0  0  0  0  0  0  0  0  0
   -8.9799    0.0166   -2.5037 H   0  0  0  0  0  0  0  0  0  0  0  0
   -9.9346   -1.5592   -0.9150 H   0  0  0  0  0  0  0  0  0  0  0  0
   -8.8880   -1.8707    1.2997 H   0  0  0  0  0  0  0  0  0  0  0  0
   -1.3814   -1.3713    1.0231 H   0  0  0  0  0  0  0  0  0  0  0  0
   -2.8629   -1.2919   -0.0717 H   0  0  0  0  0  0  0  0  0  0  0  0
   -0.8021   -2.0704   -1.2802 H   0  0  0  0  0  0  0  0  0  0  0  0
   -1.2223   -0.3850   -1.8755 H   0  0  0  0  0  0  0  0  0  0  0  0
    3.2808   -2.2336   -1.8632 H   0  0  0  0  0  0  0  0  0  0  0  0
    5.6435   -1.5139   -2.0815 H   0  0  0  0  0  0  0  0  0  0  0  0
  1  2  2  3
  2  3  1  0
  3  4  2  0
  3  5  1  0
  5  6  1  0
  6  7  2  0
  7  8  1  0
  8  9  2  0
  9 10  1  0
 10 11  2  0
 10 12  2  0
 10 13  1  0
 13 14  1  0
 14 15  1  0
 15 16  1  0
 16 17  1  0
 17 18  2  0
 17 19  1  0
 19 20  1  0
 20 21  1  0
 21 22  2  0
 22 23  1  0
 23 24  2  0
 24 25  1  0
 25 26  2  0
 26 27  1  0
 16 28  1  0
 28 29  1  0
  9 30  1  0
 30 31  2  0
 31  6  1  0
 29 13  1  0
 26 21  1  0
  1 32  1  0
  1 33  1  0
  2 34  1  0
  5 35  1  0
  7 36  1  0
  8 37  1  0
 14 38  1  0
 14 39  1  0
 15 40  1  0
 15 41  1  0
 20 42  1  0
 20 43  1  0
 22 44  1  0
 23 45  1  0
 24 46  1  0
 25 47  1  0
 28 48  1  0
 28 49  1  0
 29 50  1  0
 29 51  1  0
 30 52  1  0
 31 53  1  0
M  END
$$$$
