@<TRIPOS>MOLECULE
*****
 33 36 0 0 0
SMALL
GASTEIGER

@<TRIPOS>ATOM
      1 O           0.3236   -0.2279    2.1344 O.3     1  UNL1       -0.3462
      2 C           0.0775   -0.1368    0.7534 C.3     1  UNL1        0.2563
      3 N          -0.9807   -1.0960    0.3992 N.pl3   1  UNL1       -0.1796
      4 C          -1.1175   -2.5240    0.3407 C.3     1  UNL1        0.1255
      5 C          -2.5377   -2.7053   -0.0920 C.3     1  UNL1        0.1678
      6 N          -3.0490   -1.3931   -0.2657 N.2     1  UNL1       -0.0788
      7 C          -2.1938   -0.5009    0.0043 C.2     1  UNL1        0.3181
      8 C          -1.9173    0.9439    0.0873 C.ar    1  UNL1        0.0753
      9 C          -2.7732    2.0086   -0.2020 C.ar    1  UNL1       -0.0464
     10 C          -2.3092    3.3024   -0.0646 C.ar    1  UNL1       -0.0609
     11 C          -1.0175    3.5493    0.3525 C.ar    1  UNL1       -0.0612
     12 C          -0.2214    2.4552    0.6228 C.ar    1  UNL1       -0.0508
     13 C          -0.6003    1.1453    0.5136 C.ar    1  UNL1        0.0454
     14 C           1.3203   -0.3363    0.0136 C.ar    1  UNL1        0.0307
     15 C           1.4242   -0.4702   -1.3370 C.ar    1  UNL1       -0.0503
     16 C           2.6462   -0.6565   -1.9716 C.ar    1  UNL1       -0.0429
     17 C           3.8208   -0.7173   -1.2840 C.ar    1  UNL1        0.0410
     18 CL          5.4152   -0.9445   -1.9429 Cl      1  UNL1       -0.0835
     19 C           3.7821   -0.5863    0.1092 C.ar    1  UNL1       -0.0429
     20 C           2.5365   -0.4019    0.6965 C.ar    1  UNL1       -0.0503
     21 H           0.6263    0.6754    2.4040 H       1  UNL1        0.2149
     22 H          -0.4185   -2.9430   -0.4517 H       1  UNL1        0.0768
     23 H          -0.8986   -3.0185    1.3130 H       1  UNL1        0.0768
     24 H          -2.6306   -3.3431   -1.0033 H       1  UNL1        0.0829
     25 H          -3.0696   -3.1675    0.7737 H       1  UNL1        0.0829
     26 H          -3.8005    1.7889   -0.5337 H       1  UNL1        0.0626
     27 H          -3.0156    4.1024   -0.3027 H       1  UNL1        0.0618
     28 H          -0.6925    4.5763    0.4471 H       1  UNL1        0.0618
     29 H           0.7917    2.7421    0.9490 H       1  UNL1        0.0623
     30 H           0.5352   -0.4320   -1.9385 H       1  UNL1        0.0623
     31 H           2.7754   -0.7673   -3.0384 H       1  UNL1        0.0632
     32 H           4.6617   -0.6219    0.7299 H       1  UNL1        0.0632
     33 H           2.5068   -0.2997    1.7838 H       1  UNL1        0.0623
@<TRIPOS>BOND
     1     1     2    1
     2     2     3    1
     3     3     4    1
     4     4     5    1
     5     5     6    1
     6     6     7    2
     7     7     8    1
     8     8     9   ar
     9     9    10   ar
    10    10    11   ar
    11    11    12   ar
    12    12    13   ar
    13     2    14    1
    14    14    15   ar
    15    15    16   ar
    16    16    17   ar
    17    17    18    1
    18    17    19   ar
    19    19    20   ar
    20    13     2    1
    21    20    14   ar
    22     7     3    1
    23    13     8   ar
    24     1    21    1
    25     4    22    1
    26     4    23    1
    27     5    24    1
    28     5    25    1
    29     9    26    1
    30    10    27    1
    31    11    28    1
    32    12    29    1
    33    15    30    1
    34    16    31    1
    35    19    32    1
    36    20    33    1
