
     RDKit          3D

 57 61  0  0  0  0  0  0  0  0999 V2000
   -1.5755   -2.8178    2.1317 C   0  0  0  0  0  0  0  0  0  0  0  0
   -1.1059   -1.4104    1.9594 C   0  0  2  0  0  0  0  0  0  0  0  0
   -1.8586   -0.6483    0.9100 C   0  0  0  0  0  0  0  0  0  0  0  0
   -1.3158    0.6910    0.8301 N   0  0  0  0  0  0  0  0  0  0  0  0
   -2.1947    1.8018    0.7240 C   0  0  0  0  0  0  0  0  0  0  0  0
   -1.7685    2.9742    0.6526 O   0  0  0  0  0  0  0  0  0  0  0  0
   -3.6321    1.5810    0.6967 C   0  0  0  0  0  0  0  0  0  0  0  0
   -4.3296    1.5652    1.8831 C   0  0  0  0  0  0  0  0  0  0  0  0
   -5.7099    1.3565    1.9011 C   0  0  0  0  0  0  0  0  0  0  0  0
   -6.5926    1.3367    3.4046 Cl  0  0  0  0  0  0  0  0  0  0  0  0
   -6.3459    1.1685    0.7054 C   0  0  0  0  0  0  0  0  0  0  0  0
   -5.6710    1.1808   -0.4824 C   0  0  0  0  0  0  0  0  0  0  0  0
   -4.3045    1.3881   -0.4922 C   0  0  0  0  0  0  0  0  0  0  0  0
   -3.6180    1.3976   -1.7397 N   0  0  0  0  0  0  0  0  0  0  0  0
   -3.2686    2.4871   -2.3867 N   0  0  0  0  0  0  0  0  0  0  0  0
   -2.6320    2.1545   -3.5396 C   0  0  0  0  0  0  0  0  0  0  0  0
   -2.6047    0.7793   -3.5739 C   0  0  0  0  0  0  0  0  0  0  0  0
   -3.2242    0.3524   -2.4436 N   0  0  0  0  0  0  0  0  0  0  0  0
    0.1422    0.8898    0.8597 C   0  0  2  0  0  0  0  0  0  0  0  0
    0.6254    0.7599   -0.5418 C   0  0  0  0  0  0  0  0  0  0  0  0
    2.0790    0.9323   -0.6957 C   0  0  0  0  0  0  0  0  0  0  0  0
    2.6579    2.1574   -0.9305 C   0  0  0  0  0  0  0  0  0  0  0  0
    4.0279    2.2110   -1.0592 C   0  0  0  0  0  0  0  0  0  0  0  0
    4.8128    1.0644   -0.9564 C   0  0  0  0  0  0  0  0  0  0  0  0
    4.2435   -0.1677   -0.7214 C   0  0  0  0  0  0  0  0  0  0  0  0
    5.0231   -1.3923   -0.6064 C   0  0  0  0  0  0  0  0  0  0  0  0
    6.3622   -1.3645   -0.7285 N   0  0  0  0  0  0  0  0  0  0  0  0
    7.0769   -2.5093   -0.6198 C   0  0  0  0  0  0  0  0  0  0  0  0
    6.4730   -3.7361   -0.3827 C   0  0  0  0  0  0  0  0  0  0  0  0
    5.0983   -3.7301   -0.2626 C   0  0  0  0  0  0  0  0  0  0  0  0
    4.4182   -2.5708   -0.3765 N   0  0  0  0  0  0  0  0  0  0  0  0
    2.8733   -0.1874   -0.5977 C   0  0  0  0  0  0  0  0  0  0  0  0
    0.7102   -0.1151    1.8044 C   0  0  0  0  0  0  0  0  0  0  0  0
    0.2509   -1.4149    1.5614 O   0  0  0  0  0  0  0  0  0  0  0  0
   -1.0277   -3.4484    1.3931 H   0  0  0  0  0  0  0  0  0  0  0  0
   -2.6655   -2.8538    2.0009 H   0  0  0  0  0  0  0  0  0  0  0  0
   -1.2483   -3.1580    3.1469 H   0  0  0  0  0  0  0  0  0  0  0  0
   -1.1345   -0.8148    2.9081 H   0  0  0  0  0  0  0  0  0  0  0  0
   -1.7700   -1.1888   -0.0743 H   0  0  0  0  0  0  0  0  0  0  0  0
   -2.9272   -0.6031    1.2166 H   0  0  0  0  0  0  0  0  0  0  0  0
   -3.8335    1.7132    2.8338 H   0  0  0  0  0  0  0  0  0  0  0  0
   -7.4263    1.0024    0.6834 H   0  0  0  0  0  0  0  0  0  0  0  0
   -6.1759    1.0304   -1.4469 H   0  0  0  0  0  0  0  0  0  0  0  0
   -2.2233    2.8130   -4.2895 H   0  0  0  0  0  0  0  0  0  0  0  0
   -2.1750    0.1612   -4.3477 H   0  0  0  0  0  0  0  0  0  0  0  0
    0.3375    1.9005    1.2774 H   0  0  0  0  0  0  0  0  0  0  0  0
    0.0782    1.5118   -1.1596 H   0  0  0  0  0  0  0  0  0  0  0  0
    0.3171   -0.2300   -0.9387 H   0  0  0  0  0  0  0  0  0  0  0  0
    2.0331    3.0420   -1.0081 H   0  0  0  0  0  0  0  0  0  0  0  0
    4.5161    3.1597   -1.2446 H   0  0  0  0  0  0  0  0  0  0  0  0
    5.8914    1.1024   -1.0571 H   0  0  0  0  0  0  0  0  0  0  0  0
    8.1488   -2.5019   -0.7153 H   0  0  0  0  0  0  0  0  0  0  0  0
    7.0282   -4.6601   -0.2930 H   0  0  0  0  0  0  0  0  0  0  0  0
    4.5893   -4.6857   -0.0744 H   0  0  0  0  0  0  0  0  0  0  0  0
    2.4287   -1.1751   -0.4104 H   0  0  0  0  0  0  0  0  0  0  0  0
    0.3200    0.1445    2.8295 H   0  0  0  0  0  0  0  0  0  0  0  0
    1.7960   -0.1094    1.8831 H   0  0  0  0  0  0  0  0  0  0  0  0
  1  2  1  0
  2  3  1  0
  3  4  1  0
  4  5  1  0
  5  6  2  0
  5  7  1  0
  7  8  2  0
  8  9  1  0
  9 10  1  0
  9 11  2  0
 11 12  1  0
 12 13  2  0
 13 14  1  0
 14 15  1  0
 15 16  2  0
 16 17  1  0
 17 18  2  0
  4 19  1  0
 19 20  1  0
 20 21  1  0
 21 22  2  0
 22 23  1  0
 23 24  2  0
 24 25  1  0
 25 26  1  0
 26 27  2  0
 27 28  1  0
 28 29  2  0
 29 30  1  0
 30 31  2  0
 25 32  2  0
 19 33  1  0
 33 34  1  0
 34  2  1  0
 13  7  1  0
 18 14  1  0
 32 21  1  0
 31 26  1  0
  1 35  1  0
  1 36  1  0
  1 37  1  0
  2 38  1  1
  3 39  1  0
  3 40  1  0
  8 41  1  0
 11 42  1  0
 12 43  1  0
 16 44  1  0
 17 45  1  0
 19 46  1  1
 20 47  1  0
 20 48  1  0
 22 49  1  0
 23 50  1  0
 24 51  1  0
 28 52  1  0
 29 53  1  0
 30 54  1  0
 32 55  1  0
 33 56  1  0
 33 57  1  0
M  END
$$$$
