@<TRIPOS>MOLECULE
*****
 57 61 0 0 0
SMALL
GASTEIGER

@<TRIPOS>ATOM
      1 C          -1.5755   -2.8178    2.1317 C.3     1  UNL1       -0.0372
      2 C          -1.1059   -1.4104    1.9594 C.3     1  UNL1        0.0717
      3 C          -1.8586   -0.6483    0.9100 C.3     1  UNL1        0.0414
      4 N          -1.3158    0.6910    0.8301 N.am    1  UNL1       -0.2895
      5 C          -2.1947    1.8018    0.7240 C.2     1  UNL1        0.2492
      6 O          -1.7685    2.9742    0.6526 O.2     1  UNL1       -0.2699
      7 C          -3.6321    1.5810    0.6967 C.ar    1  UNL1        0.0653
      8 C          -4.3296    1.5652    1.8831 C.ar    1  UNL1       -0.0292
      9 C          -5.7099    1.3565    1.9011 C.ar    1  UNL1        0.0418
     10 CL         -6.5926    1.3367    3.4046 Cl      1  UNL1       -0.0835
     11 C          -6.3459    1.1685    0.7054 C.ar    1  UNL1       -0.0413
     12 C          -5.6710    1.1808   -0.4824 C.ar    1  UNL1       -0.0324
     13 C          -4.3045    1.3881   -0.4922 C.ar    1  UNL1        0.0983
     14 N          -3.6180    1.3976   -1.7397 N.ar    1  UNL1       -0.1496
     15 N          -3.2686    2.4871   -2.3867 N.ar    1  UNL1       -0.1556
     16 C          -2.6320    2.1545   -3.5396 C.ar    1  UNL1        0.0697
     17 C          -2.6047    0.7793   -3.5739 C.ar    1  UNL1        0.0697
     18 N          -3.2242    0.3524   -2.4436 N.ar    1  UNL1       -0.1556
     19 C           0.1422    0.8898    0.8597 C.3     1  UNL1        0.0537
     20 C           0.6254    0.7599   -0.5418 C.3     1  UNL1       -0.0068
     21 C           2.0790    0.9323   -0.6957 C.ar    1  UNL1       -0.0449
     22 C           2.6579    2.1574   -0.9305 C.ar    1  UNL1       -0.0585
     23 C           4.0279    2.2110   -1.0592 C.ar    1  UNL1       -0.0608
     24 C           4.8128    1.0644   -0.9564 C.ar    1  UNL1       -0.0510
     25 C           4.2435   -0.1677   -0.7214 C.ar    1  UNL1        0.0194
     26 C           5.0231   -1.3923   -0.6064 C.ar    1  UNL1        0.1597
     27 N           6.3622   -1.3645   -0.7285 N.ar    1  UNL1       -0.2357
     28 C           7.0769   -2.5093   -0.6198 C.ar    1  UNL1        0.0314
     29 C           6.4730   -3.7361   -0.3827 C.ar    1  UNL1       -0.0254
     30 C           5.0983   -3.7301   -0.2626 C.ar    1  UNL1        0.0314
     31 N           4.4182   -2.5708   -0.3765 N.ar    1  UNL1       -0.2357
     32 C           2.8733   -0.1874   -0.5977 C.ar    1  UNL1       -0.0478
     33 C           0.7102   -0.1151    1.8044 C.3     1  UNL1        0.0669
     34 O           0.2509   -1.4149    1.5614 O.3     1  UNL1       -0.3734
     35 H          -1.0277   -3.4484    1.3931 H       1  UNL1        0.0255
     36 H          -2.6655   -2.8538    2.0009 H       1  UNL1        0.0255
     37 H          -1.2483   -3.1580    3.1469 H       1  UNL1        0.0255
     38 H          -1.1345   -0.8148    2.9081 H       1  UNL1        0.0609
     39 H          -1.7700   -1.1888   -0.0743 H       1  UNL1        0.0490
     40 H          -2.9272   -0.6031    1.2166 H       1  UNL1        0.0490
     41 H          -3.8335    1.7132    2.8338 H       1  UNL1        0.0640
     42 H          -7.4263    1.0024    0.6834 H       1  UNL1        0.0633
     43 H          -6.1759    1.0304   -1.4469 H       1  UNL1        0.0640
     44 H          -2.2233    2.8130   -4.2895 H       1  UNL1        0.0864
     45 H          -2.1750    0.1612   -4.3477 H       1  UNL1        0.0864
     46 H           0.3375    1.9005    1.2774 H       1  UNL1        0.0526
     47 H           0.0782    1.5118   -1.1596 H       1  UNL1        0.0332
     48 H           0.3171   -0.2300   -0.9387 H       1  UNL1        0.0332
     49 H           2.0331    3.0420   -1.0081 H       1  UNL1        0.0620
     50 H           4.5161    3.1597   -1.2446 H       1  UNL1        0.0618
     51 H           5.8914    1.1024   -1.0571 H       1  UNL1        0.0625
     52 H           8.1488   -2.5019   -0.7153 H       1  UNL1        0.0831
     53 H           7.0282   -4.6601   -0.2930 H       1  UNL1        0.0648
     54 H           4.5893   -4.6857   -0.0744 H       1  UNL1        0.0831
     55 H           2.4287   -1.1751   -0.4104 H       1  UNL1        0.0627
     56 H           0.3200    0.1445    2.8295 H       1  UNL1        0.0578
     57 H           1.7960   -0.1094    1.8831 H       1  UNL1        0.0578
@<TRIPOS>BOND
     1     1     2    1
     2     2     3    1
     3     3     4    1
     4     4     5   am
     5     5     6    2
     6     5     7    1
     7     7     8   ar
     8     8     9   ar
     9     9    10    1
    10     9    11   ar
    11    11    12   ar
    12    12    13   ar
    13    13    14    1
    14    14    15   ar
    15    15    16   ar
    16    16    17   ar
    17    17    18   ar
    18     4    19    1
    19    19    20    1
    20    20    21    1
    21    21    22   ar
    22    22    23   ar
    23    23    24   ar
    24    24    25   ar
    25    25    26    1
    26    26    27   ar
    27    27    28   ar
    28    28    29   ar
    29    29    30   ar
    30    30    31   ar
    31    25    32   ar
    32    19    33    1
    33    33    34    1
    34    34     2    1
    35    13     7   ar
    36    18    14   ar
    37    32    21   ar
    38    31    26   ar
    39     1    35    1
    40     1    36    1
    41     1    37    1
    42     2    38    1
    43     3    39    1
    44     3    40    1
    45     8    41    1
    46    11    42    1
    47    12    43    1
    48    16    44    1
    49    17    45    1
    50    19    46    1
    51    20    47    1
    52    20    48    1
    53    22    49    1
    54    23    50    1
    55    24    51    1
    56    28    52    1
    57    29    53    1
    58    30    54    1
    59    32    55    1
    60    33    56    1
    61    33    57    1
