@<TRIPOS>MOLECULE
*****
 43 45 0 0 0
SMALL
GASTEIGER

@<TRIPOS>ATOM
      1 C           0.4402   -1.7336    0.5712 C.3     1  UNL1        0.1027
      2 C           1.7194   -1.2835   -0.0944 C.3     1  UNL1        0.0869
      3 O           2.7001   -1.0498    0.8422 O.3     1  UNL1       -0.2837
      4 P           4.1480   -0.5429    0.1164 P.3     1  UNL1        0.4834
      5 O           5.4178   -0.6349    1.2264 O.3     1  UNL1       -0.3022
      6 O           4.4571   -1.4195   -1.0895 O.2     1  UNL1       -0.2269
      7 O           4.0510    1.0541   -0.4255 O.3     1  UNL1       -0.1862
      8 P           4.9074    2.0779    0.6290 P.3     1  UNL1        0.4808
      9 O           5.0568    3.6061   -0.0914 O.3     1  UNL1       -0.3023
     10 O           6.4370    1.4558    0.9709 O.3     1  UNL1       -0.3023
     11 O           4.0875    2.2186    1.9034 O.2     1  UNL1       -0.2271
     12 O          -0.0844   -0.8262    1.4601 O.3     1  UNL1       -0.3467
     13 C          -1.4509   -0.8117    1.3363 C.3     1  UNL1        0.1656
     14 N          -1.8163    0.4178    0.6394 N.ar    1  UNL1       -0.2855
     15 C          -1.0519    1.4717    0.2781 C.ar    1  UNL1        0.1004
     16 N          -1.8547    2.3684   -0.3476 N.ar    1  UNL1       -0.2306
     17 C          -3.0972    1.8442   -0.3568 C.ar    1  UNL1        0.1473
     18 C          -4.2810    2.3351   -0.8624 C.ar    1  UNL1        0.1472
     19 N          -4.4037    3.5892   -1.5185 N.pl3   1  UNL1       -0.3413
     20 N          -5.4420    1.6369   -0.7664 N.ar    1  UNL1       -0.2188
     21 C          -5.4176    0.4340   -0.1576 C.ar    1  UNL1        0.1205
     22 N          -4.2683   -0.0233    0.3236 N.ar    1  UNL1       -0.2159
     23 C          -3.0890    0.6065    0.2660 C.ar    1  UNL1        0.1674
     24 C          -1.8364   -2.0000    0.4793 C.3     1  UNL1        0.1178
     25 O          -1.8542   -3.1763    1.2070 O.3     1  UNL1       -0.3857
     26 C          -0.6359   -2.0350   -0.4500 C.3     1  UNL1        0.0642
     27 N          -0.4569   -3.3335   -1.0578 N.3     1  UNL1       -0.3229
     28 H           0.6461   -2.6782    1.1269 H       1  UNL1        0.0636
     29 H           1.5816   -0.3973   -0.7124 H       1  UNL1        0.0592
     30 H           2.0492   -2.1158   -0.7471 H       1  UNL1        0.0592
     31 H           5.5751   -1.5436    1.5756 H       1  UNL1        0.2220
     32 H           5.1446    4.2898    0.6373 H       1  UNL1        0.2220
     33 H           6.8464    0.9984    0.2189 H       1  UNL1        0.2220
     34 H          -1.9747   -0.8574    2.3275 H       1  UNL1        0.0866
     35 H           0.0082    1.5508    0.4707 H       1  UNL1        0.1030
     36 H          -4.0848    4.2261   -2.2758 H       1  UNL1        0.1438
     37 H          -5.1373    4.2265   -1.1052 H       1  UNL1        0.1438
     38 H          -6.3550   -0.1123   -0.0889 H       1  UNL1        0.1048
     39 H          -2.7820   -1.8458   -0.0629 H       1  UNL1        0.0655
     40 H          -2.0577   -3.0670    2.1608 H       1  UNL1        0.2100
     41 H          -0.6525   -1.2227   -1.1940 H       1  UNL1        0.0512
     42 H          -1.3884   -3.7617   -1.2022 H       1  UNL1        0.1186
     43 H           0.1990   -3.9361   -0.5161 H       1  UNL1        0.1186
@<TRIPOS>BOND
     1     1     2    1
     2     2     3    1
     3     3     4    1
     4     4     5    1
     5     4     6    2
     6     4     7    1
     7     7     8    1
     8     8     9    1
     9     8    10    1
    10     8    11    2
    11     1    12    1
    12    12    13    1
    13    13    14    1
    14    14    15   ar
    15    15    16   ar
    16    16    17   ar
    17    17    18   ar
    18    18    19    1
    19    18    20   ar
    20    20    21   ar
    21    21    22   ar
    22    22    23   ar
    23    13    24    1
    24    24    25    1
    25    24    26    1
    26    26    27    1
    27    26     1    1
    28    23    14   ar
    29    23    17   ar
    30     1    28    1
    31     2    29    1
    32     2    30    1
    33     5    31    1
    34     9    32    1
    35    10    33    1
    36    13    34    1
    37    15    35    1
    38    19    36    1
    39    19    37    1
    40    21    38    1
    41    24    39    1
    42    25    40    1
    43    26    41    1
    44    27    42    1
    45    27    43    1
