@<TRIPOS>MOLECULE
*****
 81 87 0 0 0
SMALL
GASTEIGER

@<TRIPOS>ATOM
      1 C          -9.0853   -4.9542   -0.8749 C.3     1  UNL1       -0.0397
      2 C          -8.3662   -3.6828   -0.6615 C.ar    1  UNL1       -0.0503
      3 C          -7.4503   -3.5707    0.3787 C.ar    1  UNL1       -0.0568
      4 C          -6.7604   -2.3970    0.6068 C.ar    1  UNL1       -0.0359
      5 C          -6.9656   -1.2984   -0.1991 C.ar    1  UNL1        0.0674
      6 N          -6.2499   -0.0657    0.0292 N.ar    1  UNL1       -0.2181
      7 N          -6.7860    1.0917    0.3789 N.ar    1  UNL1       -0.1691
      8 C          -5.8189    2.0310    0.5073 C.ar    1  UNL1        0.0706
      9 C          -6.0337    3.4681    0.8900 C.3     1  UNL1        0.0063
     10 C          -4.7172    4.1893    0.9336 C.3     1  UNL1       -0.0546
     11 C          -6.7299    3.4798    2.2136 C.3     1  UNL1       -0.0546
     12 C          -6.9359    4.0972   -0.1549 C.3     1  UNL1       -0.0546
     13 C          -4.6399    1.3822    0.2139 C.ar    1  UNL1        0.0021
     14 C          -4.9138    0.0779   -0.0830 C.ar    1  UNL1        0.1299
     15 N          -4.0295   -0.9670   -0.4438 N.am    1  UNL1       -0.2538
     16 C          -2.6281   -0.8247   -0.5584 C.2     1  UNL1        0.3092
     17 O          -2.0948    0.2733   -0.3326 O.2     1  UNL1       -0.2521
     18 N          -1.7695   -1.8980   -0.9283 N.am    1  UNL1       -0.2686
     19 C          -0.3617   -1.7564   -1.0427 C.ar    1  UNL1        0.0427
     20 C           0.2292   -1.3822   -2.2181 C.ar    1  UNL1       -0.0363
     21 C           1.5939   -1.2603   -2.2824 C.ar    1  UNL1       -0.0169
     22 C           2.4375   -1.5022   -1.1884 C.ar    1  UNL1        0.1381
     23 O           3.7756   -1.3547   -1.3522 O.3     1  UNL1       -0.4373
     24 C           4.6017   -0.4219   -0.7409 C.ar    1  UNL1        0.2249
     25 C           4.0298    0.5155    0.0827 C.ar    1  UNL1        0.0186
     26 C           4.8714    1.4447    0.6851 C.ar    1  UNL1        0.0362
     27 N           6.1870    1.3814    0.4347 N.ar    1  UNL1       -0.2225
     28 C           6.7746    0.4885   -0.3570 C.ar    1  UNL1        0.2226
     29 N           8.1660    0.4209   -0.6176 N.pl3   1  UNL1       -0.2830
     30 C           9.1826    1.2289   -0.1011 C.ar    1  UNL1        0.0428
     31 C           8.9651    2.2447    0.7899 C.ar    1  UNL1       -0.0398
     32 C          10.0257    2.9900    1.2522 C.ar    1  UNL1       -0.0580
     33 C          11.3072    2.7216    0.8247 C.ar    1  UNL1       -0.0377
     34 C          11.5334    1.6940   -0.0777 C.ar    1  UNL1        0.0482
     35 N          12.6803    1.2523   -0.6311 N.ar    1  UNL1       -0.3606
     36 C          12.4268    0.2267   -1.4568 C.ar    1  UNL1        0.0028
     37 C          11.0457    0.0302   -1.4053 C.ar    1  UNL1       -0.0349
     38 C          10.4843    0.9626   -0.5301 C.ar    1  UNL1        0.0208
     39 N           5.9280   -0.4173   -0.9399 N.ar    1  UNL1       -0.1789
     40 C           1.7869   -1.8779   -0.0300 C.ar    1  UNL1        0.0262
     41 C           2.5543   -2.1520    1.0811 C.ar    1  UNL1       -0.0505
     42 C           1.9405   -2.5424    2.2459 C.ar    1  UNL1       -0.0611
     43 C           0.5748   -2.6775    2.3650 C.ar    1  UNL1       -0.0611
     44 C          -0.1827   -2.4061    1.2605 C.ar    1  UNL1       -0.0521
     45 C           0.4134   -2.0098    0.0693 C.ar    1  UNL1        0.0069
     46 C          -7.8722   -1.4131   -1.2268 C.ar    1  UNL1       -0.0359
     47 C          -8.5734   -2.5853   -1.4694 C.ar    1  UNL1       -0.0568
     48 H          -9.2039   -5.4561    0.1188 H       1  UNL1        0.0278
     49 H          -8.5616   -5.6132   -1.5988 H       1  UNL1        0.0278
     50 H         -10.1213   -4.8047   -1.2607 H       1  UNL1        0.0278
     51 H          -7.2882   -4.4331    1.0128 H       1  UNL1        0.0621
     52 H          -6.0358   -2.2856    1.4179 H       1  UNL1        0.0639
     53 H          -4.1208    4.0053    0.0319 H       1  UNL1        0.0239
     54 H          -4.1440    3.7832    1.8028 H       1  UNL1        0.0239
     55 H          -4.8923    5.2813    1.0103 H       1  UNL1        0.0239
     56 H          -7.6640    4.0997    2.1984 H       1  UNL1        0.0239
     57 H          -6.0983    3.9186    3.0058 H       1  UNL1        0.0239
     58 H          -7.0459    2.4534    2.5394 H       1  UNL1        0.0239
     59 H          -7.4503    3.2974   -0.7164 H       1  UNL1        0.0239
     60 H          -7.6852    4.7408    0.3668 H       1  UNL1        0.0239
     61 H          -6.3548    4.7764   -0.8047 H       1  UNL1        0.0239
     62 H          -3.6785    1.8719    0.2301 H       1  UNL1        0.0671
     63 H          -4.3952   -1.9403   -0.6548 H       1  UNL1        0.1578
     64 H          -2.1740   -2.8366   -1.1279 H       1  UNL1        0.1564
     65 H          -0.4244   -1.1955   -3.0635 H       1  UNL1        0.0637
     66 H           2.0280   -0.9624   -3.2291 H       1  UNL1        0.0655
     67 H           2.9834    0.5507    0.2614 H       1  UNL1        0.0686
     68 H           4.4675    2.2009    1.3413 H       1  UNL1        0.0832
     69 H           8.4588   -0.3567   -1.3019 H       1  UNL1        0.1550
     70 H           7.9705    2.4658    1.1339 H       1  UNL1        0.0636
     71 H           9.8757    3.8060    1.9645 H       1  UNL1        0.0619
     72 H          12.1114    3.3224    1.2057 H       1  UNL1        0.0638
     73 H          13.6106    1.6651   -0.4289 H       1  UNL1        0.1653
     74 H          13.1297   -0.3504   -2.0546 H       1  UNL1        0.0807
     75 H          10.4747   -0.7033   -1.9348 H       1  UNL1        0.0639
     76 H           3.6333   -2.0868    1.0795 H       1  UNL1        0.0625
     77 H           2.5625   -2.7564    3.1194 H       1  UNL1        0.0618
     78 H           0.1005   -2.9799    3.2692 H       1  UNL1        0.0618
     79 H          -1.2556   -2.5007    1.3144 H       1  UNL1        0.0624
     80 H          -8.0783   -0.5825   -1.8973 H       1  UNL1        0.0639
     81 H          -9.2853   -2.6696   -2.2797 H       1  UNL1        0.0621
@<TRIPOS>BOND
     1     1     2    1
     2     2     3   ar
     3     3     4   ar
     4     4     5   ar
     5     5     6    1
     6     6     7   ar
     7     7     8   ar
     8     8     9    1
     9     9    10    1
    10     9    11    1
    11     9    12    1
    12     8    13   ar
    13    13    14   ar
    14    14    15    1
    15    15    16   am
    16    16    17    2
    17    16    18   am
    18    18    19    1
    19    19    20   ar
    20    20    21   ar
    21    21    22   ar
    22    22    23    1
    23    23    24    1
    24    24    25   ar
    25    25    26   ar
    26    26    27   ar
    27    27    28   ar
    28    28    29    1
    29    29    30    1
    30    30    31   ar
    31    31    32   ar
    32    32    33   ar
    33    33    34   ar
    34    34    35   ar
    35    35    36   ar
    36    36    37   ar
    37    37    38   ar
    38    28    39   ar
    39    22    40   ar
    40    40    41   ar
    41    41    42   ar
    42    42    43   ar
    43    43    44   ar
    44    44    45   ar
    45     5    46   ar
    46    46    47   ar
    47    47     2   ar
    48    14     6   ar
    49    45    19   ar
    50    39    24   ar
    51    45    40   ar
    52    38    30   ar
    53    38    34   ar
    54     1    48    1
    55     1    49    1
    56     1    50    1
    57     3    51    1
    58     4    52    1
    59    10    53    1
    60    10    54    1
    61    10    55    1
    62    11    56    1
    63    11    57    1
    64    11    58    1
    65    12    59    1
    66    12    60    1
    67    12    61    1
    68    13    62    1
    69    15    63    1
    70    18    64    1
    71    20    65    1
    72    21    66    1
    73    25    67    1
    74    26    68    1
    75    29    69    1
    76    31    70    1
    77    32    71    1
    78    33    72    1
    79    35    73    1
    80    36    74    1
    81    37    75    1
    82    41    76    1
    83    42    77    1
    84    43    78    1
    85    44    79    1
    86    46    80    1
    87    47    81    1
