
     RDKit          3D

 81 87  0  0  0  0  0  0  0  0999 V2000
   -9.0853   -4.9542   -0.8749 C   0  0  0  0  0  0  0  0  0  0  0  0
   -8.3662   -3.6828   -0.6615 C   0  0  0  0  0  0  0  0  0  0  0  0
   -7.4503   -3.5707    0.3787 C   0  0  0  0  0  0  0  0  0  0  0  0
   -6.7604   -2.3970    0.6068 C   0  0  0  0  0  0  0  0  0  0  0  0
   -6.9656   -1.2984   -0.1991 C   0  0  0  0  0  0  0  0  0  0  0  0
   -6.2499   -0.0657    0.0292 N   0  0  0  0  0  0  0  0  0  0  0  0
   -6.7860    1.0917    0.3789 N   0  0  0  0  0  0  0  0  0  0  0  0
   -5.8189    2.0310    0.5073 C   0  0  0  0  0  0  0  0  0  0  0  0
   -6.0337    3.4681    0.8900 C   0  0  0  0  0  0  0  0  0  0  0  0
   -4.7172    4.1893    0.9336 C   0  0  0  0  0  0  0  0  0  0  0  0
   -6.7299    3.4798    2.2136 C   0  0  0  0  0  0  0  0  0  0  0  0
   -6.9359    4.0972   -0.1549 C   0  0  0  0  0  0  0  0  0  0  0  0
   -4.6399    1.3822    0.2139 C   0  0  0  0  0  0  0  0  0  0  0  0
   -4.9138    0.0779   -0.0830 C   0  0  0  0  0  0  0  0  0  0  0  0
   -4.0295   -0.9670   -0.4438 N   0  0  0  0  0  0  0  0  0  0  0  0
   -2.6281   -0.8247   -0.5584 C   0  0  0  0  0  0  0  0  0  0  0  0
   -2.0948    0.2733   -0.3326 O   0  0  0  0  0  0  0  0  0  0  0  0
   -1.7695   -1.8980   -0.9283 N   0  0  0  0  0  0  0  0  0  0  0  0
   -0.3617   -1.7564   -1.0427 C   0  0  0  0  0  0  0  0  0  0  0  0
    0.2292   -1.3822   -2.2181 C   0  0  0  0  0  0  0  0  0  0  0  0
    1.5939   -1.2603   -2.2824 C   0  0  0  0  0  0  0  0  0  0  0  0
    2.4375   -1.5022   -1.1884 C   0  0  0  0  0  0  0  0  0  0  0  0
    3.7756   -1.3547   -1.3522 O   0  0  0  0  0  0  0  0  0  0  0  0
    4.6017   -0.4219   -0.7409 C   0  0  0  0  0  0  0  0  0  0  0  0
    4.0298    0.5155    0.0827 C   0  0  0  0  0  0  0  0  0  0  0  0
    4.8714    1.4447    0.6851 C   0  0  0  0  0  0  0  0  0  0  0  0
    6.1870    1.3814    0.4347 N   0  0  0  0  0  0  0  0  0  0  0  0
    6.7746    0.4885   -0.3570 C   0  0  0  0  0  0  0  0  0  0  0  0
    8.1660    0.4209   -0.6176 N   0  0  0  0  0  0  0  0  0  0  0  0
    9.1826    1.2289   -0.1011 C   0  0  0  0  0  0  0  0  0  0  0  0
    8.9651    2.2447    0.7899 C   0  0  0  0  0  0  0  0  0  0  0  0
   10.0257    2.9900    1.2522 C   0  0  0  0  0  0  0  0  0  0  0  0
   11.3072    2.7216    0.8247 C   0  0  0  0  0  0  0  0  0  0  0  0
   11.5334    1.6940   -0.0777 C   0  0  0  0  0  0  0  0  0  0  0  0
   12.6803    1.2523   -0.6311 N   0  0  0  0  0  0  0  0  0  0  0  0
   12.4268    0.2267   -1.4568 C   0  0  0  0  0  0  0  0  0  0  0  0
   11.0457    0.0302   -1.4053 C   0  0  0  0  0  0  0  0  0  0  0  0
   10.4843    0.9626   -0.5301 C   0  0  0  0  0  0  0  0  0  0  0  0
    5.9280   -0.4173   -0.9399 N   0  0  0  0  0  0  0  0  0  0  0  0
    1.7869   -1.8779   -0.0300 C   0  0  0  0  0  0  0  0  0  0  0  0
    2.5543   -2.1520    1.0811 C   0  0  0  0  0  0  0  0  0  0  0  0
    1.9405   -2.5424    2.2459 C   0  0  0  0  0  0  0  0  0  0  0  0
    0.5748   -2.6775    2.3650 C   0  0  0  0  0  0  0  0  0  0  0  0
   -0.1827   -2.4061    1.2605 C   0  0  0  0  0  0  0  0  0  0  0  0
    0.4134   -2.0098    0.0693 C   0  0  0  0  0  0  0  0  0  0  0  0
   -7.8722   -1.4131   -1.2268 C   0  0  0  0  0  0  0  0  0  0  0  0
   -8.5734   -2.5853   -1.4694 C   0  0  0  0  0  0  0  0  0  0  0  0
   -9.2039   -5.4561    0.1188 H   0  0  0  0  0  0  0  0  0  0  0  0
   -8.5616   -5.6132   -1.5988 H   0  0  0  0  0  0  0  0  0  0  0  0
  -10.1213   -4.8047   -1.2607 H   0  0  0  0  0  0  0  0  0  0  0  0
   -7.2882   -4.4331    1.0128 H   0  0  0  0  0  0  0  0  0  0  0  0
   -6.0358   -2.2856    1.4179 H   0  0  0  0  0  0  0  0  0  0  0  0
   -4.1208    4.0053    0.0319 H   0  0  0  0  0  0  0  0  0  0  0  0
   -4.1440    3.7832    1.8028 H   0  0  0  0  0  0  0  0  0  0  0  0
   -4.8923    5.2813    1.0103 H   0  0  0  0  0  0  0  0  0  0  0  0
   -7.6640    4.0997    2.1984 H   0  0  0  0  0  0  0  0  0  0  0  0
   -6.0983    3.9186    3.0058 H   0  0  0  0  0  0  0  0  0  0  0  0
   -7.0459    2.4534    2.5394 H   0  0  0  0  0  0  0  0  0  0  0  0
   -7.4503    3.2974   -0.7164 H   0  0  0  0  0  0  0  0  0  0  0  0
   -7.6852    4.7408    0.3668 H   0  0  0  0  0  0  0  0  0  0  0  0
   -6.3548    4.7764   -0.8047 H   0  0  0  0  0  0  0  0  0  0  0  0
   -3.6785    1.8719    0.2301 H   0  0  0  0  0  0  0  0  0  0  0  0
   -4.3952   -1.9403   -0.6548 H   0  0  0  0  0  0  0  0  0  0  0  0
   -2.1740   -2.8366   -1.1279 H   0  0  0  0  0  0  0  0  0  0  0  0
   -0.4244   -1.1955   -3.0635 H   0  0  0  0  0  0  0  0  0  0  0  0
    2.0280   -0.9624   -3.2291 H   0  0  0  0  0  0  0  0  0  0  0  0
    2.9834    0.5507    0.2614 H   0  0  0  0  0  0  0  0  0  0  0  0
    4.4675    2.2009    1.3413 H   0  0  0  0  0  0  0  0  0  0  0  0
    8.4588   -0.3567   -1.3019 H   0  0  0  0  0  0  0  0  0  0  0  0
    7.9705    2.4658    1.1339 H   0  0  0  0  0  0  0  0  0  0  0  0
    9.8757    3.8060    1.9645 H   0  0  0  0  0  0  0  0  0  0  0  0
   12.1114    3.3224    1.2057 H   0  0  0  0  0  0  0  0  0  0  0  0
   13.6106    1.6651   -0.4289 H   0  0  0  0  0  0  0  0  0  0  0  0
   13.1297   -0.3504   -2.0546 H   0  0  0  0  0  0  0  0  0  0  0  0
   10.4747   -0.7033   -1.9348 H   0  0  0  0  0  0  0  0  0  0  0  0
    3.6333   -2.0868    1.0795 H   0  0  0  0  0  0  0  0  0  0  0  0
    2.5625   -2.7564    3.1194 H   0  0  0  0  0  0  0  0  0  0  0  0
    0.1005   -2.9799    3.2692 H   0  0  0  0  0  0  0  0  0  0  0  0
   -1.2556   -2.5007    1.3144 H   0  0  0  0  0  0  0  0  0  0  0  0
   -8.0783   -0.5825   -1.8973 H   0  0  0  0  0  0  0  0  0  0  0  0
   -9.2853   -2.6696   -2.2797 H   0  0  0  0  0  0  0  0  0  0  0  0
  1  2  1  0
  2  3  2  0
  3  4  1  0
  4  5  2  0
  5  6  1  0
  6  7  1  0
  7  8  2  0
  8  9  1  0
  9 10  1  0
  9 11  1  0
  9 12  1  0
  8 13  1  0
 13 14  2  0
 14 15  1  0
 15 16  1  0
 16 17  2  0
 16 18  1  0
 18 19  1  0
 19 20  2  0
 20 21  1  0
 21 22  2  0
 22 23  1  0
 23 24  1  0
 24 25  2  0
 25 26  1  0
 26 27  2  0
 27 28  1  0
 28 29  1  0
 29 30  1  0
 30 31  2  0
 31 32  1  0
 32 33  2  0
 33 34  1  0
 34 35  1  0
 35 36  1  0
 36 37  2  0
 37 38  1  0
 28 39  2  0
 22 40  1  0
 40 41  2  0
 41 42  1  0
 42 43  2  0
 43 44  1  0
 44 45  2  0
  5 46  1  0
 46 47  2  0
 47  2  1  0
 14  6  1  0
 45 19  1  0
 39 24  1  0
 45 40  1  0
 38 30  1  0
 38 34  2  0
  1 48  1  0
  1 49  1  0
  1 50  1  0
  3 51  1  0
  4 52  1  0
 10 53  1  0
 10 54  1  0
 10 55  1  0
 11 56  1  0
 11 57  1  0
 11 58  1  0
 12 59  1  0
 12 60  1  0
 12 61  1  0
 13 62  1  0
 15 63  1  0
 18 64  1  0
 20 65  1  0
 21 66  1  0
 25 67  1  0
 26 68  1  0
 29 69  1  0
 31 70  1  0
 32 71  1  0
 33 72  1  0
 35 73  1  0
 36 74  1  0
 37 75  1  0
 41 76  1  0
 42 77  1  0
 43 78  1  0
 44 79  1  0
 46 80  1  0
 47 81  1  0
M  END
$$$$
