@<TRIPOS>MOLECULE
*****
 51 53 0 0 0
SMALL
GASTEIGER

@<TRIPOS>ATOM
      1 C           1.1590   -0.4150   -1.1133 C.3     1  UNL1       -0.0121
      2 N           1.1247    0.9553   -0.8129 N.3     1  UNL1       -0.2970
      3 C           0.0280    1.7038   -1.3884 C.3     1  UNL1        0.0241
      4 C          -1.2427    1.1267   -0.9069 C.ar    1  UNL1       -0.0333
      5 C          -2.0149    0.1441   -1.5319 C.ar    1  UNL1       -0.0571
      6 C          -3.1915   -0.3254   -0.9916 C.ar    1  UNL1       -0.0578
      7 C          -3.6718    0.1571    0.2081 C.ar    1  UNL1       -0.0420
      8 C          -2.9436    1.1278    0.8611 C.ar    1  UNL1       -0.0578
      9 C          -1.7647    1.5844    0.2997 C.ar    1  UNL1       -0.0571
     10 C          -4.9493   -0.4611    0.6342 C.3     1  UNL1       -0.0127
     11 C          -6.0579    0.4097    0.0321 C.3     1  UNL1       -0.0560
     12 C          -5.0758   -1.8689    0.1431 C.3     1  UNL1       -0.0560
     13 C          -5.1300   -0.4548    2.1309 C.3     1  UNL1       -0.0560
     14 C           2.3333    1.6998   -0.7548 C.3     1  UNL1        0.0247
     15 C           3.3519    1.1730    0.1610 C.ar    1  UNL1       -0.0257
     16 C           3.3932    1.6350    1.4842 C.ar    1  UNL1       -0.0567
     17 C           4.2601    1.1720    2.4334 C.ar    1  UNL1       -0.0609
     18 C           5.1655    0.1869    2.0989 C.ar    1  UNL1       -0.0540
     19 C           5.1880   -0.3184    0.8150 C.ar    1  UNL1       -0.0176
     20 C           6.0952   -1.2840    0.4550 C.ar    1  UNL1       -0.0540
     21 C           6.1493   -1.7921   -0.8473 C.ar    1  UNL1       -0.0612
     22 C           5.2357   -1.2684   -1.7641 C.ar    1  UNL1       -0.0612
     23 C           4.3502   -0.3071   -1.3582 C.ar    1  UNL1       -0.0537
     24 C           4.2824    0.2019   -0.0807 C.ar    1  UNL1       -0.0135
     25 H           1.7551   -0.9633   -0.3467 H       1  UNL1        0.0391
     26 H           0.1215   -0.8282   -0.9587 H       1  UNL1        0.0391
     27 H           1.4132   -0.6912   -2.1414 H       1  UNL1        0.0391
     28 H           0.1020    2.7703   -1.1846 H       1  UNL1        0.0476
     29 H           0.0534    1.5462   -2.4925 H       1  UNL1        0.0476
     30 H          -1.6200   -0.2179   -2.4725 H       1  UNL1        0.0621
     31 H          -3.6885   -1.0992   -1.5977 H       1  UNL1        0.0621
     32 H          -3.3574    1.4645    1.7800 H       1  UNL1        0.0621
     33 H          -1.2967    2.3508    0.9267 H       1  UNL1        0.0621
     34 H          -5.8845    1.4684    0.3069 H       1  UNL1        0.0238
     35 H          -7.0418    0.0817    0.3744 H       1  UNL1        0.0238
     36 H          -5.9794    0.2377   -1.0819 H       1  UNL1        0.0238
     37 H          -4.0844   -2.4034    0.1447 H       1  UNL1        0.0238
     38 H          -5.7194   -2.4582    0.8273 H       1  UNL1        0.0238
     39 H          -5.4545   -1.9533   -0.9017 H       1  UNL1        0.0238
     40 H          -6.0841   -0.9824    2.3436 H       1  UNL1        0.0238
     41 H          -4.3409   -1.0585    2.6197 H       1  UNL1        0.0238
     42 H          -5.2170    0.5619    2.5440 H       1  UNL1        0.0238
     43 H           2.7505    1.9477   -1.7618 H       1  UNL1        0.0476
     44 H           2.0394    2.7217   -0.3642 H       1  UNL1        0.0476
     45 H           2.6995    2.4209    1.8214 H       1  UNL1        0.0621
     46 H           4.2501    1.5665    3.4480 H       1  UNL1        0.0618
     47 H           5.8596   -0.1911    2.8365 H       1  UNL1        0.0624
     48 H           6.8038   -1.6905    1.1638 H       1  UNL1        0.0624
     49 H           6.8610   -2.5476   -1.1201 H       1  UNL1        0.0618
     50 H           5.2819   -1.6644   -2.7707 H       1  UNL1        0.0618
     51 H           3.7036    0.0414   -2.1491 H       1  UNL1        0.0624
@<TRIPOS>BOND
     1     1     2    1
     2     2     3    1
     3     3     4    1
     4     4     5   ar
     5     5     6   ar
     6     6     7   ar
     7     7     8   ar
     8     8     9   ar
     9     7    10    1
    10    10    11    1
    11    10    12    1
    12    10    13    1
    13     2    14    1
    14    14    15    1
    15    15    16   ar
    16    16    17   ar
    17    17    18   ar
    18    18    19   ar
    19    19    20   ar
    20    20    21   ar
    21    21    22   ar
    22    22    23   ar
    23    23    24   ar
    24     9     4   ar
    25    24    15   ar
    26    24    19   ar
    27     1    25    1
    28     1    26    1
    29     1    27    1
    30     3    28    1
    31     3    29    1
    32     5    30    1
    33     6    31    1
    34     8    32    1
    35     9    33    1
    36    11    34    1
    37    11    35    1
    38    11    36    1
    39    12    37    1
    40    12    38    1
    41    12    39    1
    42    13    40    1
    43    13    41    1
    44    13    42    1
    45    14    43    1
    46    14    44    1
    47    16    45    1
    48    17    46    1
    49    18    47    1
    50    20    48    1
    51    21    49    1
    52    22    50    1
    53    23    51    1
