
     RDKit          3D

 51 53  0  0  0  0  0  0  0  0999 V2000
    1.1590   -0.4150   -1.1133 C   0  0  0  0  0  0  0  0  0  0  0  0
    1.1247    0.9553   -0.8129 N   0  0  0  0  0  0  0  0  0  0  0  0
    0.0280    1.7038   -1.3884 C   0  0  0  0  0  0  0  0  0  0  0  0
   -1.2427    1.1267   -0.9069 C   0  0  0  0  0  0  0  0  0  0  0  0
   -2.0149    0.1441   -1.5319 C   0  0  0  0  0  0  0  0  0  0  0  0
   -3.1915   -0.3254   -0.9916 C   0  0  0  0  0  0  0  0  0  0  0  0
   -3.6718    0.1571    0.2081 C   0  0  0  0  0  0  0  0  0  0  0  0
   -2.9436    1.1278    0.8611 C   0  0  0  0  0  0  0  0  0  0  0  0
   -1.7647    1.5844    0.2997 C   0  0  0  0  0  0  0  0  0  0  0  0
   -4.9493   -0.4611    0.6342 C   0  0  0  0  0  0  0  0  0  0  0  0
   -6.0579    0.4097    0.0321 C   0  0  0  0  0  0  0  0  0  0  0  0
   -5.0758   -1.8689    0.1431 C   0  0  0  0  0  0  0  0  0  0  0  0
   -5.1300   -0.4548    2.1309 C   0  0  0  0  0  0  0  0  0  0  0  0
    2.3333    1.6998   -0.7548 C   0  0  0  0  0  0  0  0  0  0  0  0
    3.3519    1.1730    0.1610 C   0  0  0  0  0  0  0  0  0  0  0  0
    3.3932    1.6350    1.4842 C   0  0  0  0  0  0  0  0  0  0  0  0
    4.2601    1.1720    2.4334 C   0  0  0  0  0  0  0  0  0  0  0  0
    5.1655    0.1869    2.0989 C   0  0  0  0  0  0  0  0  0  0  0  0
    5.1880   -0.3184    0.8150 C   0  0  0  0  0  0  0  0  0  0  0  0
    6.0952   -1.2840    0.4550 C   0  0  0  0  0  0  0  0  0  0  0  0
    6.1493   -1.7921   -0.8473 C   0  0  0  0  0  0  0  0  0  0  0  0
    5.2357   -1.2684   -1.7641 C   0  0  0  0  0  0  0  0  0  0  0  0
    4.3502   -0.3071   -1.3582 C   0  0  0  0  0  0  0  0  0  0  0  0
    4.2824    0.2019   -0.0807 C   0  0  0  0  0  0  0  0  0  0  0  0
    1.7551   -0.9633   -0.3467 H   0  0  0  0  0  0  0  0  0  0  0  0
    0.1215   -0.8282   -0.9587 H   0  0  0  0  0  0  0  0  0  0  0  0
    1.4132   -0.6912   -2.1414 H   0  0  0  0  0  0  0  0  0  0  0  0
    0.1020    2.7703   -1.1846 H   0  0  0  0  0  0  0  0  0  0  0  0
    0.0534    1.5462   -2.4925 H   0  0  0  0  0  0  0  0  0  0  0  0
   -1.6200   -0.2179   -2.4725 H   0  0  0  0  0  0  0  0  0  0  0  0
   -3.6885   -1.0992   -1.5977 H   0  0  0  0  0  0  0  0  0  0  0  0
   -3.3574    1.4645    1.7800 H   0  0  0  0  0  0  0  0  0  0  0  0
   -1.2967    2.3508    0.9267 H   0  0  0  0  0  0  0  0  0  0  0  0
   -5.8845    1.4684    0.3069 H   0  0  0  0  0  0  0  0  0  0  0  0
   -7.0418    0.0817    0.3744 H   0  0  0  0  0  0  0  0  0  0  0  0
   -5.9794    0.2377   -1.0819 H   0  0  0  0  0  0  0  0  0  0  0  0
   -4.0844   -2.4034    0.1447 H   0  0  0  0  0  0  0  0  0  0  0  0
   -5.7194   -2.4582    0.8273 H   0  0  0  0  0  0  0  0  0  0  0  0
   -5.4545   -1.9533   -0.9017 H   0  0  0  0  0  0  0  0  0  0  0  0
   -6.0841   -0.9824    2.3436 H   0  0  0  0  0  0  0  0  0  0  0  0
   -4.3409   -1.0585    2.6197 H   0  0  0  0  0  0  0  0  0  0  0  0
   -5.2170    0.5619    2.5440 H   0  0  0  0  0  0  0  0  0  0  0  0
    2.7505    1.9477   -1.7618 H   0  0  0  0  0  0  0  0  0  0  0  0
    2.0394    2.7217   -0.3642 H   0  0  0  0  0  0  0  0  0  0  0  0
    2.6995    2.4209    1.8214 H   0  0  0  0  0  0  0  0  0  0  0  0
    4.2501    1.5665    3.4480 H   0  0  0  0  0  0  0  0  0  0  0  0
    5.8596   -0.1911    2.8365 H   0  0  0  0  0  0  0  0  0  0  0  0
    6.8038   -1.6905    1.1638 H   0  0  0  0  0  0  0  0  0  0  0  0
    6.8610   -2.5476   -1.1201 H   0  0  0  0  0  0  0  0  0  0  0  0
    5.2819   -1.6644   -2.7707 H   0  0  0  0  0  0  0  0  0  0  0  0
    3.7036    0.0414   -2.1491 H   0  0  0  0  0  0  0  0  0  0  0  0
  1  2  1  0
  2  3  1  0
  3  4  1  0
  4  5  2  0
  5  6  1  0
  6  7  2  0
  7  8  1  0
  8  9  2  0
  7 10  1  0
 10 11  1  0
 10 12  1  0
 10 13  1  0
  2 14  1  0
 14 15  1  0
 15 16  2  0
 16 17  1  0
 17 18  2  0
 18 19  1  0
 19 20  2  0
 20 21  1  0
 21 22  2  0
 22 23  1  0
 23 24  2  0
  9  4  1  0
 24 15  1  0
 24 19  1  0
  1 25  1  0
  1 26  1  0
  1 27  1  0
  3 28  1  0
  3 29  1  0
  5 30  1  0
  6 31  1  0
  8 32  1  0
  9 33  1  0
 11 34  1  0
 11 35  1  0
 11 36  1  0
 12 37  1  0
 12 38  1  0
 12 39  1  0
 13 40  1  0
 13 41  1  0
 13 42  1  0
 14 43  1  0
 14 44  1  0
 16 45  1  0
 17 46  1  0
 18 47  1  0
 20 48  1  0
 21 49  1  0
 22 50  1  0
 23 51  1  0
M  END
$$$$
