@<TRIPOS>MOLECULE
*****
 65 70 0 0 0
SMALL
GASTEIGER

@<TRIPOS>ATOM
      1 C          -8.2460   -1.4309    1.1586 C.3     1  UNL1        0.0032
      2 N          -6.8233   -1.4745    0.9307 N.am    1  UNL1       -0.3024
      3 C          -6.2153   -2.7125    0.5079 C.3     1  UNL1        0.0032
      4 C          -6.0353   -0.3178    1.1216 C.2     1  UNL1        0.2627
      5 O          -6.6225    0.7285    1.5015 O.2     1  UNL1       -0.2684
      6 C          -4.5936   -0.2998    0.8941 C.ar    1  UNL1        0.1070
      7 C          -3.6275   -1.0767    1.5382 C.ar    1  UNL1       -0.0209
      8 C          -2.3820   -0.7688    1.0417 C.ar    1  UNL1        0.0378
      9 C          -1.1058   -1.2404    1.3276 C.ar    1  UNL1        0.0419
     10 N          -0.0891   -0.6942    0.6185 N.ar    1  UNL1       -0.2219
     11 C          -0.2831    0.2485   -0.3096 C.ar    1  UNL1        0.2224
     12 N           0.8006    0.7852   -1.0432 N.pl3   1  UNL1       -0.2685
     13 C           2.0839    0.2506   -0.8612 C.ar    1  UNL1        0.1250
     14 C           3.1513    0.7538   -1.5344 C.ar    1  UNL1       -0.0208
     15 C           4.4341    0.2223   -1.3883 C.ar    1  UNL1       -0.0449
     16 C           4.6091   -0.8578   -0.5209 C.ar    1  UNL1        0.0551
     17 C           5.8974   -1.4920   -0.3160 C.2     1  UNL1        0.2481
     18 O           6.0693   -2.6201   -0.8638 O.2     1  UNL1       -0.2699
     19 N           6.9546   -0.9525    0.4364 N.am    1  UNL1       -0.2954
     20 C           6.9666    0.3105    1.1393 C.3     1  UNL1        0.0196
     21 C           8.3647    0.8111    0.7529 C.3     1  UNL1       -0.0039
     22 C           8.6366    0.6347   -0.7135 C.3     1  UNL1       -0.0271
     23 C           9.1519   -0.3571    0.3000 C.3     1  UNL1        0.0371
     24 N          10.5616   -0.4846    0.4661 N.3     1  UNL1       -0.3231
     25 C           8.2581   -1.5394    0.6694 C.3     1  UNL1        0.0334
     26 C           3.4855   -1.3192    0.1310 C.ar    1  UNL1        0.0418
     27 N           2.2550   -0.7835   -0.0310 N.ar    1  UNL1       -0.2394
     28 N          -1.5208    0.6754   -0.5550 N.ar    1  UNL1       -0.1962
     29 C          -2.6077    0.2021    0.0900 C.ar    1  UNL1        0.1466
     30 N          -3.9450    0.4757    0.0112 N.ar    1  UNL1       -0.3180
     31 C          -4.4722    1.4553   -0.9126 C.3     1  UNL1        0.0366
     32 C          -4.7845    2.7678   -0.2913 C.3     1  UNL1       -0.0320
     33 C          -6.1826    3.1580   -0.6135 C.3     1  UNL1       -0.0511
     34 C          -6.6396    2.2095   -1.6796 C.3     1  UNL1       -0.0511
     35 C          -5.7013    1.0232   -1.6367 C.3     1  UNL1       -0.0320
     36 H          -8.8155   -1.9246    0.3605 H       1  UNL1        0.0428
     37 H          -8.4591   -1.8921    2.1650 H       1  UNL1        0.0428
     38 H          -8.6341   -0.3944    1.2253 H       1  UNL1        0.0428
     39 H          -5.3209   -2.5996   -0.1134 H       1  UNL1        0.0428
     40 H          -5.8795   -3.2489    1.4476 H       1  UNL1        0.0428
     41 H          -6.9493   -3.3923    0.0140 H       1  UNL1        0.0428
     42 H          -3.8350   -1.8049    2.3076 H       1  UNL1        0.0647
     43 H          -0.9378   -1.9995    2.0716 H       1  UNL1        0.0838
     44 H           0.6621    1.5664   -1.7129 H       1  UNL1        0.1564
     45 H           3.0769    1.6058   -2.2298 H       1  UNL1        0.0652
     46 H           5.2951    0.5864   -1.8972 H       1  UNL1        0.0627
     47 H           6.1719    0.9996    0.8649 H       1  UNL1        0.0468
     48 H           6.9951    0.1590    2.2553 H       1  UNL1        0.0468
     49 H           8.7906    1.6415    1.3201 H       1  UNL1        0.0335
     50 H           9.4265    1.2754   -1.1745 H       1  UNL1        0.0287
     51 H           7.8303    0.3235   -1.4046 H       1  UNL1        0.0287
     52 H          10.8794   -1.3369   -0.0667 H       1  UNL1        0.1188
     53 H          10.8270   -0.5359    1.4692 H       1  UNL1        0.1188
     54 H           8.4367   -2.3983   -0.0089 H       1  UNL1        0.0483
     55 H           8.3764   -1.7815    1.7443 H       1  UNL1        0.0483
     56 H           3.6150   -2.1623    0.8125 H       1  UNL1        0.0838
     57 H          -3.6721    1.6508   -1.6974 H       1  UNL1        0.0528
     58 H          -4.5575    2.8079    0.8008 H       1  UNL1        0.0285
     59 H          -4.1249    3.5782   -0.7291 H       1  UNL1        0.0285
     60 H          -6.2511    4.2299   -0.9780 H       1  UNL1        0.0266
     61 H          -6.8576    3.1590    0.2765 H       1  UNL1        0.0266
     62 H          -7.6987    1.9132   -1.5882 H       1  UNL1        0.0266
     63 H          -6.5697    2.7664   -2.6561 H       1  UNL1        0.0266
     64 H          -5.4550    0.8121   -2.7231 H       1  UNL1        0.0285
     65 H          -6.1681    0.1058   -1.2837 H       1  UNL1        0.0285
@<TRIPOS>BOND
     1     1     2    1
     2     2     3    1
     3     2     4   am
     4     4     5    2
     5     4     6    1
     6     6     7   ar
     7     7     8   ar
     8     8     9   ar
     9     9    10   ar
    10    10    11   ar
    11    11    12    1
    12    12    13    1
    13    13    14   ar
    14    14    15   ar
    15    15    16   ar
    16    16    17    1
    17    17    18    2
    18    17    19   am
    19    19    20    1
    20    20    21    1
    21    21    22    1
    22    22    23    1
    23    23    24    1
    24    23    25    1
    25    16    26   ar
    26    26    27   ar
    27    11    28   ar
    28    28    29   ar
    29    29    30   ar
    30    30    31    1
    31    31    32    1
    32    32    33    1
    33    33    34    1
    34    34    35    1
    35    30     6   ar
    36    35    31    1
    37    29     8   ar
    38    27    13   ar
    39    25    19    1
    40    23    21    1
    41     1    36    1
    42     1    37    1
    43     1    38    1
    44     3    39    1
    45     3    40    1
    46     3    41    1
    47     7    42    1
    48     9    43    1
    49    12    44    1
    50    14    45    1
    51    15    46    1
    52    20    47    1
    53    20    48    1
    54    21    49    1
    55    22    50    1
    56    22    51    1
    57    24    52    1
    58    24    53    1
    59    25    54    1
    60    25    55    1
    61    26    56    1
    62    31    57    1
    63    32    58    1
    64    32    59    1
    65    33    60    1
    66    33    61    1
    67    34    62    1
    68    34    63    1
    69    35    64    1
    70    35    65    1
