
     RDKit          3D

 65 70  0  0  0  0  0  0  0  0999 V2000
   -8.2460   -1.4309    1.1586 C   0  0  0  0  0  0  0  0  0  0  0  0
   -6.8233   -1.4745    0.9307 N   0  0  0  0  0  0  0  0  0  0  0  0
   -6.2153   -2.7125    0.5079 C   0  0  0  0  0  0  0  0  0  0  0  0
   -6.0353   -0.3178    1.1216 C   0  0  0  0  0  0  0  0  0  0  0  0
   -6.6225    0.7285    1.5015 O   0  0  0  0  0  0  0  0  0  0  0  0
   -4.5936   -0.2998    0.8941 C   0  0  0  0  0  0  0  0  0  0  0  0
   -3.6275   -1.0767    1.5382 C   0  0  0  0  0  0  0  0  0  0  0  0
   -2.3820   -0.7688    1.0417 C   0  0  0  0  0  0  0  0  0  0  0  0
   -1.1058   -1.2404    1.3276 C   0  0  0  0  0  0  0  0  0  0  0  0
   -0.0891   -0.6942    0.6185 N   0  0  0  0  0  0  0  0  0  0  0  0
   -0.2831    0.2485   -0.3096 C   0  0  0  0  0  0  0  0  0  0  0  0
    0.8006    0.7852   -1.0432 N   0  0  0  0  0  0  0  0  0  0  0  0
    2.0839    0.2506   -0.8612 C   0  0  0  0  0  0  0  0  0  0  0  0
    3.1513    0.7538   -1.5344 C   0  0  0  0  0  0  0  0  0  0  0  0
    4.4341    0.2223   -1.3883 C   0  0  0  0  0  0  0  0  0  0  0  0
    4.6091   -0.8578   -0.5209 C   0  0  0  0  0  0  0  0  0  0  0  0
    5.8974   -1.4920   -0.3160 C   0  0  0  0  0  0  0  0  0  0  0  0
    6.0693   -2.6201   -0.8638 O   0  0  0  0  0  0  0  0  0  0  0  0
    6.9546   -0.9525    0.4364 N   0  0  0  0  0  0  0  0  0  0  0  0
    6.9666    0.3105    1.1393 C   0  0  0  0  0  0  0  0  0  0  0  0
    8.3647    0.8111    0.7529 C   0  0  2  0  0  0  0  0  0  0  0  0
    8.6366    0.6347   -0.7135 C   0  0  0  0  0  0  0  0  0  0  0  0
    9.1519   -0.3571    0.3000 C   0  0  1  0  0  0  0  0  0  0  0  0
   10.5616   -0.4846    0.4661 N   0  0  0  0  0  0  0  0  0  0  0  0
    8.2581   -1.5394    0.6694 C   0  0  0  0  0  0  0  0  0  0  0  0
    3.4855   -1.3192    0.1310 C   0  0  0  0  0  0  0  0  0  0  0  0
    2.2550   -0.7835   -0.0310 N   0  0  0  0  0  0  0  0  0  0  0  0
   -1.5208    0.6754   -0.5550 N   0  0  0  0  0  0  0  0  0  0  0  0
   -2.6077    0.2021    0.0900 C   0  0  0  0  0  0  0  0  0  0  0  0
   -3.9450    0.4757    0.0112 N   0  0  0  0  0  0  0  0  0  0  0  0
   -4.4722    1.4553   -0.9126 C   0  0  0  0  0  0  0  0  0  0  0  0
   -4.7845    2.7678   -0.2913 C   0  0  0  0  0  0  0  0  0  0  0  0
   -6.1826    3.1580   -0.6135 C   0  0  0  0  0  0  0  0  0  0  0  0
   -6.6396    2.2095   -1.6796 C   0  0  0  0  0  0  0  0  0  0  0  0
   -5.7013    1.0232   -1.6367 C   0  0  0  0  0  0  0  0  0  0  0  0
   -8.8155   -1.9246    0.3605 H   0  0  0  0  0  0  0  0  0  0  0  0
   -8.4591   -1.8921    2.1650 H   0  0  0  0  0  0  0  0  0  0  0  0
   -8.6341   -0.3944    1.2253 H   0  0  0  0  0  0  0  0  0  0  0  0
   -5.3209   -2.5996   -0.1134 H   0  0  0  0  0  0  0  0  0  0  0  0
   -5.8795   -3.2489    1.4476 H   0  0  0  0  0  0  0  0  0  0  0  0
   -6.9493   -3.3923    0.0140 H   0  0  0  0  0  0  0  0  0  0  0  0
   -3.8350   -1.8049    2.3076 H   0  0  0  0  0  0  0  0  0  0  0  0
   -0.9378   -1.9995    2.0716 H   0  0  0  0  0  0  0  0  0  0  0  0
    0.6621    1.5664   -1.7129 H   0  0  0  0  0  0  0  0  0  0  0  0
    3.0769    1.6058   -2.2298 H   0  0  0  0  0  0  0  0  0  0  0  0
    5.2951    0.5864   -1.8972 H   0  0  0  0  0  0  0  0  0  0  0  0
    6.1719    0.9996    0.8649 H   0  0  0  0  0  0  0  0  0  0  0  0
    6.9951    0.1590    2.2553 H   0  0  0  0  0  0  0  0  0  0  0  0
    8.7906    1.6415    1.3201 H   0  0  0  0  0  0  0  0  0  0  0  0
    9.4265    1.2754   -1.1745 H   0  0  0  0  0  0  0  0  0  0  0  0
    7.8303    0.3235   -1.4046 H   0  0  0  0  0  0  0  0  0  0  0  0
   10.8794   -1.3369   -0.0667 H   0  0  0  0  0  0  0  0  0  0  0  0
   10.8270   -0.5359    1.4692 H   0  0  0  0  0  0  0  0  0  0  0  0
    8.4367   -2.3983   -0.0089 H   0  0  0  0  0  0  0  0  0  0  0  0
    8.3764   -1.7815    1.7443 H   0  0  0  0  0  0  0  0  0  0  0  0
    3.6150   -2.1623    0.8125 H   0  0  0  0  0  0  0  0  0  0  0  0
   -3.6721    1.6508   -1.6974 H   0  0  0  0  0  0  0  0  0  0  0  0
   -4.5575    2.8079    0.8008 H   0  0  0  0  0  0  0  0  0  0  0  0
   -4.1249    3.5782   -0.7291 H   0  0  0  0  0  0  0  0  0  0  0  0
   -6.2511    4.2299   -0.9780 H   0  0  0  0  0  0  0  0  0  0  0  0
   -6.8576    3.1590    0.2765 H   0  0  0  0  0  0  0  0  0  0  0  0
   -7.6987    1.9132   -1.5882 H   0  0  0  0  0  0  0  0  0  0  0  0
   -6.5697    2.7664   -2.6561 H   0  0  0  0  0  0  0  0  0  0  0  0
   -5.4550    0.8121   -2.7231 H   0  0  0  0  0  0  0  0  0  0  0  0
   -6.1681    0.1058   -1.2837 H   0  0  0  0  0  0  0  0  0  0  0  0
  1  2  1  0
  2  3  1  0
  2  4  1  0
  4  5  2  0
  4  6  1  0
  6  7  2  0
  7  8  1  0
  8  9  2  0
  9 10  1  0
 10 11  2  0
 11 12  1  0
 12 13  1  0
 13 14  2  0
 14 15  1  0
 15 16  2  0
 16 17  1  0
 17 18  2  0
 17 19  1  0
 19 20  1  0
 20 21  1  0
 21 22  1  0
 22 23  1  0
 23 24  1  1
 23 25  1  0
 16 26  1  0
 26 27  2  0
 11 28  1  0
 28 29  2  0
 29 30  1  0
 30 31  1  0
 31 32  1  0
 32 33  1  0
 33 34  1  0
 34 35  1  0
 30  6  1  0
 35 31  1  0
 29  8  1  0
 27 13  1  0
 25 19  1  0
 23 21  1  0
  1 36  1  0
  1 37  1  0
  1 38  1  0
  3 39  1  0
  3 40  1  0
  3 41  1  0
  7 42  1  0
  9 43  1  0
 12 44  1  0
 14 45  1  0
 15 46  1  0
 20 47  1  0
 20 48  1  0
 21 49  1  1
 22 50  1  0
 22 51  1  0
 24 52  1  0
 24 53  1  0
 25 54  1  0
 25 55  1  0
 26 56  1  0
 31 57  1  0
 32 58  1  0
 32 59  1  0
 33 60  1  0
 33 61  1  0
 34 62  1  0
 34 63  1  0
 35 64  1  0
 35 65  1  0
M  END
$$$$
