@<TRIPOS>MOLECULE
*****
 82 88 0 0 0
SMALL
GASTEIGER

@<TRIPOS>ATOM
      1 C          -8.1622    5.4660   -2.4495 C.1     1  UNL1       -0.1183
      2 C          -8.4006    4.3454   -2.0771 C.1     1  UNL1       -0.0931
      3 C          -8.7187    2.9574   -1.6216 C.3     1  UNL1        0.0697
      4 C          -9.4520    2.2146   -2.6719 C.3     1  UNL1       -0.0433
      5 C          -9.5115    3.0616   -0.3614 C.3     1  UNL1       -0.0433
      6 C          -7.3509    2.3467   -1.3869 C.ar    1  UNL1        0.0826
      7 C          -6.1516    2.9219   -1.7254 C.ar    1  UNL1        0.0030
      8 C          -5.0975    2.0678   -1.3310 C.ar    1  UNL1        0.1300
      9 N          -3.7470    2.3898   -1.4437 N.am    1  UNL1       -0.2538
     10 C          -2.6151    1.6039   -1.3434 C.2     1  UNL1        0.3092
     11 O          -2.6849    0.3895   -1.2255 O.2     1  UNL1       -0.2521
     12 N          -1.2830    2.1637   -1.3630 N.am    1  UNL1       -0.2686
     13 C          -0.1010    1.4146   -1.2429 C.ar    1  UNL1        0.0427
     14 C           0.6938    0.9594   -2.2577 C.ar    1  UNL1       -0.0363
     15 C           1.8523    0.2544   -1.9724 C.ar    1  UNL1       -0.0169
     16 C           2.2598   -0.0222   -0.6773 C.ar    1  UNL1        0.1381
     17 O           3.3896   -0.6999   -0.4022 O.3     1  UNL1       -0.4373
     18 C           3.7261   -1.8520    0.1653 C.ar    1  UNL1        0.2249
     19 C           2.9142   -2.8589    0.6268 C.ar    1  UNL1        0.0186
     20 C           3.3809   -4.0340    1.2070 C.ar    1  UNL1        0.0362
     21 N           4.7249   -4.1420    1.2976 N.ar    1  UNL1       -0.2225
     22 C           5.5679   -3.1975    0.8658 C.ar    1  UNL1        0.2226
     23 N           6.9653   -3.4111    1.0645 N.pl3   1  UNL1       -0.2835
     24 C           7.8881   -2.4286    0.6723 C.ar    1  UNL1        0.0346
     25 C           9.0476   -2.3273    1.4180 C.ar    1  UNL1       -0.0355
     26 C           9.9882   -1.3823    1.1038 C.ar    1  UNL1       -0.0233
     27 C          11.2475   -1.2470    1.9115 C.3     1  UNL1       -0.0376
     28 C           9.7608   -0.5372    0.0349 C.ar    1  UNL1        0.0687
     29 N          10.5059    0.4651   -0.4631 N.ar    1  UNL1       -0.2767
     30 N           9.8747    1.0106   -1.4971 N.ar    1  UNL1       -0.1812
     31 C           8.7012    0.3444   -1.6648 C.ar    1  UNL1        0.0569
     32 C           8.6243   -0.6456   -0.6862 C.ar    1  UNL1        0.0215
     33 C           7.6584   -1.6015   -0.3798 C.ar    1  UNL1       -0.0298
     34 N           5.0714   -2.0985    0.3212 N.ar    1  UNL1       -0.1789
     35 C           1.4489    0.4408    0.3383 C.ar    1  UNL1        0.0262
     36 C           1.8314    0.1894    1.6663 C.ar    1  UNL1       -0.0505
     37 C           1.0671    0.6318    2.7072 C.ar    1  UNL1       -0.0611
     38 C          -0.0790    1.3247    2.4776 C.ar    1  UNL1       -0.0611
     39 C          -0.4600    1.5767    1.1546 C.ar    1  UNL1       -0.0521
     40 C           0.2898    1.1442    0.0870 C.ar    1  UNL1        0.0069
     41 N          -5.7100    1.0406   -0.7887 N.ar    1  UNL1       -0.2180
     42 C          -5.2105   -0.1406   -0.1912 C.ar    1  UNL1        0.0674
     43 C          -4.6621   -0.1869    1.0740 C.ar    1  UNL1       -0.0359
     44 C          -4.1915   -1.3976    1.5983 C.ar    1  UNL1       -0.0568
     45 C          -4.2723   -2.5588    0.8549 C.ar    1  UNL1       -0.0503
     46 C          -3.7464   -3.8442    1.4547 C.3     1  UNL1       -0.0397
     47 C          -4.8123   -2.5176   -0.3889 C.ar    1  UNL1       -0.0568
     48 C          -5.2752   -1.3183   -0.9016 C.ar    1  UNL1       -0.0359
     49 N          -7.0698    1.2079   -0.8205 N.ar    1  UNL1       -0.1681
     50 H          -7.9504    6.4753   -2.8045 H       1  UNL1        0.1228
     51 H          -8.7870    1.9369   -3.5212 H       1  UNL1        0.0248
     52 H         -10.3688    2.7193   -3.0183 H       1  UNL1        0.0248
     53 H          -9.8007    1.2456   -2.2157 H       1  UNL1        0.0248
     54 H         -10.1386    3.9686   -0.3407 H       1  UNL1        0.0248
     55 H          -8.7996    3.1462    0.5138 H       1  UNL1        0.0248
     56 H         -10.1076    2.1316   -0.1190 H       1  UNL1        0.0248
     57 H          -6.0205    3.8696   -2.2129 H       1  UNL1        0.0671
     58 H          -3.5361    3.4495   -1.5611 H       1  UNL1        0.1578
     59 H          -1.2465    3.2241   -1.4793 H       1  UNL1        0.1564
     60 H           0.4003    1.1680   -3.3007 H       1  UNL1        0.0637
     61 H           2.4729   -0.0970   -2.7840 H       1  UNL1        0.0655
     62 H           1.8587   -2.7216    0.5363 H       1  UNL1        0.0686
     63 H           2.7244   -4.8114    1.5664 H       1  UNL1        0.0832
     64 H           7.3080   -4.3195    1.5084 H       1  UNL1        0.1550
     65 H           9.2366   -2.9884    2.2645 H       1  UNL1        0.0639
     66 H          12.0287   -1.8194    1.4110 H       1  UNL1        0.0278
     67 H          11.0789   -1.5843    2.9690 H       1  UNL1        0.0278
     68 H          11.5281   -0.1644    1.8708 H       1  UNL1        0.0278
     69 H          11.4305    0.7584   -0.0881 H       1  UNL1        0.1889
     70 H           7.9648    0.5369   -2.4119 H       1  UNL1        0.0854
     71 H           6.7897   -1.6155   -1.0329 H       1  UNL1        0.0643
     72 H           2.7410   -0.3481    1.8926 H       1  UNL1        0.0625
     73 H           1.3834    0.4310    3.7173 H       1  UNL1        0.0618
     74 H          -0.6879    1.6789    3.2812 H       1  UNL1        0.0618
     75 H          -1.3767    2.1292    1.0328 H       1  UNL1        0.0624
     76 H          -4.6003    0.7195    1.6423 H       1  UNL1        0.0639
     77 H          -3.7611   -1.4491    2.5832 H       1  UNL1        0.0621
     78 H          -4.6246   -4.4740    1.6619 H       1  UNL1        0.0278
     79 H          -3.1608   -4.3377    0.6438 H       1  UNL1        0.0278
     80 H          -3.1145   -3.6349    2.3499 H       1  UNL1        0.0278
     81 H          -4.8719   -3.4130   -0.9627 H       1  UNL1        0.0621
     82 H          -5.7073   -1.2934   -1.8951 H       1  UNL1        0.0639
@<TRIPOS>BOND
     1     1     2    3
     2     2     3    1
     3     3     4    1
     4     3     5    1
     5     3     6    1
     6     6     7   ar
     7     7     8   ar
     8     8     9    1
     9     9    10   am
    10    10    11    2
    11    10    12   am
    12    12    13    1
    13    13    14   ar
    14    14    15   ar
    15    15    16   ar
    16    16    17    1
    17    17    18    1
    18    18    19   ar
    19    19    20   ar
    20    20    21   ar
    21    21    22   ar
    22    22    23    1
    23    23    24    1
    24    24    25   ar
    25    25    26   ar
    26    26    27    1
    27    26    28   ar
    28    28    29   ar
    29    29    30   ar
    30    30    31   ar
    31    31    32   ar
    32    32    33   ar
    33    22    34   ar
    34    16    35   ar
    35    35    36   ar
    36    36    37   ar
    37    37    38   ar
    38    38    39   ar
    39    39    40   ar
    40     8    41   ar
    41    41    42    1
    42    42    43   ar
    43    43    44   ar
    44    44    45   ar
    45    45    46    1
    46    45    47   ar
    47    47    48   ar
    48    41    49   ar
    49    49     6   ar
    50    40    13   ar
    51    48    42   ar
    52    34    18   ar
    53    40    35   ar
    54    33    24   ar
    55    32    28   ar
    56     1    50    1
    57     4    51    1
    58     4    52    1
    59     4    53    1
    60     5    54    1
    61     5    55    1
    62     5    56    1
    63     7    57    1
    64     9    58    1
    65    12    59    1
    66    14    60    1
    67    15    61    1
    68    19    62    1
    69    20    63    1
    70    23    64    1
    71    25    65    1
    72    27    66    1
    73    27    67    1
    74    27    68    1
    75    29    69    1
    76    31    70    1
    77    33    71    1
    78    36    72    1
    79    37    73    1
    80    38    74    1
    81    39    75    1
    82    43    76    1
    83    44    77    1
    84    46    78    1
    85    46    79    1
    86    46    80    1
    87    47    81    1
    88    48    82    1
