
     RDKit          3D

 48 51  0  0  0  0  0  0  0  0999 V2000
    8.7017    3.2846   -0.1361 C   0  0  0  0  0  0  0  0  0  0  0  0
    8.3610    4.5902    0.2221 O   0  0  0  0  0  0  0  0  0  0  0  0
    7.4423    4.5865    1.2768 C   0  0  0  0  0  0  0  0  0  0  0  0
    6.2102    3.8842    0.8913 C   0  0  0  0  0  0  0  0  0  0  0  0
    5.1987    3.2872    0.5830 C   0  0  0  0  0  0  0  0  0  0  0  0
    4.0120    2.5582    0.2232 C   0  0  0  0  0  0  0  0  0  0  0  0
    3.6906    2.3302   -1.1216 C   0  0  0  0  0  0  0  0  0  0  0  0
    2.5563    1.6130   -1.4533 C   0  0  0  0  0  0  0  0  0  0  0  0
    1.7299    1.1145   -0.4565 C   0  0  0  0  0  0  0  0  0  0  0  0
    0.5991    0.3912   -0.7643 C   0  0  0  0  0  0  0  0  0  0  0  0
    0.3635    0.2208   -1.9886 O   0  0  0  0  0  0  0  0  0  0  0  0
   -0.2290   -0.1161    0.2274 C   0  0  0  0  0  0  0  0  0  0  0  0
   -1.4002   -0.8886   -0.1652 C   0  0  0  0  0  0  0  0  0  0  0  0
   -2.2914   -0.3193   -1.0678 C   0  0  0  0  0  0  0  0  0  0  0  0
   -3.3907   -0.9928   -1.5402 C   0  0  0  0  0  0  0  0  0  0  0  0
   -3.6511   -2.2887   -1.1243 C   0  0  0  0  0  0  0  0  0  0  0  0
   -4.7373   -3.0405   -1.6326 N   0  0  0  0  0  0  0  0  0  0  0  0
   -5.6946   -4.1528   -0.7913 S   0  0  0  0  0  6  0  0  0  0  0  0
   -4.8707   -5.3213   -0.2559 O   0  0  0  0  0  0  0  0  0  0  0  0
   -6.7118   -4.8086   -1.7173 O   0  0  0  0  0  0  0  0  0  0  0  0
   -6.5992   -3.4943    0.5737 C   0  0  0  0  0  0  0  0  0  0  0  0
   -6.0984   -2.3658    1.3606 C   0  0  0  0  0  0  0  0  0  0  0  0
   -7.3051   -2.1858    0.4912 C   0  0  0  0  0  0  0  0  0  0  0  0
   -2.7564   -2.8556   -0.2178 C   0  0  0  0  0  0  0  0  0  0  0  0
   -1.6508   -2.1746    0.2573 C   0  0  0  0  0  0  0  0  0  0  0  0
    0.1309    0.1377    1.5278 C   0  0  0  0  0  0  0  0  0  0  0  0
    1.2195    0.8339    1.8024 O   0  0  0  0  0  0  0  0  0  0  0  0
    2.0169    1.3211    0.8883 C   0  0  0  0  0  0  0  0  0  0  0  0
    3.1494    2.0367    1.1606 C   0  0  0  0  0  0  0  0  0  0  0  0
    7.8469    2.6834   -0.4561 H   0  0  0  0  0  0  0  0  0  0  0  0
    9.2560    2.8377    0.6902 H   0  0  0  0  0  0  0  0  0  0  0  0
    9.3757    3.3586   -1.0270 H   0  0  0  0  0  0  0  0  0  0  0  0
    7.8314    4.0945    2.1664 H   0  0  0  0  0  0  0  0  0  0  0  0
    7.2425    5.6691    1.5075 H   0  0  0  0  0  0  0  0  0  0  0  0
    4.3102    2.7002   -1.9230 H   0  0  0  0  0  0  0  0  0  0  0  0
    2.3267    1.4473   -2.5135 H   0  0  0  0  0  0  0  0  0  0  0  0
   -2.0971    0.7085   -1.4028 H   0  0  0  0  0  0  0  0  0  0  0  0
   -4.0857   -0.5306   -2.2541 H   0  0  0  0  0  0  0  0  0  0  0  0
   -4.9500   -2.8628   -2.6631 H   0  0  0  0  0  0  0  0  0  0  0  0
   -7.1918   -4.2918    1.1150 H   0  0  0  0  0  0  0  0  0  0  0  0
   -5.1861   -1.8076    1.0288 H   0  0  0  0  0  0  0  0  0  0  0  0
   -6.1840   -2.4208    2.4613 H   0  0  0  0  0  0  0  0  0  0  0  0
   -7.2207   -1.6207   -0.4410 H   0  0  0  0  0  0  0  0  0  0  0  0
   -8.2765   -2.1033    1.0468 H   0  0  0  0  0  0  0  0  0  0  0  0
   -2.9600   -3.8731    0.1138 H   0  0  0  0  0  0  0  0  0  0  0  0
   -0.9644   -2.6281    0.9608 H   0  0  0  0  0  0  0  0  0  0  0  0
   -0.4857   -0.2366    2.3407 H   0  0  0  0  0  0  0  0  0  0  0  0
    3.4171    2.2289    2.1963 H   0  0  0  0  0  0  0  0  0  0  0  0
  1  2  1  0
  2  3  1  0
  3  4  1  0
  4  5  3  0
  5  6  1  0
  6  7  2  0
  7  8  1  0
  8  9  2  0
  9 10  1  0
 10 11  2  0
 10 12  1  0
 12 13  1  0
 13 14  2  0
 14 15  1  0
 15 16  2  0
 16 17  1  0
 17 18  1  0
 18 19  2  0
 18 20  2  0
 18 21  1  0
 21 22  1  0
 22 23  1  0
 16 24  1  0
 24 25  2  0
 12 26  2  0
 26 27  1  0
 27 28  1  0
 28 29  2  0
 29  6  1  0
 28  9  1  0
 25 13  1  0
 23 21  1  0
  1 30  1  0
  1 31  1  0
  1 32  1  0
  3 33  1  0
  3 34  1  0
  7 35  1  0
  8 36  1  0
 14 37  1  0
 15 38  1  0
 17 39  1  0
 21 40  1  0
 22 41  1  0
 22 42  1  0
 23 43  1  0
 23 44  1  0
 24 45  1  0
 25 46  1  0
 26 47  1  0
 29 48  1  0
M  END
$$$$
