@<TRIPOS>MOLECULE
*****
 48 51 0 0 0
SMALL
GASTEIGER

@<TRIPOS>ATOM
      1 C           8.7017    3.2846   -0.1361 C.3     1  UNL1        0.0377
      2 O           8.3610    4.5902    0.2221 O.3     1  UNL1       -0.3705
      3 C           7.4423    4.5865    1.2768 C.3     1  UNL1        0.1083
      4 C           6.2102    3.8842    0.8913 C.1     1  UNL1       -0.0688
      5 C           5.1987    3.2872    0.5830 C.1     1  UNL1       -0.0639
      6 C           4.0120    2.5582    0.2232 C.ar    1  UNL1        0.0285
      7 C           3.6906    2.3302   -1.1216 C.ar    1  UNL1       -0.0454
      8 C           2.5563    1.6130   -1.4533 C.ar    1  UNL1       -0.0462
      9 C           1.7299    1.1145   -0.4565 C.ar    1  UNL1        0.0646
     10 C           0.5991    0.3912   -0.7643 C.ar    1  UNL1        0.2001
     11 O           0.3635    0.2208   -1.9886 O.2     1  UNL1       -0.2864
     12 C          -0.2290   -0.1161    0.2274 C.ar    1  UNL1        0.0643
     13 C          -1.4002   -0.8886   -0.1652 C.ar    1  UNL1       -0.0112
     14 C          -2.2914   -0.3193   -1.0678 C.ar    1  UNL1       -0.0520
     15 C          -3.3907   -0.9928   -1.5402 C.ar    1  UNL1       -0.0388
     16 C          -3.6511   -2.2887   -1.1243 C.ar    1  UNL1        0.0477
     17 N          -4.7373   -3.0405   -1.6326 N.pl3   1  UNL1       -0.2204
     18 S          -5.6946   -4.1528   -0.7913 S.O2    1  UNL1        0.0460
     19 O          -4.8707   -5.3213   -0.2559 O.2     1  UNL1       -0.1549
     20 O          -6.7118   -4.8086   -1.7173 O.2     1  UNL1       -0.1549
     21 C          -6.5992   -3.4943    0.5737 C.3     1  UNL1        0.0959
     22 C          -6.0984   -2.3658    1.3606 C.3     1  UNL1       -0.0272
     23 C          -7.3051   -2.1858    0.4912 C.3     1  UNL1       -0.0272
     24 C          -2.7564   -2.8556   -0.2178 C.ar    1  UNL1       -0.0388
     25 C          -1.6508   -2.1746    0.2573 C.ar    1  UNL1       -0.0520
     26 C           0.1309    0.1377    1.5278 C.ar    1  UNL1        0.1038
     27 O           1.2195    0.8339    1.8024 O.2     1  UNL1       -0.4621
     28 C           2.0169    1.3211    0.8883 C.ar    1  UNL1        0.1396
     29 C           3.1494    2.0367    1.1606 C.ar    1  UNL1       -0.0032
     30 H           7.8469    2.6834   -0.4561 H       1  UNL1        0.0524
     31 H           9.2560    2.8377    0.6902 H       1  UNL1        0.0524
     32 H           9.3757    3.3586   -1.0270 H       1  UNL1        0.0524
     33 H           7.8314    4.0945    2.1664 H       1  UNL1        0.0697
     34 H           7.2425    5.6691    1.5075 H       1  UNL1        0.0697
     35 H           4.3102    2.7002   -1.9230 H       1  UNL1        0.0630
     36 H           2.3267    1.4473   -2.5135 H       1  UNL1        0.0626
     37 H          -2.0971    0.7085   -1.4028 H       1  UNL1        0.0624
     38 H          -4.0857   -0.5306   -2.2541 H       1  UNL1        0.0637
     39 H          -4.9500   -2.8628   -2.6631 H       1  UNL1        0.1733
     40 H          -7.1918   -4.2918    1.1150 H       1  UNL1        0.0554
     41 H          -5.1861   -1.8076    1.0288 H       1  UNL1        0.0285
     42 H          -6.1840   -2.4208    2.4613 H       1  UNL1        0.0285
     43 H          -7.2207   -1.6207   -0.4410 H       1  UNL1        0.0285
     44 H          -8.2765   -2.1033    1.0468 H       1  UNL1        0.0285
     45 H          -2.9600   -3.8731    0.1138 H       1  UNL1        0.0637
     46 H          -0.9644   -2.6281    0.9608 H       1  UNL1        0.0624
     47 H          -0.4857   -0.2366    2.3407 H       1  UNL1        0.1037
     48 H           3.4171    2.2289    2.1963 H       1  UNL1        0.0667
@<TRIPOS>BOND
     1     1     2    1
     2     2     3    1
     3     3     4    1
     4     4     5    3
     5     5     6    1
     6     6     7   ar
     7     7     8   ar
     8     8     9   ar
     9     9    10   ar
    10    10    11    2
    11    10    12   ar
    12    12    13    1
    13    13    14   ar
    14    14    15   ar
    15    15    16   ar
    16    16    17    1
    17    17    18    1
    18    18    19    2
    19    18    20    2
    20    18    21    1
    21    21    22    1
    22    22    23    1
    23    16    24   ar
    24    24    25   ar
    25    12    26   ar
    26    26    27   ar
    27    27    28   ar
    28    28    29   ar
    29    29     6   ar
    30    28     9   ar
    31    25    13   ar
    32    23    21    1
    33     1    30    1
    34     1    31    1
    35     1    32    1
    36     3    33    1
    37     3    34    1
    38     7    35    1
    39     8    36    1
    40    14    37    1
    41    15    38    1
    42    17    39    1
    43    21    40    1
    44    22    41    1
    45    22    42    1
    46    23    43    1
    47    23    44    1
    48    24    45    1
    49    25    46    1
    50    26    47    1
    51    29    48    1
