@<TRIPOS>MOLECULE
*****
 30 31 0 0 0
SMALL
GASTEIGER

@<TRIPOS>ATOM
      1 C          -1.4279   -1.8230    1.3974 C.3     1  UNL1       -0.0598
      2 C          -1.5838   -1.4389   -0.0472 C.3     1  UNL1       -0.0124
      3 C          -1.4719    0.0192   -0.2911 C.ar    1  UNL1        0.0556
      4 N          -2.5849    0.7675   -0.5188 N.ar    1  UNL1       -0.2190
      5 C          -2.4954    2.0946   -0.7441 C.ar    1  UNL1        0.2145
      6 N          -3.6511    2.8924   -0.9817 N.pl3   1  UNL1       -0.3274
      7 N          -1.2620    2.6320   -0.7321 N.ar    1  UNL1       -0.1995
      8 C          -0.1299    1.9416   -0.5131 C.ar    1  UNL1        0.1293
      9 N           1.1481    2.5206   -0.5070 N.pl3   1  UNL1       -0.3425
     10 C          -0.2138    0.5798   -0.2808 C.ar    1  UNL1        0.0430
     11 C           0.9835   -0.2042   -0.0353 C.ar    1  UNL1       -0.0128
     12 C           1.5345   -0.4142    1.2083 C.ar    1  UNL1       -0.0525
     13 C           2.6667   -1.1641    1.4277 C.ar    1  UNL1       -0.0428
     14 C           3.3033   -1.7510    0.3377 C.ar    1  UNL1        0.0410
     15 CL          4.7507   -2.7147    0.6017 Cl      1  UNL1       -0.0835
     16 C           2.7772   -1.5593   -0.9178 C.ar    1  UNL1       -0.0428
     17 C           1.6411   -0.8002   -1.0905 C.ar    1  UNL1       -0.0525
     18 H          -1.4573   -0.8761    1.9952 H       1  UNL1        0.0233
     19 H          -2.2997   -2.4370    1.7558 H       1  UNL1        0.0233
     20 H          -0.5061   -2.4193    1.6059 H       1  UNL1        0.0233
     21 H          -2.6045   -1.7421   -0.3592 H       1  UNL1        0.0326
     22 H          -0.8796   -1.9848   -0.7098 H       1  UNL1        0.0326
     23 H          -4.0956    3.4543   -0.2356 H       1  UNL1        0.1452
     24 H          -4.0657    2.9163   -1.9290 H       1  UNL1        0.1452
     25 H           1.8422    2.3011    0.2281 H       1  UNL1        0.1437
     26 H           1.4120    3.1877   -1.2550 H       1  UNL1        0.1437
     27 H           1.0490    0.0361    2.0564 H       1  UNL1        0.0624
     28 H           3.1031   -1.3347    2.3883 H       1  UNL1        0.0632
     29 H           3.2684   -2.0135   -1.7648 H       1  UNL1        0.0632
     30 H           1.2492   -0.6659   -2.0895 H       1  UNL1        0.0624
@<TRIPOS>BOND
     1     1     2    1
     2     2     3    1
     3     3     4   ar
     4     4     5   ar
     5     5     6    1
     6     5     7   ar
     7     7     8   ar
     8     8     9    1
     9     8    10   ar
    10    10    11    1
    11    11    12   ar
    12    12    13   ar
    13    13    14   ar
    14    14    15    1
    15    14    16   ar
    16    16    17   ar
    17    10     3   ar
    18    17    11   ar
    19     1    18    1
    20     1    19    1
    21     1    20    1
    22     2    21    1
    23     2    22    1
    24     6    23    1
    25     6    24    1
    26     9    25    1
    27     9    26    1
    28    12    27    1
    29    13    28    1
    30    16    29    1
    31    17    30    1
