
     RDKit          3D

 29 29  0  0  0  0  0  0  0  0999 V2000
    1.8908   -1.6518   -0.2794 C   0  0  0  0  0  0  0  0  0  0  0  0
    2.0484   -0.1461   -0.3944 C   0  0  2  0  0  0  0  0  0  0  0  0
    3.3527    0.2283    0.2478 C   0  0  0  0  0  0  0  0  0  0  0  0
    3.6422    2.0176    0.1654 S   0  0  0  0  0  0  0  0  0  0  0  0
    0.9464    0.5225    0.3359 C   0  0  0  0  0  0  0  0  0  0  0  0
    1.2193    1.2843    1.2879 O   0  0  0  0  0  0  0  0  0  0  0  0
   -0.3926    0.2995   -0.0416 N   0  0  0  0  0  0  0  0  0  0  0  0
   -0.8862   -0.5541   -1.1230 C   0  0  0  0  0  0  0  0  0  0  0  0
   -2.3409   -0.2024   -1.2843 C   0  0  0  0  0  0  0  0  0  0  0  0
   -2.4149    1.1627   -0.6359 C   0  0  0  0  0  0  0  0  0  0  0  0
   -1.5439    0.9025    0.6016 C   0  0  1  0  0  0  0  0  0  0  0  0
   -2.2030   -0.1486    1.4366 C   0  0  0  0  0  0  0  0  0  0  0  0
   -1.7409   -1.3319    1.4934 O   0  0  0  0  0  0  0  0  0  0  0  0
   -3.3410    0.1057    2.1862 O   0  0  0  0  0  0  0  0  0  0  0  0
    1.5341   -2.0293   -1.2439 H   0  0  0  0  0  0  0  0  0  0  0  0
    1.1667   -1.8699    0.5363 H   0  0  0  0  0  0  0  0  0  0  0  0
    2.8752   -2.1288   -0.0060 H   0  0  0  0  0  0  0  0  0  0  0  0
    2.0577    0.1488   -1.4696 H   0  0  0  0  0  0  0  0  0  0  0  0
    4.2027   -0.3362   -0.2099 H   0  0  0  0  0  0  0  0  0  0  0  0
    3.2877   -0.0858    1.3238 H   0  0  0  0  0  0  0  0  0  0  0  0
    3.9989    2.3625   -1.1527 H   0  0  0  0  0  0  0  0  0  0  0  0
   -0.7928   -1.6377   -0.8252 H   0  0  0  0  0  0  0  0  0  0  0  0
   -0.2959   -0.4168   -2.0517 H   0  0  0  0  0  0  0  0  0  0  0  0
   -2.6738   -0.1954   -2.3383 H   0  0  0  0  0  0  0  0  0  0  0  0
   -2.9595   -0.9013   -0.6746 H   0  0  0  0  0  0  0  0  0  0  0  0
   -3.4256    1.4729   -0.3747 H   0  0  0  0  0  0  0  0  0  0  0  0
   -1.8812    1.9225   -1.2341 H   0  0  0  0  0  0  0  0  0  0  0  0
   -1.3183    1.8123    1.1488 H   0  0  0  0  0  0  0  0  0  0  0  0
   -4.0124   -0.6062    2.4510 H   0  0  0  0  0  0  0  0  0  0  0  0
  1  2  1  0
  2  3  1  0
  3  4  1  0
  2  5  1  0
  5  6  2  0
  5  7  1  0
  7  8  1  0
  8  9  1  0
  9 10  1  0
 10 11  1  0
 11 12  1  0
 12 13  2  0
 12 14  1  0
 11  7  1  0
  1 15  1  0
  1 16  1  0
  1 17  1  0
  2 18  1  6
  3 19  1  0
  3 20  1  0
  4 21  1  0
  8 22  1  0
  8 23  1  0
  9 24  1  0
  9 25  1  0
 10 26  1  0
 10 27  1  0
 11 28  1  1
 14 29  1  0
M  END
$$$$
