@<TRIPOS>MOLECULE
*****
 29 29 0 0 0
SMALL
GASTEIGER

@<TRIPOS>ATOM
      1 C           1.8908   -1.6518   -0.2794 C.3     1  UNL1       -0.0533
      2 C           2.0484   -0.1461   -0.3944 C.3     1  UNL1        0.0417
      3 C           3.3527    0.2283    0.2478 C.3     1  UNL1        0.0015
      4 S           3.6422    2.0176    0.1654 S.3     1  UNL1       -0.1775
      5 C           0.9464    0.5225    0.3359 C.2     1  UNL1        0.2198
      6 O           1.2193    1.2843    1.2879 O.2     1  UNL1       -0.2753
      7 N          -0.3926    0.2995   -0.0416 N.am    1  UNL1       -0.2878
      8 C          -0.8862   -0.5541   -1.1230 C.3     1  UNL1        0.0156
      9 C          -2.3409   -0.2024   -1.2843 C.3     1  UNL1       -0.0349
     10 C          -2.4149    1.1627   -0.6359 C.3     1  UNL1       -0.0225
     11 C          -1.5439    0.9025    0.6016 C.3     1  UNL1        0.1228
     12 C          -2.2030   -0.1486    1.4366 C.2     1  UNL1        0.3255
     13 O          -1.7409   -1.3319    1.4934 O.2     1  UNL1       -0.2489
     14 O          -3.3410    0.1057    2.1862 O.3     1  UNL1       -0.4793
     15 H           1.5341   -2.0293   -1.2439 H       1  UNL1        0.0237
     16 H           1.1667   -1.8699    0.5363 H       1  UNL1        0.0237
     17 H           2.8752   -2.1288   -0.0060 H       1  UNL1        0.0237
     18 H           2.0577    0.1488   -1.4696 H       1  UNL1        0.0399
     19 H           4.2027   -0.3362   -0.2099 H       1  UNL1        0.0381
     20 H           3.2877   -0.0858    1.3238 H       1  UNL1        0.0381
     21 H           3.9989    2.3625   -1.1527 H       1  UNL1        0.1017
     22 H          -0.7928   -1.6377   -0.8252 H       1  UNL1        0.0465
     23 H          -0.2959   -0.4168   -2.0517 H       1  UNL1        0.0465
     24 H          -2.6738   -0.1954   -2.3383 H       1  UNL1        0.0281
     25 H          -2.9595   -0.9013   -0.6746 H       1  UNL1        0.0281
     26 H          -3.4256    1.4729   -0.3747 H       1  UNL1        0.0289
     27 H          -1.8812    1.9225   -1.2341 H       1  UNL1        0.0289
     28 H          -1.3183    1.8123    1.1488 H       1  UNL1        0.0616
     29 H          -4.0124   -0.6062    2.4510 H       1  UNL1        0.2951
@<TRIPOS>BOND
     1     1     2    1
     2     2     3    1
     3     3     4    1
     4     2     5    1
     5     5     6    2
     6     5     7   am
     7     7     8    1
     8     8     9    1
     9     9    10    1
    10    10    11    1
    11    11    12    1
    12    12    13    2
    13    12    14    1
    14    11     7    1
    15     1    15    1
    16     1    16    1
    17     1    17    1
    18     2    18    1
    19     3    19    1
    20     3    20    1
    21     4    21    1
    22     8    22    1
    23     8    23    1
    24     9    24    1
    25     9    25    1
    26    10    26    1
    27    10    27    1
    28    11    28    1
    29    14    29    1
