@<TRIPOS>MOLECULE
*****
 56 60 0 0 0
SMALL
GASTEIGER

@<TRIPOS>ATOM
      1 C           9.5278    0.7196    0.9804 C.3     1  UNL1       -0.0307
      2 C           8.2324    0.0154    0.5855 C.3     1  UNL1        0.0868
      3 O           7.1205    0.8325    0.9005 O.3     1  UNL1       -0.4922
      4 C           5.8543    0.3885    0.6268 C.ar    1  UNL1        0.1211
      5 C           5.5743   -0.8440    0.0446 C.ar    1  UNL1       -0.0193
      6 C           4.2787   -1.2503   -0.2133 C.ar    1  UNL1       -0.0506
      7 C           3.2185   -0.4301    0.1059 C.ar    1  UNL1       -0.0170
      8 C           1.9094   -0.7794   -0.1265 C.ar    1  UNL1       -0.0448
      9 C           0.8618    0.0502    0.1967 C.ar    1  UNL1        0.0035
     10 C          -0.5329   -0.2552   -0.0505 C.ar    1  UNL1        0.1053
     11 N          -1.4834   -0.1917    0.8858 N.ar    1  UNL1       -0.1686
     12 N          -2.6548   -0.5149    0.3310 N.ar    1  UNL1       -0.2454
     13 C          -3.9204   -0.5375    1.0740 C.3     1  UNL1        0.0467
     14 C          -4.6107    0.7805    1.1187 C.3     1  UNL1       -0.0191
     15 C          -4.9731    1.3102   -0.2445 C.3     1  UNL1       -0.0359
     16 C          -6.1272    0.6203   -0.8929 C.3     1  UNL1       -0.0038
     17 N          -7.2754    0.4526   -0.0245 N.3     1  UNL1       -0.3160
     18 C          -6.8939   -0.0886    1.2674 C.3     1  UNL1       -0.0038
     19 C          -5.8699    0.7500    1.9575 C.3     1  UNL1       -0.0359
     20 C          -2.4611   -0.7858   -0.9595 C.ar    1  UNL1        0.1638
     21 N          -3.2972   -1.1548   -1.9533 N.ar    1  UNL1       -0.2161
     22 C          -2.8127   -1.3587   -3.1809 C.ar    1  UNL1        0.1204
     23 N          -1.5093   -1.2068   -3.4614 N.ar    1  UNL1       -0.2204
     24 C          -0.6504   -0.8450   -2.5129 C.ar    1  UNL1        0.1308
     25 N           0.7223   -0.6605   -2.8109 N.pl3   1  UNL1       -0.3425
     26 C          -1.0987   -0.6234   -1.2270 C.ar    1  UNL1        0.0859
     27 C           1.1495    1.2745    0.7761 C.ar    1  UNL1       -0.0519
     28 C           2.4459    1.6447    1.0179 C.ar    1  UNL1       -0.0533
     29 C           3.4957    0.8015    0.6876 C.ar    1  UNL1       -0.0144
     30 C           4.7768    1.1912    0.9370 C.ar    1  UNL1       -0.0122
     31 H           9.8830    0.3641    1.9774 H       1  UNL1        0.0262
     32 H           9.3610    1.8170    0.9980 H       1  UNL1        0.0262
     33 H          10.3276    0.4990    0.2390 H       1  UNL1        0.0262
     34 H           8.2446   -0.2385   -0.5074 H       1  UNL1        0.0694
     35 H           8.1670   -0.9165    1.2028 H       1  UNL1        0.0694
     36 H           6.4110   -1.4642   -0.1948 H       1  UNL1        0.0654
     37 H           4.0887   -2.2142   -0.6670 H       1  UNL1        0.0625
     38 H           1.7150   -1.7438   -0.5578 H       1  UNL1        0.0630
     39 H          -3.6638   -0.8306    2.1098 H       1  UNL1        0.0512
     40 H          -4.6085   -1.2734    0.5966 H       1  UNL1        0.0512
     41 H          -3.9122    1.5359    1.5697 H       1  UNL1        0.0319
     42 H          -5.2284    2.3970   -0.1419 H       1  UNL1        0.0281
     43 H          -4.1161    1.2899   -0.9534 H       1  UNL1        0.0281
     44 H          -5.8811   -0.3250   -1.4125 H       1  UNL1        0.0424
     45 H          -6.4833    1.3073   -1.7174 H       1  UNL1        0.0424
     46 H          -7.9032   -0.2466   -0.4788 H       1  UNL1        0.1219
     47 H          -7.8165   -0.0893    1.8895 H       1  UNL1        0.0424
     48 H          -6.5856   -1.1580    1.1866 H       1  UNL1        0.0424
     49 H          -5.6915    0.3168    2.9598 H       1  UNL1        0.0281
     50 H          -6.2523    1.7879    2.0043 H       1  UNL1        0.0281
     51 H          -3.4461   -1.6585   -4.0198 H       1  UNL1        0.1048
     52 H           1.3716   -1.4147   -3.1063 H       1  UNL1        0.1437
     53 H           1.0992    0.3042   -2.7250 H       1  UNL1        0.1437
     54 H           0.3439    1.9329    1.0349 H       1  UNL1        0.0624
     55 H           2.6548    2.6222    1.4794 H       1  UNL1        0.0624
     56 H           4.9244    2.1786    1.3993 H       1  UNL1        0.0660
@<TRIPOS>BOND
     1     1     2    1
     2     2     3    1
     3     3     4    1
     4     4     5   ar
     5     5     6   ar
     6     6     7   ar
     7     7     8   ar
     8     8     9   ar
     9     9    10    1
    10    10    11   ar
    11    11    12   ar
    12    12    13    1
    13    13    14    1
    14    14    15    1
    15    15    16    1
    16    16    17    1
    17    17    18    1
    18    18    19    1
    19    12    20   ar
    20    20    21   ar
    21    21    22   ar
    22    22    23   ar
    23    23    24   ar
    24    24    25    1
    25    24    26   ar
    26     9    27   ar
    27    27    28   ar
    28    28    29   ar
    29    29    30   ar
    30    30     4   ar
    31    29     7   ar
    32    26    10   ar
    33    19    14    1
    34    26    20   ar
    35     1    31    1
    36     1    32    1
    37     1    33    1
    38     2    34    1
    39     2    35    1
    40     5    36    1
    41     6    37    1
    42     8    38    1
    43    13    39    1
    44    13    40    1
    45    14    41    1
    46    15    42    1
    47    15    43    1
    48    16    44    1
    49    16    45    1
    50    17    46    1
    51    18    47    1
    52    18    48    1
    53    19    49    1
    54    19    50    1
    55    22    51    1
    56    25    52    1
    57    25    53    1
    58    27    54    1
    59    28    55    1
    60    30    56    1
