
     RDKit          3D

 49 51  0  0  0  0  0  0  0  0999 V2000
    0.2858    0.4537    1.9956 C   0  0  1  0  0  0  0  0  0  0  0  0
    0.5756   -0.2508    3.2958 C   0  0  0  0  0  0  0  0  0  0  0  0
    1.4764    0.3122    1.1260 C   0  0  0  0  0  0  0  0  0  0  0  0
    2.4553    0.2110    0.4305 C   0  0  0  0  0  0  0  0  0  0  0  0
    3.6274    0.1132   -0.3893 C   0  0  0  0  0  0  0  0  0  0  0  0
    4.0287   -1.0367   -1.0310 C   0  0  0  0  0  0  0  0  0  0  0  0
    3.1582   -2.2514   -0.8370 C   0  0  0  0  0  0  0  0  0  0  0  0
    5.1328   -1.0767   -1.7875 N   0  0  0  0  0  0  0  0  0  0  0  0
    5.9182   -0.0104   -1.9718 C   0  0  0  0  0  0  0  0  0  0  0  0
    7.0852   -0.0798   -2.7807 N   0  0  0  0  0  0  0  0  0  0  0  0
    5.5848    1.1588   -1.3697 N   0  0  0  0  0  0  0  0  0  0  0  0
    4.4688    1.1793   -0.6116 C   0  0  0  0  0  0  0  0  0  0  0  0
    4.2071    2.4409   -0.0276 N   0  0  0  0  0  0  0  0  0  0  0  0
   -0.8537   -0.0856    1.2492 C   0  0  0  0  0  0  0  0  0  0  0  0
   -0.9354   -1.3994    0.8833 C   0  0  0  0  0  0  0  0  0  0  0  0
   -2.0108   -1.8959    0.1801 C   0  0  0  0  0  0  0  0  0  0  0  0
   -2.2150   -3.1967   -0.2489 O   0  0  0  0  0  0  0  0  0  0  0  0
   -1.3109   -4.2469   -0.0157 C   0  0  0  0  0  0  0  0  0  0  0  0
   -3.0739   -1.0735   -0.1934 C   0  0  0  0  0  0  0  0  0  0  0  0
   -3.0352    0.2781    0.1588 C   0  0  0  0  0  0  0  0  0  0  0  0
   -1.9277    0.7060    0.8625 C   0  0  0  0  0  0  0  0  0  0  0  0
   -4.0602    1.2669   -0.1527 C   0  0  0  0  0  0  0  0  0  0  0  0
   -4.8252    1.2006   -1.2970 C   0  0  0  0  0  0  0  0  0  0  0  0
   -5.7962    2.1722   -1.5541 C   0  0  0  0  0  0  0  0  0  0  0  0
   -5.9818    3.2054   -0.6437 C   0  0  0  0  0  0  0  0  0  0  0  0
   -5.2194    3.2837    0.5107 C   0  0  0  0  0  0  0  0  0  0  0  0
   -4.2627    2.3113    0.7470 C   0  0  0  0  0  0  0  0  0  0  0  0
    0.1240    1.5363    2.2128 H   0  0  0  0  0  0  0  0  0  0  0  0
    1.4962    0.2428    3.7075 H   0  0  0  0  0  0  0  0  0  0  0  0
    0.8843   -1.2952    3.0251 H   0  0  0  0  0  0  0  0  0  0  0  0
   -0.2488   -0.2121    4.0055 H   0  0  0  0  0  0  0  0  0  0  0  0
    3.6906   -3.0998   -1.3129 H   0  0  0  0  0  0  0  0  0  0  0  0
    2.1550   -2.1146   -1.2867 H   0  0  0  0  0  0  0  0  0  0  0  0
    3.1169   -2.4128    0.2565 H   0  0  0  0  0  0  0  0  0  0  0  0
    7.9357    0.1912   -2.2034 H   0  0  0  0  0  0  0  0  0  0  0  0
    7.2237   -0.3325   -3.7636 H   0  0  0  0  0  0  0  0  0  0  0  0
    4.0260    3.3505    0.3975 H   0  0  0  0  0  0  0  0  0  0  0  0
    3.2544    2.7817   -0.3465 H   0  0  0  0  0  0  0  0  0  0  0  0
   -0.1665   -2.1150    1.1239 H   0  0  0  0  0  0  0  0  0  0  0  0
   -1.2958   -4.9004   -0.9166 H   0  0  0  0  0  0  0  0  0  0  0  0
   -1.6798   -4.8912    0.8314 H   0  0  0  0  0  0  0  0  0  0  0  0
   -0.2715   -3.9134    0.1696 H   0  0  0  0  0  0  0  0  0  0  0  0
   -3.9547   -1.3750   -0.7437 H   0  0  0  0  0  0  0  0  0  0  0  0
   -1.8522    1.7634    1.1624 H   0  0  0  0  0  0  0  0  0  0  0  0
   -4.6825    0.3903   -2.0149 H   0  0  0  0  0  0  0  0  0  0  0  0
   -6.4203    2.1683   -2.4316 H   0  0  0  0  0  0  0  0  0  0  0  0
   -6.7251    3.9888   -0.7955 H   0  0  0  0  0  0  0  0  0  0  0  0
   -5.3996    4.1175    1.2023 H   0  0  0  0  0  0  0  0  0  0  0  0
   -3.7060    2.4416    1.6728 H   0  0  0  0  0  0  0  0  0  0  0  0
  1  2  1  0
  1  3  1  0
  3  4  3  0
  4  5  1  0
  5  6  2  0
  6  7  1  0
  6  8  1  0
  8  9  2  0
  9 10  1  0
  9 11  1  0
 11 12  2  0
 12 13  1  0
  1 14  1  0
 14 15  2  0
 15 16  1  0
 16 17  1  0
 17 18  1  0
 16 19  2  0
 19 20  1  0
 20 21  2  0
 20 22  1  0
 22 23  2  0
 23 24  1  0
 24 25  2  0
 25 26  1  0
 26 27  2  0
 12  5  1  0
 21 14  1  0
 27 22  1  0
  1 28  1  1
  2 29  1  0
  2 30  1  0
  2 31  1  0
  7 32  1  0
  7 33  1  0
  7 34  1  0
 10 35  1  0
 10 36  1  0
 13 37  1  0
 13 38  1  0
 15 39  1  0
 18 40  1  0
 18 41  1  0
 18 42  1  0
 19 43  1  0
 21 44  1  0
 23 45  1  0
 24 46  1  0
 25 47  1  0
 26 48  1  0
 27 49  1  0
M  END
$$$$
