@<TRIPOS>MOLECULE
*****
 43 46 0 0 0
SMALL
GASTEIGER

@<TRIPOS>ATOM
      1 C          -0.6530    2.6547   -1.4328 C.3     1  UNL1       -0.0259
      2 C          -1.5900    2.0122   -0.4316 C.2     1  UNL1        0.0191
      3 C          -1.2286    1.0909    0.3810 C.2     1  UNL1        0.0559
      4 C           0.1052    0.5412    0.4898 C.2     1  UNL1        0.2478
      5 O           0.2111   -0.4080    1.4116 O.2     1  UNL1       -0.2701
      6 N           1.2841    0.8088   -0.1721 N.am    1  UNL1       -0.2816
      7 C           2.5636    0.1768    0.0315 C.ar    1  UNL1        0.0344
      8 C           2.7419   -0.8045    0.9443 C.ar    1  UNL1       -0.0384
      9 C           4.0227   -1.3621    1.0751 C.ar    1  UNL1       -0.0345
     10 C           5.0801   -0.9560    0.3252 C.ar    1  UNL1        0.0658
     11 N           6.3863   -1.3255    0.2613 N.ar    1  UNL1       -0.2770
     12 N           7.0183   -0.6125   -0.6525 N.ar    1  UNL1       -0.1812
     13 C           6.1278    0.2308   -1.1944 C.ar    1  UNL1        0.0569
     14 C           4.8955    0.0460   -0.6061 C.ar    1  UNL1        0.0212
     15 C           3.6514    0.5919   -0.7372 C.ar    1  UNL1       -0.0298
     16 C          -2.3193    0.3876    1.1856 C.3     1  UNL1        0.0814
     17 C          -2.8046   -0.8130    0.5428 C.ar    1  UNL1       -0.0224
     18 C          -3.6806   -0.7350   -0.5182 C.ar    1  UNL1       -0.0538
     19 C          -4.1682   -1.8799   -1.1449 C.ar    1  UNL1       -0.0261
     20 C          -3.7843   -3.1202   -0.7163 C.ar    1  UNL1        0.1234
     21 F          -4.2900   -4.2233   -1.3638 F       1  UNL1       -0.2055
     22 C          -2.9206   -3.2205    0.3295 C.ar    1  UNL1       -0.0261
     23 C          -2.4423   -2.0587    0.9454 C.ar    1  UNL1       -0.0538
     24 N          -3.3183    1.3176    1.5578 N.am    1  UNL1       -0.2881
     25 C          -3.7506    2.3119    0.6547 C.2     1  UNL1        0.3043
     26 O          -4.9111    2.8309    0.7988 O.2     1  UNL1       -0.2525
     27 N          -2.8859    2.6991   -0.3773 N.am    1  UNL1       -0.2729
     28 H          -1.2406    3.3835   -2.0721 H       1  UNL1        0.0290
     29 H          -0.2980    1.9234   -2.1772 H       1  UNL1        0.0290
     30 H           0.0788    3.2773   -0.9313 H       1  UNL1        0.0290
     31 H           1.2992    1.5506   -0.9059 H       1  UNL1        0.1551
     32 H           2.0150   -1.2299    1.6038 H       1  UNL1        0.0637
     33 H           4.1535   -2.1460    1.8081 H       1  UNL1        0.0639
     34 H           6.7894   -2.0809    0.8765 H       1  UNL1        0.1889
     35 H           6.3515    0.9398   -1.9699 H       1  UNL1        0.0854
     36 H           3.5105    1.3692   -1.4605 H       1  UNL1        0.0643
     37 H          -1.7905    0.0990    2.1317 H       1  UNL1        0.0601
     38 H          -4.0153    0.1934   -0.8963 H       1  UNL1        0.0622
     39 H          -4.8635   -1.7934   -1.9863 H       1  UNL1        0.0646
     40 H          -2.6274   -4.2070    0.6557 H       1  UNL1        0.0646
     41 H          -1.7816   -2.1963    1.7544 H       1  UNL1        0.0622
     42 H          -3.7806    1.2987    2.5407 H       1  UNL1        0.1512
     43 H          -3.1412    3.4373   -1.0788 H       1  UNL1        0.1561
@<TRIPOS>BOND
     1     1     2    1
     2     2     3    2
     3     3     4    1
     4     4     5    2
     5     4     6   am
     6     6     7    1
     7     7     8   ar
     8     8     9   ar
     9     9    10   ar
    10    10    11   ar
    11    11    12   ar
    12    12    13   ar
    13    13    14   ar
    14    14    15   ar
    15     3    16    1
    16    16    17    1
    17    17    18   ar
    18    18    19   ar
    19    19    20   ar
    20    20    21    1
    21    20    22   ar
    22    22    23   ar
    23    16    24    1
    24    24    25   am
    25    25    26    2
    26    25    27   am
    27    27     2    1
    28    15     7   ar
    29    23    17   ar
    30    14    10   ar
    31     1    28    1
    32     1    29    1
    33     1    30    1
    34     6    31    1
    35     8    32    1
    36     9    33    1
    37    11    34    1
    38    13    35    1
    39    15    36    1
    40    16    37    1
    41    18    38    1
    42    19    39    1
    43    22    40    1
    44    23    41    1
    45    24    42    1
    46    27    43    1
