@<TRIPOS>MOLECULE
*****
 51 55 0 0 0
SMALL
GASTEIGER

@<TRIPOS>ATOM
      1 O          -1.9234    2.9949    1.3204 O.2     1  UNL1       -0.2526
      2 C          -1.7996    1.9018    0.7191 C.2     1  UNL1        0.3024
      3 N          -2.9254    1.3153    0.0373 N.am    1  UNL1       -0.2958
      4 C          -4.1927    2.0112    0.0620 C.3     1  UNL1        0.0320
      5 C          -5.1073    2.0083   -1.1087 C.3     1  UNL1       -0.0254
      6 C          -5.4840    1.2356    0.0790 C.3     1  UNL1        0.0043
      7 C          -5.4739   -0.2431    0.1139 C.ar    1  UNL1       -0.0425
      8 C          -6.0227   -0.9289    1.1792 C.ar    1  UNL1       -0.0582
      9 C          -6.0085   -2.3279    1.1731 C.ar    1  UNL1       -0.0615
     10 C          -5.4517   -3.0028    0.1127 C.ar    1  UNL1       -0.0617
     11 C          -4.9012   -2.3358   -0.9561 C.ar    1  UNL1       -0.0615
     12 C          -4.9285   -0.9445   -0.9249 C.ar    1  UNL1       -0.0582
     13 N          -0.5481    1.2193    0.6974 N.am    1  UNL1       -0.2856
     14 C           0.6283    1.7450    1.3589 C.3     1  UNL1        0.0168
     15 C           1.7700    1.9676    0.3888 C.3     1  UNL1       -0.0257
     16 C           1.8437    0.8268   -0.5963 C.3     1  UNL1        0.0410
     17 C           3.2114    0.3926   -0.8888 C.ar    1  UNL1        0.2309
     18 N           4.1516   -0.1031   -0.0451 N.ar    1  UNL1       -0.1897
     19 C           5.2679   -0.3726   -0.7339 C.ar    1  UNL1        0.2219
     20 C           6.5328   -0.9157   -0.2544 C.ar    1  UNL1        0.1291
     21 C           6.5704   -2.0673    0.4972 C.ar    1  UNL1        0.0567
     22 N           7.7446   -2.5309    0.9160 N.ar    1  UNL1       -0.2595
     23 C           8.9069   -1.8987    0.6220 C.ar    1  UNL1        0.0457
     24 C           8.8936   -0.7449   -0.1286 C.ar    1  UNL1        0.0465
     25 N           7.7037   -0.2800   -0.5498 N.ar    1  UNL1       -0.2487
     26 N           4.9733   -0.0282   -2.0003 N.ar    1  UNL1       -0.0544
     27 O           3.7635    0.4193   -2.0777 O.2     1  UNL1       -0.3374
     28 C           1.0602   -0.3776   -0.1253 C.3     1  UNL1       -0.0257
     29 C          -0.4139   -0.0369    0.0041 C.3     1  UNL1        0.0168
     30 H          -2.7549    0.4085   -0.4399 H       1  UNL1        0.1505
     31 H          -4.1950    2.9823    0.6435 H       1  UNL1        0.0505
     32 H          -4.7422    1.5583   -2.0527 H       1  UNL1        0.0290
     33 H          -5.6930    2.9499   -1.3302 H       1  UNL1        0.0290
     34 H          -6.2666    1.7053    0.7573 H       1  UNL1        0.0367
     35 H          -6.4554   -0.3982    2.0032 H       1  UNL1        0.0620
     36 H          -6.4320   -2.8634    1.9952 H       1  UNL1        0.0618
     37 H          -5.4412   -4.0913    0.1089 H       1  UNL1        0.0618
     38 H          -4.4757   -2.8854   -1.7658 H       1  UNL1        0.0618
     39 H          -4.5064   -0.4242   -1.7646 H       1  UNL1        0.0620
     40 H           0.9671    1.0511    2.1797 H       1  UNL1        0.0465
     41 H           0.3393    2.7279    1.8094 H       1  UNL1        0.0465
     42 H           1.5998    2.9442   -0.1109 H       1  UNL1        0.0288
     43 H           2.6904    2.0647    0.9950 H       1  UNL1        0.0288
     44 H           1.3640    1.1746   -1.5286 H       1  UNL1        0.0397
     45 H           5.6181   -2.5519    0.7165 H       1  UNL1        0.0852
     46 H           9.8732   -2.2815    0.9675 H       1  UNL1        0.0845
     47 H           9.8014   -0.2105   -0.3847 H       1  UNL1        0.0845
     48 H           1.4776   -0.8186    0.7938 H       1  UNL1        0.0288
     49 H           1.1372   -1.1418   -0.9257 H       1  UNL1        0.0288
     50 H          -0.9126   -0.8496    0.5562 H       1  UNL1        0.0465
     51 H          -0.8341    0.0506   -1.0240 H       1  UNL1        0.0465
@<TRIPOS>BOND
     1     1     2    2
     2     2     3   am
     3     3     4    1
     4     4     5    1
     5     5     6    1
     6     6     7    1
     7     7     8   ar
     8     8     9   ar
     9     9    10   ar
    10    10    11   ar
    11    11    12   ar
    12     2    13   am
    13    13    14    1
    14    14    15    1
    15    15    16    1
    16    16    17    1
    17    17    18   ar
    18    18    19   ar
    19    19    20    1
    20    20    21   ar
    21    21    22   ar
    22    22    23   ar
    23    23    24   ar
    24    24    25   ar
    25    19    26   ar
    26    26    27   ar
    27    16    28    1
    28    28    29    1
    29     6     4    1
    30    12     7   ar
    31    29    13    1
    32    27    17   ar
    33    25    20   ar
    34     3    30    1
    35     4    31    1
    36     5    32    1
    37     5    33    1
    38     6    34    1
    39     8    35    1
    40     9    36    1
    41    10    37    1
    42    11    38    1
    43    12    39    1
    44    14    40    1
    45    14    41    1
    46    15    42    1
    47    15    43    1
    48    16    44    1
    49    21    45    1
    50    23    46    1
    51    24    47    1
    52    28    48    1
    53    28    49    1
    54    29    50    1
    55    29    51    1
