@<TRIPOS>MOLECULE
*****
 59 61 0 0 0
SMALL
GASTEIGER

@<TRIPOS>ATOM
      1 C           6.6606    1.7455   -1.8980 C.3     1  UNL1       -0.0611
      2 C           5.5427    1.5723   -0.9160 C.3     1  UNL1       -0.0051
      3 C           5.9907    0.6276    0.1884 C.3     1  UNL1        0.2059
      4 C           7.1599    1.2341    0.8361 C.2     1  UNL1        0.3490
      5 O           8.2382    1.4822    0.2177 O.2     1  UNL1       -0.2465
      6 O           7.1193    1.5627    2.1799 O.3     1  UNL1       -0.4778
      7 C           6.2763   -0.7612   -0.3431 C.3     1  UNL1        0.0018
      8 C           5.1074   -1.1915   -1.1803 C.3     1  UNL1       -0.0201
      9 C           3.8539   -1.0671   -0.3716 C.ar    1  UNL1       -0.0053
     10 C           2.7288   -1.7892   -0.7641 C.ar    1  UNL1       -0.0517
     11 C           1.5480   -1.7129   -0.0574 C.ar    1  UNL1       -0.0195
     12 C           1.5218   -0.8950    1.0530 C.ar    1  UNL1        0.1240
     13 O           0.3745   -0.7634    1.8167 O.3     1  UNL1       -0.4917
     14 C          -0.8302   -1.4298    1.5396 C.3     1  UNL1        0.0927
     15 C          -1.8269   -0.9952    2.6328 C.3     1  UNL1        0.0157
     16 C          -1.9347    0.5013    2.4887 C.3     1  UNL1        0.0927
     17 O          -2.3830    0.8791    1.2648 O.3     1  UNL1       -0.4904
     18 C          -3.5586    0.6897    0.6288 C.ar    1  UNL1        0.1387
     19 C          -4.6216    0.0434    1.1673 C.ar    1  UNL1       -0.0182
     20 C          -5.8147   -0.1273    0.4784 C.ar    1  UNL1       -0.0548
     21 C          -5.9476    0.3673   -0.7924 C.ar    1  UNL1       -0.0432
     22 C          -7.1908    0.2191   -1.5792 C.3     1  UNL1       -0.0215
     23 C          -7.4948   -1.2618   -1.7571 C.3     1  UNL1       -0.0586
     24 C          -8.3668    0.8401   -0.8418 C.3     1  UNL1       -0.0586
     25 C          -4.8694    1.0274   -1.3463 C.ar    1  UNL1       -0.0364
     26 C          -3.7076    1.1931   -0.6757 C.ar    1  UNL1        0.0828
     27 CL         -2.3313    2.0293   -1.3679 Cl      1  UNL1       -0.0797
     28 C           2.6366   -0.1780    1.4441 C.ar    1  UNL1        0.0221
     29 C           3.8338   -0.2486    0.7366 C.ar    1  UNL1        0.1287
     30 O           4.9544    0.4807    1.1414 O.3     1  UNL1       -0.4741
     31 H           7.2839    0.8335   -1.9895 H       1  UNL1        0.0231
     32 H           7.2992    2.6171   -1.5970 H       1  UNL1        0.0231
     33 H           6.2626    1.9261   -2.9395 H       1  UNL1        0.0231
     34 H           4.6500    1.2212   -1.4353 H       1  UNL1        0.0307
     35 H           5.3677    2.5551   -0.4188 H       1  UNL1        0.0307
     36 H           7.9379    1.6153    2.7787 H       1  UNL1        0.2952
     37 H           6.2876   -1.4354    0.5622 H       1  UNL1        0.0312
     38 H           7.2321   -0.8578   -0.8529 H       1  UNL1        0.0312
     39 H           5.0378   -0.6662   -2.1359 H       1  UNL1        0.0316
     40 H           5.2500   -2.2817   -1.3959 H       1  UNL1        0.0316
     41 H           2.7591   -2.4313   -1.6410 H       1  UNL1        0.0623
     42 H           0.6484   -2.2424   -0.3072 H       1  UNL1        0.0654
     43 H          -0.6511   -2.5234    1.6010 H       1  UNL1        0.0697
     44 H          -1.2328   -1.2212    0.5319 H       1  UNL1        0.0697
     45 H          -1.2561   -1.2260    3.5908 H       1  UNL1        0.0331
     46 H          -2.7407   -1.5577    2.5850 H       1  UNL1        0.0331
     47 H          -0.9413    0.9443    2.7770 H       1  UNL1        0.0697
     48 H          -2.6201    0.8519    3.3106 H       1  UNL1        0.0697
     49 H          -4.5770   -0.3469    2.1793 H       1  UNL1        0.0655
     50 H          -6.6245   -0.6500    0.9570 H       1  UNL1        0.0622
     51 H          -7.0850    0.6839   -2.5604 H       1  UNL1        0.0343
     52 H          -7.8620   -1.6343   -0.7820 H       1  UNL1        0.0235
     53 H          -8.2765   -1.3477   -2.5232 H       1  UNL1        0.0235
     54 H          -6.5699   -1.8200   -1.9809 H       1  UNL1        0.0235
     55 H          -8.1603    0.8633    0.2429 H       1  UNL1        0.0235
     56 H          -9.2629    0.2622   -1.1045 H       1  UNL1        0.0235
     57 H          -8.4884    1.9064   -1.1539 H       1  UNL1        0.0235
     58 H          -4.9838    1.4160   -2.3528 H       1  UNL1        0.0636
     59 H           2.6471    0.4717    2.3102 H       1  UNL1        0.0691
@<TRIPOS>BOND
     1     1     2    1
     2     3     2    1
     3     3     4    1
     4     4     5    2
     5     4     6    1
     6     3     7    1
     7     7     8    1
     8     8     9    1
     9     9    10   ar
    10    10    11   ar
    11    11    12   ar
    12    12    13    1
    13    13    14    1
    14    14    15    1
    15    15    16    1
    16    16    17    1
    17    17    18    1
    18    18    19   ar
    19    19    20   ar
    20    20    21   ar
    21    21    22    1
    22    22    23    1
    23    22    24    1
    24    21    25   ar
    25    25    26   ar
    26    26    27    1
    27    12    28   ar
    28    28    29   ar
    29    29    30    1
    30    30     3    1
    31    29     9   ar
    32    26    18   ar
    33     1    31    1
    34     1    32    1
    35     1    33    1
    36     2    34    1
    37     2    35    1
    38     6    36    1
    39     7    37    1
    40     7    38    1
    41     8    39    1
    42     8    40    1
    43    10    41    1
    44    11    42    1
    45    14    43    1
    46    14    44    1
    47    15    45    1
    48    15    46    1
    49    16    47    1
    50    16    48    1
    51    19    49    1
    52    20    50    1
    53    22    51    1
    54    23    52    1
    55    23    53    1
    56    23    54    1
    57    24    55    1
    58    24    56    1
    59    24    57    1
    60    25    58    1
    61    28    59    1
