
     RDKit          3D

 59 61  0  0  0  0  0  0  0  0999 V2000
    6.6606    1.7455   -1.8980 C   0  0  0  0  0  0  0  0  0  0  0  0
    5.5427    1.5723   -0.9160 C   0  0  0  0  0  0  0  0  0  0  0  0
    5.9907    0.6276    0.1884 C   0  0  2  0  0  0  0  0  0  0  0  0
    7.1599    1.2341    0.8361 C   0  0  0  0  0  0  0  0  0  0  0  0
    8.2382    1.4822    0.2177 O   0  0  0  0  0  0  0  0  0  0  0  0
    7.1193    1.5627    2.1799 O   0  0  0  0  0  0  0  0  0  0  0  0
    6.2763   -0.7612   -0.3431 C   0  0  0  0  0  0  0  0  0  0  0  0
    5.1074   -1.1915   -1.1803 C   0  0  0  0  0  0  0  0  0  0  0  0
    3.8539   -1.0671   -0.3716 C   0  0  0  0  0  0  0  0  0  0  0  0
    2.7288   -1.7892   -0.7641 C   0  0  0  0  0  0  0  0  0  0  0  0
    1.5480   -1.7129   -0.0574 C   0  0  0  0  0  0  0  0  0  0  0  0
    1.5218   -0.8950    1.0530 C   0  0  0  0  0  0  0  0  0  0  0  0
    0.3745   -0.7634    1.8167 O   0  0  0  0  0  0  0  0  0  0  0  0
   -0.8302   -1.4298    1.5396 C   0  0  0  0  0  0  0  0  0  0  0  0
   -1.8269   -0.9952    2.6328 C   0  0  0  0  0  0  0  0  0  0  0  0
   -1.9347    0.5013    2.4887 C   0  0  0  0  0  0  0  0  0  0  0  0
   -2.3830    0.8791    1.2648 O   0  0  0  0  0  0  0  0  0  0  0  0
   -3.5586    0.6897    0.6288 C   0  0  0  0  0  0  0  0  0  0  0  0
   -4.6216    0.0434    1.1673 C   0  0  0  0  0  0  0  0  0  0  0  0
   -5.8147   -0.1273    0.4784 C   0  0  0  0  0  0  0  0  0  0  0  0
   -5.9476    0.3673   -0.7924 C   0  0  0  0  0  0  0  0  0  0  0  0
   -7.1908    0.2191   -1.5792 C   0  0  0  0  0  0  0  0  0  0  0  0
   -7.4948   -1.2618   -1.7571 C   0  0  0  0  0  0  0  0  0  0  0  0
   -8.3668    0.8401   -0.8418 C   0  0  0  0  0  0  0  0  0  0  0  0
   -4.8694    1.0274   -1.3463 C   0  0  0  0  0  0  0  0  0  0  0  0
   -3.7076    1.1931   -0.6757 C   0  0  0  0  0  0  0  0  0  0  0  0
   -2.3313    2.0293   -1.3679 Cl  0  0  0  0  0  0  0  0  0  0  0  0
    2.6366   -0.1780    1.4441 C   0  0  0  0  0  0  0  0  0  0  0  0
    3.8338   -0.2486    0.7366 C   0  0  0  0  0  0  0  0  0  0  0  0
    4.9544    0.4807    1.1414 O   0  0  0  0  0  0  0  0  0  0  0  0
    7.2839    0.8335   -1.9895 H   0  0  0  0  0  0  0  0  0  0  0  0
    7.2992    2.6171   -1.5970 H   0  0  0  0  0  0  0  0  0  0  0  0
    6.2626    1.9261   -2.9395 H   0  0  0  0  0  0  0  0  0  0  0  0
    4.6500    1.2212   -1.4353 H   0  0  0  0  0  0  0  0  0  0  0  0
    5.3677    2.5551   -0.4188 H   0  0  0  0  0  0  0  0  0  0  0  0
    7.9379    1.6153    2.7787 H   0  0  0  0  0  0  0  0  0  0  0  0
    6.2876   -1.4354    0.5622 H   0  0  0  0  0  0  0  0  0  0  0  0
    7.2321   -0.8578   -0.8529 H   0  0  0  0  0  0  0  0  0  0  0  0
    5.0378   -0.6662   -2.1359 H   0  0  0  0  0  0  0  0  0  0  0  0
    5.2500   -2.2817   -1.3959 H   0  0  0  0  0  0  0  0  0  0  0  0
    2.7591   -2.4313   -1.6410 H   0  0  0  0  0  0  0  0  0  0  0  0
    0.6484   -2.2424   -0.3072 H   0  0  0  0  0  0  0  0  0  0  0  0
   -0.6511   -2.5234    1.6010 H   0  0  0  0  0  0  0  0  0  0  0  0
   -1.2328   -1.2212    0.5319 H   0  0  0  0  0  0  0  0  0  0  0  0
   -1.2561   -1.2260    3.5908 H   0  0  0  0  0  0  0  0  0  0  0  0
   -2.7407   -1.5577    2.5850 H   0  0  0  0  0  0  0  0  0  0  0  0
   -0.9413    0.9443    2.7770 H   0  0  0  0  0  0  0  0  0  0  0  0
   -2.6201    0.8519    3.3106 H   0  0  0  0  0  0  0  0  0  0  0  0
   -4.5770   -0.3469    2.1793 H   0  0  0  0  0  0  0  0  0  0  0  0
   -6.6245   -0.6500    0.9570 H   0  0  0  0  0  0  0  0  0  0  0  0
   -7.0850    0.6839   -2.5604 H   0  0  0  0  0  0  0  0  0  0  0  0
   -7.8620   -1.6343   -0.7820 H   0  0  0  0  0  0  0  0  0  0  0  0
   -8.2765   -1.3477   -2.5232 H   0  0  0  0  0  0  0  0  0  0  0  0
   -6.5699   -1.8200   -1.9809 H   0  0  0  0  0  0  0  0  0  0  0  0
   -8.1603    0.8633    0.2429 H   0  0  0  0  0  0  0  0  0  0  0  0
   -9.2629    0.2622   -1.1045 H   0  0  0  0  0  0  0  0  0  0  0  0
   -8.4884    1.9064   -1.1539 H   0  0  0  0  0  0  0  0  0  0  0  0
   -4.9838    1.4160   -2.3528 H   0  0  0  0  0  0  0  0  0  0  0  0
    2.6471    0.4717    2.3102 H   0  0  0  0  0  0  0  0  0  0  0  0
  1  2  1  0
  3  2  1  6
  3  4  1  0
  4  5  2  0
  4  6  1  0
  3  7  1  0
  7  8  1  0
  8  9  1  0
  9 10  2  0
 10 11  1  0
 11 12  2  0
 12 13  1  0
 13 14  1  0
 14 15  1  0
 15 16  1  0
 16 17  1  0
 17 18  1  0
 18 19  2  0
 19 20  1  0
 20 21  2  0
 21 22  1  0
 22 23  1  0
 22 24  1  0
 21 25  1  0
 25 26  2  0
 26 27  1  0
 12 28  1  0
 28 29  2  0
 29 30  1  0
 30  3  1  0
 29  9  1  0
 26 18  1  0
  1 31  1  0
  1 32  1  0
  1 33  1  0
  2 34  1  0
  2 35  1  0
  6 36  1  0
  7 37  1  0
  7 38  1  0
  8 39  1  0
  8 40  1  0
 10 41  1  0
 11 42  1  0
 14 43  1  0
 14 44  1  0
 15 45  1  0
 15 46  1  0
 16 47  1  0
 16 48  1  0
 19 49  1  0
 20 50  1  0
 22 51  1  0
 23 52  1  0
 23 53  1  0
 23 54  1  0
 24 55  1  0
 24 56  1  0
 24 57  1  0
 25 58  1  0
 28 59  1  0
M  END
$$$$
