@<TRIPOS>MOLECULE
*****
 24 25 0 0 0
SMALL
GASTEIGER

@<TRIPOS>ATOM
      1 C          -0.7073   -0.9704    2.2453 C.3     1  UNL1       -0.0045
      2 C          -1.2313   -0.5995    0.8971 C.ar    1  UNL1        0.1307
      3 N          -2.5043   -0.7833    0.4421 N.ar    1  UNL1       -0.2058
      4 C          -2.5529   -0.3148   -0.8117 C.ar    1  UNL1        0.2592
      5 N          -1.3344    0.1484   -1.1227 N.ar    1  UNL1       -0.1378
      6 N          -0.5176   -0.0170   -0.0941 N.ar    1  UNL1       -0.2165
      7 C           0.8562    0.3619   -0.0727 C.ar    1  UNL1        0.0702
      8 C           1.7241   -0.7252   -0.0105 C.ar    1  UNL1       -0.0178
      9 C           3.0841   -0.5856    0.0194 C.ar    1  UNL1        0.0444
     10 CL          4.1784   -1.9689    0.0983 Cl      1  UNL1       -0.0834
     11 C           3.6078    0.6999   -0.0143 C.ar    1  UNL1       -0.0249
     12 C           2.7670    1.7913   -0.0760 C.ar    1  UNL1        0.0444
     13 CL          3.3494    3.4586   -0.1222 Cl      1  UNL1       -0.0834
     14 C           1.3895    1.6367   -0.1057 C.ar    1  UNL1       -0.0178
     15 C          -3.7416   -0.3335   -1.6342 C.2     1  UNL1        0.3762
     16 O          -3.8069    0.1450   -2.9258 O.3     1  UNL1       -0.4749
     17 O          -4.7956   -0.8317   -1.1112 O.2     1  UNL1       -0.2415
     18 H          -1.2681   -1.8721    2.5880 H       1  UNL1        0.0308
     19 H          -0.9326   -0.1661    2.9990 H       1  UNL1        0.0308
     20 H           0.3792   -1.1824    2.1968 H       1  UNL1        0.0308
     21 H           1.3928   -1.7586    0.0189 H       1  UNL1        0.0653
     22 H           4.6845    0.8717    0.0071 H       1  UNL1        0.0647
     23 H           0.6446    2.4199   -0.1536 H       1  UNL1        0.0653
     24 H          -4.6650    0.5757   -3.2572 H       1  UNL1        0.2955
@<TRIPOS>BOND
     1     1     2    1
     2     2     3   ar
     3     3     4   ar
     4     4     5   ar
     5     5     6   ar
     6     6     7    1
     7     7     8   ar
     8     8     9   ar
     9     9    10    1
    10     9    11   ar
    11    11    12   ar
    12    12    13    1
    13    12    14   ar
    14     4    15    1
    15    15    16    1
    16    15    17    2
    17     6     2   ar
    18    14     7   ar
    19     1    18    1
    20     1    19    1
    21     1    20    1
    22     8    21    1
    23    11    22    1
    24    14    23    1
    25    16    24    1
