@<TRIPOS>MOLECULE
*****
 101 105 0 0 0
SMALL
GASTEIGER

@<TRIPOS>ATOM
      1 C           6.7030    1.7175    4.3103 C.3     1  UNL1       -0.0280
      2 C           6.8304    0.7880    3.1290 C.3     1  UNL1        0.0976
      3 C           7.7259    1.4422    2.1125 C.3     1  UNL1       -0.0280
      4 O           5.5989    0.3791    2.6087 O.3     1  UNL1       -0.4601
      5 C           5.1459   -0.9252    2.5595 C.2     1  UNL1        0.3381
      6 O           5.9642   -1.7699    3.0438 O.2     1  UNL1       -0.2478
      7 C           3.8712   -1.3969    2.0284 C.3     1  UNL1        0.1698
      8 O           3.7964   -2.7932    2.2716 O.3     1  UNL1       -0.3789
      9 C           3.6696   -1.1422    0.5381 C.3     1  UNL1        0.0597
     10 C           3.8640    0.2709    0.1340 C.3     1  UNL1       -0.0287
     11 C           3.7239    0.5918   -1.3089 C.3     1  UNL1       -0.0393
     12 C           4.7480   -0.1502   -2.1548 C.3     1  UNL1       -0.0502
     13 C           4.6949    0.2698   -3.5788 C.3     1  UNL1       -0.0528
     14 C           4.6516    1.7699   -3.7613 C.3     1  UNL1       -0.0530
     15 C           4.9996    2.4260   -2.4433 C.3     1  UNL1       -0.0528
     16 C           3.8682    2.0950   -1.4830 C.3     1  UNL1       -0.0502
     17 N           2.3663   -1.6509    0.1537 N.am    1  UNL1       -0.3079
     18 C           1.1958   -0.8783    0.0785 C.2     1  UNL1        0.2340
     19 O           1.1948    0.3630    0.3618 O.2     1  UNL1       -0.2738
     20 C          -0.0775   -1.5399   -0.3364 C.3     1  UNL1        0.1048
     21 C          -0.0923   -1.8927   -1.7937 C.3     1  UNL1        0.0180
     22 C           0.9584   -2.8120   -2.2541 C.ar    1  UNL1        0.0610
     23 C           0.7941   -4.1947   -2.2266 C.ar    1  UNL1        0.0243
     24 N           1.9331   -4.7080   -2.7142 N.ar    1  UNL1       -0.3506
     25 C           2.7528   -3.7025   -3.0243 C.ar    1  UNL1        0.0936
     26 N           2.1772   -2.5308   -2.7515 N.ar    1  UNL1       -0.2408
     27 N          -1.1949   -0.6192   -0.1346 N.am    1  UNL1       -0.3034
     28 C          -2.1608   -0.9347    0.8421 C.2     1  UNL1        0.2175
     29 O          -2.0103   -1.9976    1.4970 O.2     1  UNL1       -0.2755
     30 C          -3.3340   -0.0582    1.1158 C.3     1  UNL1        0.0478
     31 C          -2.8864    1.3473    1.4833 C.3     1  UNL1        0.0355
     32 C          -4.0968    2.1674    1.7408 C.2     1  UNL1        0.2164
     33 O          -4.6882    1.9569    2.8292 O.2     1  UNL1       -0.2756
     34 N          -4.5808    3.1333    0.8389 N.am    1  UNL1       -0.2971
     35 C          -3.9584    3.4346   -0.4290 C.3     1  UNL1        0.0382
     36 C          -4.5498    4.7705   -0.8977 C.3     1  UNL1        0.0635
     37 O          -4.5177    5.6576    0.1587 O.3     1  UNL1       -0.3767
     38 C          -5.4569    5.3765    1.1400 C.3     1  UNL1        0.0635
     39 C          -5.7706    3.8879    1.1706 C.3     1  UNL1        0.0382
     40 C          -4.2925   -0.0164   -0.0303 C.3     1  UNL1       -0.0155
     41 C          -4.8807   -1.3009   -0.4075 C.ar    1  UNL1       -0.0389
     42 C          -4.4054   -2.0484   -1.4666 C.ar    1  UNL1       -0.0580
     43 C          -4.9027   -3.2636   -1.8427 C.ar    1  UNL1       -0.0609
     44 C          -5.9439   -3.7795   -1.1231 C.ar    1  UNL1       -0.0540
     45 C          -6.4669   -3.0697   -0.0426 C.ar    1  UNL1       -0.0176
     46 C          -7.5332   -3.6494    0.6442 C.ar    1  UNL1       -0.0540
     47 C          -8.0635   -2.9529    1.7089 C.ar    1  UNL1       -0.0612
     48 C          -7.5581   -1.7307    2.0794 C.ar    1  UNL1       -0.0612
     49 C          -6.5048   -1.1858    1.3809 C.ar    1  UNL1       -0.0538
     50 C          -5.9465   -1.8472    0.3140 C.ar    1  UNL1       -0.0147
     51 H           5.8211    2.3966    4.2227 H       1  UNL1        0.0265
     52 H           6.5800    1.1731    5.2742 H       1  UNL1        0.0265
     53 H           7.6075    2.3481    4.4329 H       1  UNL1        0.0265
     54 H           7.3570   -0.1222    3.4844 H       1  UNL1        0.0728
     55 H           7.1922    2.1679    1.4654 H       1  UNL1        0.0265
     56 H           8.3199    0.7058    1.5232 H       1  UNL1        0.0265
     57 H           8.4742    2.0439    2.6838 H       1  UNL1        0.0265
     58 H           2.9747   -0.9722    2.5285 H       1  UNL1        0.0729
     59 H           4.1325   -3.0186    3.1542 H       1  UNL1        0.2106
     60 H           4.4078   -1.8185    0.0061 H       1  UNL1        0.0529
     61 H           4.9419    0.5779    0.4376 H       1  UNL1        0.0287
     62 H           3.2666    0.9666    0.7385 H       1  UNL1        0.0287
     63 H           2.7457    0.3195   -1.7383 H       1  UNL1        0.0301
     64 H           4.5083   -1.2231   -2.0934 H       1  UNL1        0.0268
     65 H           5.7811    0.0719   -1.7740 H       1  UNL1        0.0268
     66 H           3.8834   -0.1992   -4.1431 H       1  UNL1        0.0265
     67 H           5.6526   -0.0657   -4.0748 H       1  UNL1        0.0265
     68 H           3.6007    2.0335   -3.9987 H       1  UNL1        0.0265
     69 H           5.2808    2.1344   -4.5778 H       1  UNL1        0.0265
     70 H           5.9789    2.1160   -2.0465 H       1  UNL1        0.0265
     71 H           4.9463    3.5316   -2.6143 H       1  UNL1        0.0265
     72 H           4.1299    2.5884   -0.5170 H       1  UNL1        0.0268
     73 H           2.9572    2.5790   -1.8432 H       1  UNL1        0.0268
     74 H           2.2702   -2.7078   -0.0735 H       1  UNL1        0.1491
     75 H          -0.1472   -2.4544    0.2602 H       1  UNL1        0.0598
     76 H          -1.1151   -2.2550   -2.0759 H       1  UNL1        0.0351
     77 H           0.0155   -0.9347   -2.4001 H       1  UNL1        0.0351
     78 H          -0.0920   -4.7277   -1.8745 H       1  UNL1        0.0825
     79 H           2.0857   -5.7491   -2.8087 H       1  UNL1        0.1662
     80 H           3.7480   -3.8086   -3.4416 H       1  UNL1        0.1027
     81 H          -1.2460    0.2313   -0.7086 H       1  UNL1        0.1495
     82 H          -3.8306   -0.4550    2.0152 H       1  UNL1        0.0402
     83 H          -2.2438    1.7892    0.7017 H       1  UNL1        0.0366
     84 H          -2.3187    1.2723    2.4399 H       1  UNL1        0.0366
     85 H          -4.2390    2.6491   -1.1687 H       1  UNL1        0.0487
     86 H          -2.8697    3.4994   -0.4014 H       1  UNL1        0.0487
     87 H          -3.9692    5.1965   -1.7372 H       1  UNL1        0.0575
     88 H          -5.6032    4.5672   -1.2218 H       1  UNL1        0.0575
     89 H          -6.3747    5.9523    0.9148 H       1  UNL1        0.0575
     90 H          -5.0872    5.6241    2.1614 H       1  UNL1        0.0575
     91 H          -6.1704    3.5808    2.1751 H       1  UNL1        0.0487
     92 H          -6.5293    3.6796    0.3789 H       1  UNL1        0.0487
     93 H          -5.0523    0.7776    0.1045 H       1  UNL1        0.0321
     94 H          -3.6914    0.3349   -0.9230 H       1  UNL1        0.0321
     95 H          -3.5754   -1.6289   -2.0332 H       1  UNL1        0.0620
     96 H          -4.5114   -3.8419   -2.6870 H       1  UNL1        0.0618
     97 H          -6.3681   -4.7527   -1.3972 H       1  UNL1        0.0624
     98 H          -7.9339   -4.6164    0.3516 H       1  UNL1        0.0624
     99 H          -8.8898   -3.3952    2.2459 H       1  UNL1        0.0618
    100 H          -8.0318   -1.2388    2.9338 H       1  UNL1        0.0618
    101 H          -6.1241   -0.2262    1.6694 H       1  UNL1        0.0624
@<TRIPOS>BOND
     1     1     2    1
     2     2     3    1
     3     2     4    1
     4     4     5    1
     5     5     6    2
     6     5     7    1
     7     7     8    1
     8     7     9    1
     9     9    10    1
    10    10    11    1
    11    11    12    1
    12    12    13    1
    13    13    14    1
    14    14    15    1
    15    15    16    1
    16     9    17    1
    17    17    18   am
    18    18    19    2
    19    18    20    1
    20    20    21    1
    21    21    22    1
    22    22    23   ar
    23    23    24   ar
    24    24    25   ar
    25    25    26   ar
    26    20    27    1
    27    27    28   am
    28    28    29    2
    29    28    30    1
    30    30    31    1
    31    31    32    1
    32    32    33    2
    33    32    34   am
    34    34    35    1
    35    35    36    1
    36    36    37    1
    37    37    38    1
    38    38    39    1
    39    30    40    1
    40    40    41    1
    41    41    42   ar
    42    42    43   ar
    43    43    44   ar
    44    44    45   ar
    45    45    46   ar
    46    46    47   ar
    47    47    48   ar
    48    48    49   ar
    49    49    50   ar
    50    16    11    1
    51    26    22   ar
    52    39    34    1
    53    50    41   ar
    54    50    45   ar
    55     1    51    1
    56     1    52    1
    57     1    53    1
    58     2    54    1
    59     3    55    1
    60     3    56    1
    61     3    57    1
    62     7    58    1
    63     8    59    1
    64     9    60    1
    65    10    61    1
    66    10    62    1
    67    11    63    1
    68    12    64    1
    69    12    65    1
    70    13    66    1
    71    13    67    1
    72    14    68    1
    73    14    69    1
    74    15    70    1
    75    15    71    1
    76    16    72    1
    77    16    73    1
    78    17    74    1
    79    20    75    1
    80    21    76    1
    81    21    77    1
    82    23    78    1
    83    24    79    1
    84    25    80    1
    85    27    81    1
    86    30    82    1
    87    31    83    1
    88    31    84    1
    89    35    85    1
    90    35    86    1
    91    36    87    1
    92    36    88    1
    93    38    89    1
    94    38    90    1
    95    39    91    1
    96    39    92    1
    97    40    93    1
    98    40    94    1
    99    42    95    1
   100    43    96    1
   101    44    97    1
   102    46    98    1
   103    47    99    1
   104    48   100    1
   105    49   101    1
