@<TRIPOS>MOLECULE
*****
 34 36 0 0 0
SMALL
GASTEIGER

@<TRIPOS>ATOM
      1 C          -1.6769    3.9710    0.2715 C.3     1  UNL1        0.0820
      2 O          -1.7346    2.5994    0.0300 O.3     1  UNL1       -0.4646
      3 C          -0.7865    1.6764    0.3397 C.2     1  UNL1        0.3362
      4 O           0.2660    2.0547    0.9019 O.2     1  UNL1       -0.2453
      5 C          -0.9548    0.2784    0.0409 C.2     1  UNL1        0.0532
      6 C          -0.0613   -0.6368    0.3136 C.2     1  UNL1       -0.0281
      7 C           1.3479   -0.2470    0.2993 C.ar    1  UNL1       -0.0185
      8 C           1.9032    0.5842   -0.6565 C.ar    1  UNL1       -0.0528
      9 C           3.2317    0.9396   -0.6473 C.ar    1  UNL1       -0.0400
     10 C           4.0835    0.4615    0.3512 C.ar    1  UNL1        0.0761
     11 CL          5.7611    0.8860    0.3979 Cl      1  UNL1       -0.0806
     12 C           3.5573   -0.3674    1.3149 C.ar    1  UNL1        0.1422
     13 F           4.3761   -0.8353    2.2869 F       1  UNL1       -0.2039
     14 C           2.2267   -0.7052    1.2800 C.ar    1  UNL1       -0.0176
     15 C          -0.3434   -2.0475    0.6318 C.3     1  UNL1       -0.0147
     16 C          -1.6798   -2.5456    0.2483 C.3     1  UNL1        0.0099
     17 C          -1.8521   -2.4623   -1.2496 C.3     1  UNL1       -0.0395
     18 C          -1.9382   -1.0671   -1.6945 C.3     1  UNL1       -0.0358
     19 C          -2.2514   -0.1341   -0.5930 C.3     1  UNL1        0.0375
     20 S          -2.9308   -1.2669    0.7074 S.3     1  UNL1       -0.1487
     21 H          -2.3506    4.4661   -0.4844 H       1  UNL1        0.0661
     22 H          -0.6599    4.3444    0.0837 H       1  UNL1        0.0661
     23 H          -2.0398    4.2524    1.2851 H       1  UNL1        0.0661
     24 H           1.2801    0.9769   -1.4477 H       1  UNL1        0.0624
     25 H           3.6596    1.5889   -1.3963 H       1  UNL1        0.0633
     26 H           1.8418   -1.3562    2.0472 H       1  UNL1        0.0653
     27 H          -0.2717   -2.1293    1.7579 H       1  UNL1        0.0324
     28 H           0.4647   -2.7026    0.2538 H       1  UNL1        0.0324
     29 H          -1.9587   -3.5181    0.6415 H       1  UNL1        0.0415
     30 H          -1.0657   -3.0276   -1.7954 H       1  UNL1        0.0276
     31 H          -2.8554   -2.9484   -1.4465 H       1  UNL1        0.0276
     32 H          -2.7017   -0.9779   -2.5160 H       1  UNL1        0.0279
     33 H          -0.9710   -0.7920   -2.2023 H       1  UNL1        0.0279
     34 H          -2.9154    0.6876   -0.7837 H       1  UNL1        0.0463
@<TRIPOS>BOND
     1     1     2    1
     2     2     3    1
     3     3     4    2
     4     3     5    1
     5     5     6    2
     6     6     7    1
     7     7     8   ar
     8     8     9   ar
     9     9    10   ar
    10    10    11    1
    11    10    12   ar
    12    12    13    1
    13    12    14   ar
    14     6    15    1
    15    15    16    1
    16    16    17    1
    17    17    18    1
    18    18    19    1
    19    19    20    1
    20    19     5    1
    21    14     7   ar
    22    20    16    1
    23     1    21    1
    24     1    22    1
    25     1    23    1
    26     8    24    1
    27     9    25    1
    28    14    26    1
    29    15    27    1
    30    15    28    1
    31    16    29    1
    32    17    30    1
    33    17    31    1
    34    18    32    1
    35    18    33    1
    36    19    34    1
