
     RDKit          3D

 34 36  0  0  0  0  0  0  0  0999 V2000
   -1.6769    3.9710    0.2715 C   0  0  0  0  0  0  0  0  0  0  0  0
   -1.7346    2.5994    0.0300 O   0  0  0  0  0  0  0  0  0  0  0  0
   -0.7865    1.6764    0.3397 C   0  0  0  0  0  0  0  0  0  0  0  0
    0.2660    2.0547    0.9019 O   0  0  0  0  0  0  0  0  0  0  0  0
   -0.9548    0.2784    0.0409 C   0  0  0  0  0  0  0  0  0  0  0  0
   -0.0613   -0.6368    0.3136 C   0  0  0  0  0  0  0  0  0  0  0  0
    1.3479   -0.2470    0.2993 C   0  0  0  0  0  0  0  0  0  0  0  0
    1.9032    0.5842   -0.6565 C   0  0  0  0  0  0  0  0  0  0  0  0
    3.2317    0.9396   -0.6473 C   0  0  0  0  0  0  0  0  0  0  0  0
    4.0835    0.4615    0.3512 C   0  0  0  0  0  0  0  0  0  0  0  0
    5.7611    0.8860    0.3979 Cl  0  0  0  0  0  0  0  0  0  0  0  0
    3.5573   -0.3674    1.3149 C   0  0  0  0  0  0  0  0  0  0  0  0
    4.3761   -0.8353    2.2869 F   0  0  0  0  0  0  0  0  0  0  0  0
    2.2267   -0.7052    1.2800 C   0  0  0  0  0  0  0  0  0  0  0  0
   -0.3434   -2.0475    0.6318 C   0  0  0  0  0  0  0  0  0  0  0  0
   -1.6798   -2.5456    0.2483 C   0  0  0  0  0  0  0  0  0  0  0  0
   -1.8521   -2.4623   -1.2496 C   0  0  0  0  0  0  0  0  0  0  0  0
   -1.9382   -1.0671   -1.6945 C   0  0  0  0  0  0  0  0  0  0  0  0
   -2.2514   -0.1341   -0.5930 C   0  0  0  0  0  0  0  0  0  0  0  0
   -2.9308   -1.2669    0.7074 S   0  0  0  0  0  0  0  0  0  0  0  0
   -2.3506    4.4661   -0.4844 H   0  0  0  0  0  0  0  0  0  0  0  0
   -0.6599    4.3444    0.0837 H   0  0  0  0  0  0  0  0  0  0  0  0
   -2.0398    4.2524    1.2851 H   0  0  0  0  0  0  0  0  0  0  0  0
    1.2801    0.9769   -1.4477 H   0  0  0  0  0  0  0  0  0  0  0  0
    3.6596    1.5889   -1.3963 H   0  0  0  0  0  0  0  0  0  0  0  0
    1.8418   -1.3562    2.0472 H   0  0  0  0  0  0  0  0  0  0  0  0
   -0.2717   -2.1293    1.7579 H   0  0  0  0  0  0  0  0  0  0  0  0
    0.4647   -2.7026    0.2538 H   0  0  0  0  0  0  0  0  0  0  0  0
   -1.9587   -3.5181    0.6415 H   0  0  0  0  0  0  0  0  0  0  0  0
   -1.0657   -3.0276   -1.7954 H   0  0  0  0  0  0  0  0  0  0  0  0
   -2.8554   -2.9484   -1.4465 H   0  0  0  0  0  0  0  0  0  0  0  0
   -2.7017   -0.9779   -2.5160 H   0  0  0  0  0  0  0  0  0  0  0  0
   -0.9710   -0.7920   -2.2023 H   0  0  0  0  0  0  0  0  0  0  0  0
   -2.9154    0.6876   -0.7837 H   0  0  0  0  0  0  0  0  0  0  0  0
  1  2  1  0
  2  3  1  0
  3  4  2  0
  3  5  1  0
  5  6  2  0
  6  7  1  0
  7  8  2  0
  8  9  1  0
  9 10  2  0
 10 11  1  0
 10 12  1  0
 12 13  1  0
 12 14  2  0
  6 15  1  0
 15 16  1  0
 16 17  1  0
 17 18  1  0
 18 19  1  0
 19 20  1  0
 19  5  1  0
 14  7  1  0
 20 16  1  0
  1 21  1  0
  1 22  1  0
  1 23  1  0
  8 24  1  0
  9 25  1  0
 14 26  1  0
 15 27  1  0
 15 28  1  0
 16 29  1  0
 17 30  1  0
 17 31  1  0
 18 32  1  0
 18 33  1  0
 19 34  1  0
M  END
$$$$
