
     RDKit          3D

 46 47  0  0  0  0  0  0  0  0999 V2000
   -6.7088   -0.3999    1.2243 C   0  0  0  0  0  0  0  0  0  0  0  0
   -5.9485    0.4193    0.2038 C   0  0  0  0  0  0  0  0  0  0  0  0
   -6.7074    0.3348   -1.1010 C   0  0  0  0  0  0  0  0  0  0  0  0
   -4.6486   -0.0971    0.1116 O   0  0  0  0  0  0  0  0  0  0  0  0
   -3.5216    0.6502    0.3024 C   0  0  0  0  0  0  0  0  0  0  0  0
   -3.7045    1.8602    0.5766 O   0  0  0  0  0  0  0  0  0  0  0  0
   -2.1860    0.0053    0.1765 C   0  0  0  0  0  0  0  0  0  0  0  0
   -2.1172   -0.6798   -1.1490 C   0  0  0  0  0  0  0  0  0  0  0  0
   -2.0295   -1.0610    1.2666 C   0  0  0  0  0  0  0  0  0  0  0  0
   -1.2071    0.9725    0.4007 O   0  0  0  0  0  0  0  0  0  0  0  0
    0.1374    0.6542    0.3174 C   0  0  0  0  0  0  0  0  0  0  0  0
    0.5516    0.8751   -1.0044 C   0  0  0  0  0  0  0  0  0  0  0  0
    1.8746    0.6399   -1.3977 C   0  0  0  0  0  0  0  0  0  0  0  0
    2.8026    0.1838   -0.4903 C   0  0  0  0  0  0  0  0  0  0  0  0
    2.3690   -0.0260    0.8027 C   0  0  0  0  0  0  0  0  0  0  0  0
    1.0720    0.2015    1.2027 C   0  0  0  0  0  0  0  0  0  0  0  0
    4.1691   -0.0632   -0.9131 C   0  0  0  0  0  0  0  0  0  0  0  0
    4.2432   -0.3686   -2.1537 O   0  0  0  0  0  0  0  0  0  0  0  0
    5.4095   -0.0168   -0.1658 C   0  0  0  0  0  0  0  0  0  0  0  0
    5.5576    0.6769    1.0167 C   0  0  0  0  0  0  0  0  0  0  0  0
    6.7321    0.7291    1.7600 C   0  0  0  0  0  0  0  0  0  0  0  0
    7.8288    0.0393    1.2827 C   0  0  0  0  0  0  0  0  0  0  0  0
    9.3726    0.0176    2.1157 Cl  0  0  0  0  0  0  0  0  0  0  0  0
    7.6854   -0.6536    0.1034 C   0  0  0  0  0  0  0  0  0  0  0  0
    6.5117   -0.7110   -0.6480 C   0  0  0  0  0  0  0  0  0  0  0  0
   -6.0496   -1.0322    1.8451 H   0  0  0  0  0  0  0  0  0  0  0  0
   -7.2251    0.2964    1.9409 H   0  0  0  0  0  0  0  0  0  0  0  0
   -7.4439   -1.0767    0.7429 H   0  0  0  0  0  0  0  0  0  0  0  0
   -5.9117    1.5057    0.4519 H   0  0  0  0  0  0  0  0  0  0  0  0
   -7.7839    0.2605   -0.8431 H   0  0  0  0  0  0  0  0  0  0  0  0
   -6.5909    1.2683   -1.6979 H   0  0  0  0  0  0  0  0  0  0  0  0
   -6.4655   -0.5736   -1.6885 H   0  0  0  0  0  0  0  0  0  0  0  0
   -2.8644   -1.5277   -1.1022 H   0  0  0  0  0  0  0  0  0  0  0  0
   -1.1354   -1.1774   -1.3331 H   0  0  0  0  0  0  0  0  0  0  0  0
   -2.4634   -0.0478   -1.9909 H   0  0  0  0  0  0  0  0  0  0  0  0
   -2.9766   -1.6247    1.3667 H   0  0  0  0  0  0  0  0  0  0  0  0
   -1.8166   -0.4867    2.1936 H   0  0  0  0  0  0  0  0  0  0  0  0
   -1.2099   -1.7306    0.9665 H   0  0  0  0  0  0  0  0  0  0  0  0
   -0.0505    1.2327   -1.8441 H   0  0  0  0  0  0  0  0  0  0  0  0
    2.2119    0.8090   -2.4294 H   0  0  0  0  0  0  0  0  0  0  0  0
    3.0375   -0.3902    1.5696 H   0  0  0  0  0  0  0  0  0  0  0  0
    0.6384    0.0699    2.1758 H   0  0  0  0  0  0  0  0  0  0  0  0
    4.7389    1.2437    1.4422 H   0  0  0  0  0  0  0  0  0  0  0  0
    6.8092    1.2846    2.6830 H   0  0  0  0  0  0  0  0  0  0  0  0
    8.5334   -1.2074   -0.2987 H   0  0  0  0  0  0  0  0  0  0  0  0
    6.4801   -1.2785   -1.5684 H   0  0  0  0  0  0  0  0  0  0  0  0
  1  2  1  0
  2  3  1  0
  2  4  1  0
  4  5  1  0
  5  6  2  0
  5  7  1  0
  7  8  1  0
  7  9  1  0
  7 10  1  0
 10 11  1  0
 11 12  2  0
 12 13  1  0
 13 14  2  0
 14 15  1  0
 15 16  2  0
 14 17  1  0
 17 18  2  0
 17 19  1  0
 19 20  2  0
 20 21  1  0
 21 22  2  0
 22 23  1  0
 22 24  1  0
 24 25  2  0
 16 11  1  0
 25 19  1  0
  1 26  1  0
  1 27  1  0
  1 28  1  0
  2 29  1  0
  3 30  1  0
  3 31  1  0
  3 32  1  0
  8 33  1  0
  8 34  1  0
  8 35  1  0
  9 36  1  0
  9 37  1  0
  9 38  1  0
 12 39  1  0
 13 40  1  0
 15 41  1  0
 16 42  1  0
 20 43  1  0
 21 44  1  0
 24 45  1  0
 25 46  1  0
M  END
$$$$
