@<TRIPOS>MOLECULE
*****
 59 64 0 0 0
SMALL
GASTEIGER

@<TRIPOS>ATOM
      1 C           9.6896    0.0084    2.8576 C.3     1  UNL1        0.0789
      2 O           8.9272   -0.9696    2.1807 O.3     1  UNL1       -0.4936
      3 C           7.7085   -0.5884    1.5908 C.ar    1  UNL1        0.1381
      4 C           7.2682    0.6966    1.6682 C.ar    1  UNL1       -0.0163
      5 C           6.0583    1.0640    1.0798 C.ar    1  UNL1       -0.0277
      6 C           5.3099    0.1158    0.4181 C.ar    1  UNL1        0.1259
      7 C           4.0386    0.5205   -0.1961 C.2     1  UNL1        0.2666
      8 O           3.6139    1.6907   -0.1376 O.2     1  UNL1       -0.2682
      9 N           3.2829   -0.4488   -0.8693 N.am    1  UNL1       -0.2802
     10 C           2.0289   -0.1661   -1.5047 C.ar    1  UNL1        0.0343
     11 C           1.9520    0.2327   -2.8201 C.ar    1  UNL1       -0.0370
     12 C           0.7261    0.4923   -3.3838 C.ar    1  UNL1       -0.0172
     13 C          -0.4790    0.3653   -2.6605 C.ar    1  UNL1        0.1346
     14 C          -0.3877   -0.0268   -1.3762 C.ar    1  UNL1        0.0285
     15 C           0.8683   -0.2941   -0.7904 C.ar    1  UNL1       -0.0312
     16 C          -1.5918   -0.2207   -0.5100 C.3     1  UNL1        0.1217
     17 C          -1.6961   -1.6739   -0.1079 C.3     1  UNL1       -0.0096
     18 C          -1.2469   -2.0710    1.2192 C.3     1  UNL1        0.0037
     19 S          -1.7271   -0.9265    2.5465 S.3     1  UNL1       -0.0910
     20 C          -1.5746    0.7043    1.7867 C.2     1  UNL1        0.1478
     21 N          -1.5027    1.8554    2.6399 N.pl3   1  UNL1       -0.3380
     22 N          -1.5403    0.7361    0.5480 N.2     1  UNL1       -0.2472
     23 C          -2.8175    0.1354   -1.2769 C.ar    1  UNL1        0.0333
     24 C          -4.0645    0.0464   -0.6331 C.ar    1  UNL1       -0.0262
     25 C          -5.2573    0.3270   -1.2390 C.ar    1  UNL1        0.0748
     26 C          -6.5542    0.2266   -0.5438 C.ar    1  UNL1        0.0061
     27 C          -6.6657   -0.1491    0.7426 C.ar    1  UNL1       -0.0342
     28 C          -7.8995   -0.2354    1.3724 C.ar    1  UNL1        0.0313
     29 N          -9.0013    0.0591    0.6929 N.ar    1  UNL1       -0.2276
     30 C          -8.9170    0.4391   -0.5999 C.ar    1  UNL1        0.2138
     31 F         -10.0817    0.7253   -1.2340 F       1  UNL1       -0.1839
     32 C          -7.6999    0.5301   -1.2410 C.ar    1  UNL1        0.0019
     33 N          -5.2272    0.7132   -2.5377 N.ar    1  UNL1       -0.2161
     34 C          -4.0627    0.8024   -3.1579 C.ar    1  UNL1        0.2567
     35 F          -4.0805    1.1962   -4.4686 F       1  UNL1       -0.1799
     36 C          -2.8184    0.5204   -2.5600 C.ar    1  UNL1        0.1883
     37 O          -1.6780    0.6628   -3.3391 O.3     1  UNL1       -0.4508
     38 N           5.7744   -1.1239    0.3658 N.ar    1  UNL1       -0.2467
     39 C           6.9371   -1.5160    0.9214 C.ar    1  UNL1        0.0700
     40 H           9.8453    0.8534    2.1624 H       1  UNL1        0.0660
     41 H          10.6672   -0.4630    3.0960 H       1  UNL1        0.0660
     42 H           9.1869    0.3913    3.7538 H       1  UNL1        0.0660
     43 H           7.8784    1.4318    2.1982 H       1  UNL1        0.0655
     44 H           5.7751    2.0980    1.1821 H       1  UNL1        0.0641
     45 H           3.6468   -1.4357   -0.9154 H       1  UNL1        0.1552
     46 H           2.8407    0.3410   -3.4031 H       1  UNL1        0.0637
     47 H           0.6295    0.8115   -4.4270 H       1  UNL1        0.0655
     48 H           0.9329   -0.5993    0.2475 H       1  UNL1        0.0641
     49 H          -2.7766   -1.9544   -0.2005 H       1  UNL1        0.0303
     50 H          -1.2078   -2.2408   -0.9398 H       1  UNL1        0.0303
     51 H          -1.7502   -3.0553    1.5282 H       1  UNL1        0.0381
     52 H          -0.1760   -2.3100    1.3653 H       1  UNL1        0.0381
     53 H          -0.5941    2.3662    2.6417 H       1  UNL1        0.1442
     54 H          -2.2726    2.1922    3.2296 H       1  UNL1        0.1442
     55 H          -4.0873   -0.2618    0.4028 H       1  UNL1        0.0644
     56 H          -5.8148   -0.3971    1.3359 H       1  UNL1        0.0639
     57 H          -7.9583   -0.5381    2.4003 H       1  UNL1        0.0831
     58 H          -7.6936    0.8394   -2.2762 H       1  UNL1        0.0669
     59 H           7.3162   -2.5250    0.8794 H       1  UNL1        0.0867
@<TRIPOS>BOND
     1     1     2    1
     2     2     3    1
     3     3     4   ar
     4     4     5   ar
     5     5     6   ar
     6     6     7    1
     7     7     8    2
     8     7     9   am
     9     9    10    1
    10    10    11   ar
    11    11    12   ar
    12    12    13   ar
    13    13    14   ar
    14    14    15   ar
    15    14    16    1
    16    16    17    1
    17    17    18    1
    18    18    19    1
    19    19    20    1
    20    20    21    1
    21    20    22    2
    22    16    23    1
    23    23    24   ar
    24    24    25   ar
    25    25    26    1
    26    26    27   ar
    27    27    28   ar
    28    28    29   ar
    29    29    30   ar
    30    30    31    1
    31    30    32   ar
    32    25    33   ar
    33    33    34   ar
    34    34    35    1
    35    34    36   ar
    36    36    37    1
    37     6    38   ar
    38    38    39   ar
    39    39     3   ar
    40    15    10   ar
    41    22    16    1
    42    36    23   ar
    43    37    13    1
    44    32    26   ar
    45     1    40    1
    46     1    41    1
    47     1    42    1
    48     4    43    1
    49     5    44    1
    50     9    45    1
    51    11    46    1
    52    12    47    1
    53    15    48    1
    54    17    49    1
    55    17    50    1
    56    18    51    1
    57    18    52    1
    58    21    53    1
    59    21    54    1
    60    24    55    1
    61    27    56    1
    62    28    57    1
    63    32    58    1
    64    39    59    1
