@<TRIPOS>MOLECULE
*****
 56 58 0 0 0
SMALL
GASTEIGER

@<TRIPOS>ATOM
      1 C          -1.5529    2.2340   -2.1232 C.3     1  UNL1       -0.0466
      2 C          -1.6166    0.9487   -1.3221 C.3     1  UNL1        0.0418
      3 C          -2.8143    1.0173   -0.4266 C.3     1  UNL1        0.0160
      4 N          -2.9677   -0.2121    0.3215 N.3     1  UNL1       -0.2986
      5 C          -4.0347   -0.0807    1.2829 C.3     1  UNL1        0.0129
      6 C          -5.3890    0.0259    0.6118 C.3     1  UNL1        0.0594
      7 C          -5.8382   -1.0838   -0.2413 C.2     1  UNL1        0.2179
      8 N          -5.0261   -2.2268   -0.4307 N.am    1  UNL1       -0.3288
      9 O          -6.9510   -1.0148   -0.8051 O.2     1  UNL1       -0.2754
     10 C          -6.4698    0.6241    1.5123 C.3     1  UNL1       -0.0369
     11 C          -5.9425    1.3869    0.3520 C.3     1  UNL1       -0.0369
     12 C          -1.7285   -0.4159    1.0423 C.3     1  UNL1        0.0134
     13 C          -0.5696   -0.5836    0.0765 C.3     1  UNL1        0.0336
     14 N          -0.3722    0.6821   -0.6161 N.3     1  UNL1       -0.1714
     15 S           0.8740    0.5472   -1.8040 S.O2    1  UNL1        0.0612
     16 O           0.4536   -0.5135   -2.7862 O.2     1  UNL1       -0.1528
     17 O           0.9466    1.8468   -2.5524 O.2     1  UNL1       -0.1528
     18 C           2.4029    0.1367   -1.1060 C.ar    1  UNL1        0.1055
     19 C           2.7622   -1.1860   -0.9732 C.ar    1  UNL1       -0.0350
     20 C           4.0057   -1.4716   -0.4021 C.ar    1  UNL1       -0.0537
     21 C           4.8736   -0.4968    0.0270 C.ar    1  UNL1       -0.0077
     22 C           6.1891   -0.8287    0.6343 C.3     1  UNL1        0.1828
     23 C           6.9503    0.4331    0.9863 C.3     1  UNL1       -0.0233
     24 O           6.9775   -1.5511   -0.2651 O.3     1  UNL1       -0.3758
     25 C           6.0357   -1.6546    1.8771 C.3     1  UNL1        0.4221
     26 F           5.4050   -2.8514    1.6768 F       1  UNL1       -0.1673
     27 F           7.3331   -1.9618    2.3117 F       1  UNL1       -0.1673
     28 F           5.4688   -0.9178    2.8990 F       1  UNL1       -0.1673
     29 C           4.4975    0.8226   -0.1139 C.ar    1  UNL1       -0.0537
     30 C           3.2554    1.1336   -0.6837 C.ar    1  UNL1       -0.0350
     31 H          -2.5873    2.6686   -2.1658 H       1  UNL1        0.0246
     32 H          -0.8909    2.9814   -1.6771 H       1  UNL1        0.0246
     33 H          -1.2903    1.9886   -3.1767 H       1  UNL1        0.0246
     34 H          -1.7541    0.1055   -2.0318 H       1  UNL1        0.0490
     35 H          -3.7002    1.1404   -1.0685 H       1  UNL1        0.0442
     36 H          -2.7505    1.8749    0.2790 H       1  UNL1        0.0442
     37 H          -3.8646    0.8783    1.8256 H       1  UNL1        0.0437
     38 H          -3.9876   -0.9658    1.9575 H       1  UNL1        0.0437
     39 H          -4.3702   -2.5849    0.3035 H       1  UNL1        0.1449
     40 H          -5.0422   -2.7778   -1.3279 H       1  UNL1        0.1449
     41 H          -7.5042    0.2089    1.4130 H       1  UNL1        0.0276
     42 H          -6.2155    0.8966    2.5460 H       1  UNL1        0.0276
     43 H          -6.5913    1.4704   -0.5584 H       1  UNL1        0.0276
     44 H          -5.3557    2.2958    0.5822 H       1  UNL1        0.0276
     45 H          -1.5657    0.4971    1.6553 H       1  UNL1        0.0440
     46 H          -1.7848   -1.3334    1.6597 H       1  UNL1        0.0440
     47 H          -0.8430   -1.3757   -0.6226 H       1  UNL1        0.0457
     48 H           0.3227   -0.7735    0.6705 H       1  UNL1        0.0457
     49 H           2.1289   -2.0060   -1.2893 H       1  UNL1        0.0637
     50 H           4.3052   -2.5043   -0.2914 H       1  UNL1        0.0622
     51 H           6.3503    0.9921    1.7194 H       1  UNL1        0.0263
     52 H           7.9387    0.1204    1.3831 H       1  UNL1        0.0263
     53 H           7.0811    1.0151    0.0636 H       1  UNL1        0.0263
     54 H           6.6790   -1.4098   -1.2052 H       1  UNL1        0.2110
     55 H           5.1437    1.6313    0.2075 H       1  UNL1        0.0622
     56 H           2.9906    2.1777   -0.7798 H       1  UNL1        0.0637
@<TRIPOS>BOND
     1     1     2    1
     2     2     3    1
     3     3     4    1
     4     4     5    1
     5     5     6    1
     6     6     7    1
     7     7     8   am
     8     7     9    2
     9     6    10    1
    10    10    11    1
    11     4    12    1
    12    12    13    1
    13    13    14    1
    14    14    15    1
    15    15    16    2
    16    15    17    2
    17    15    18    1
    18    18    19   ar
    19    19    20   ar
    20    20    21   ar
    21    21    22    1
    22    22    23    1
    23    22    24    1
    24    22    25    1
    25    25    26    1
    26    25    27    1
    27    25    28    1
    28    21    29   ar
    29    29    30   ar
    30    14     2    1
    31    30    18   ar
    32    11     6    1
    33     1    31    1
    34     1    32    1
    35     1    33    1
    36     2    34    1
    37     3    35    1
    38     3    36    1
    39     5    37    1
    40     5    38    1
    41     8    39    1
    42     8    40    1
    43    10    41    1
    44    10    42    1
    45    11    43    1
    46    11    44    1
    47    12    45    1
    48    12    46    1
    49    13    47    1
    50    13    48    1
    51    19    49    1
    52    20    50    1
    53    23    51    1
    54    23    52    1
    55    23    53    1
    56    24    54    1
    57    29    55    1
    58    30    56    1
