
     RDKit          3D

 63 68  0  0  0  0  0  0  0  0999 V2000
    3.8928   -1.0004   -3.5643 C   0  0  0  0  0  0  0  0  0  0  0  0
    4.7099   -0.1085   -2.6872 C   0  0  0  0  0  0  0  0  0  0  0  0
    6.0001    0.1130   -2.7393 O   0  0  0  0  0  0  0  0  0  0  0  0
    6.3493    0.9493   -1.8133 C   0  0  0  0  0  0  0  0  0  0  0  0
    5.2191    1.3122   -1.0932 C   0  0  0  0  0  0  0  0  0  0  0  0
    4.1799    0.6367   -1.6529 C   0  0  0  0  0  0  0  0  0  0  0  0
    2.7783    0.6831   -1.2586 C   0  0  0  0  0  0  0  0  0  0  0  0
    1.9448    1.3575   -2.0678 N   0  0  0  0  0  0  0  0  0  0  0  0
    0.6344    1.4846   -1.8223 C   0  0  0  0  0  0  0  0  0  0  0  0
   -0.2595    2.1885   -2.6559 N   0  0  0  0  0  0  0  0  0  0  0  0
    0.1414    0.8863   -0.6800 C   0  0  0  0  0  0  0  0  0  0  0  0
   -1.2063    0.9980   -0.3968 O   0  0  0  0  0  0  0  0  0  0  0  0
   -1.7596    0.4089    0.7513 C   0  0  0  0  0  0  0  0  0  0  0  0
   -3.2601    0.7316    0.7386 C   0  0  1  0  0  0  0  0  0  0  0  0
   -3.4964    2.1452    0.7582 N   0  0  0  0  0  0  0  0  0  0  0  0
   -3.8116    0.0869   -0.5021 C   0  0  0  0  0  0  0  0  0  0  0  0
   -5.2565    0.2859   -0.6960 C   0  0  0  0  0  0  0  0  0  0  0  0
   -5.9257    1.1233   -1.5590 C   0  0  0  0  0  0  0  0  0  0  0  0
   -7.2560    0.9857   -1.4085 N   0  0  0  0  0  0  0  0  0  0  0  0
   -7.4874    0.0535   -0.4414 C   0  0  0  0  0  0  0  0  0  0  0  0
   -8.6383   -0.4689    0.1076 C   0  0  0  0  0  0  0  0  0  0  0  0
   -8.5548   -1.4256    1.0980 C   0  0  0  0  0  0  0  0  0  0  0  0
   -7.3439   -1.8846    1.5652 C   0  0  0  0  0  0  0  0  0  0  0  0
   -6.2052   -1.3499    1.0040 C   0  0  0  0  0  0  0  0  0  0  0  0
   -6.2442   -0.3821    0.0018 C   0  0  0  0  0  0  0  0  0  0  0  0
    0.9726    0.1950    0.1573 C   0  0  0  0  0  0  0  0  0  0  0  0
    2.3238    0.0667   -0.0997 C   0  0  0  0  0  0  0  0  0  0  0  0
    3.2386   -0.6664    0.7644 C   0  0  0  0  0  0  0  0  0  0  0  0
    3.0645   -2.0064    0.9936 C   0  0  0  0  0  0  0  0  0  0  0  0
    3.8862   -2.7284    1.7838 N   0  0  0  0  0  0  0  0  0  0  0  0
    4.9182   -2.1385    2.3787 C   0  0  0  0  0  0  0  0  0  0  0  0
    5.8934   -2.5998    3.2125 N   0  0  0  0  0  0  0  0  0  0  0  0
    6.6557   -1.5717    3.4952 N   0  0  0  0  0  0  0  0  0  0  0  0
    6.2254   -0.4491    2.8834 C   0  0  0  0  0  0  0  0  0  0  0  0
    6.8282    0.9036    2.9652 C   0  0  0  0  0  0  0  0  0  0  0  0
    5.1168   -0.7824    2.1634 C   0  0  0  0  0  0  0  0  0  0  0  0
    4.2793   -0.0665    1.3632 N   0  0  0  0  0  0  0  0  0  0  0  0
    4.5054   -1.3188   -4.4547 H   0  0  0  0  0  0  0  0  0  0  0  0
    2.9701   -0.4982   -3.9171 H   0  0  0  0  0  0  0  0  0  0  0  0
    3.5679   -1.8806   -2.9723 H   0  0  0  0  0  0  0  0  0  0  0  0
    7.3466    1.3271   -1.6034 H   0  0  0  0  0  0  0  0  0  0  0  0
    5.1970    2.0055   -0.2541 H   0  0  0  0  0  0  0  0  0  0  0  0
   -0.5173    3.1683   -2.4578 H   0  0  0  0  0  0  0  0  0  0  0  0
   -0.6643    1.7157   -3.4800 H   0  0  0  0  0  0  0  0  0  0  0  0
   -1.7082   -0.7040    0.7372 H   0  0  0  0  0  0  0  0  0  0  0  0
   -1.2940    0.7651    1.6918 H   0  0  0  0  0  0  0  0  0  0  0  0
   -3.6721    0.2941    1.6694 H   0  0  0  0  0  0  0  0  0  0  0  0
   -2.7653    2.5914    1.3554 H   0  0  0  0  0  0  0  0  0  0  0  0
   -3.5579    2.5210   -0.1938 H   0  0  0  0  0  0  0  0  0  0  0  0
   -3.3023    0.5923   -1.3713 H   0  0  0  0  0  0  0  0  0  0  0  0
   -3.5033   -0.9725   -0.5545 H   0  0  0  0  0  0  0  0  0  0  0  0
   -5.4586    1.8029   -2.2649 H   0  0  0  0  0  0  0  0  0  0  0  0
   -8.0258    1.4802   -1.9169 H   0  0  0  0  0  0  0  0  0  0  0  0
   -9.5867   -0.0974   -0.2682 H   0  0  0  0  0  0  0  0  0  0  0  0
   -9.4557   -1.8274    1.5208 H   0  0  0  0  0  0  0  0  0  0  0  0
   -7.2227   -2.6294    2.3361 H   0  0  0  0  0  0  0  0  0  0  0  0
   -5.2095   -1.6587    1.3192 H   0  0  0  0  0  0  0  0  0  0  0  0
    0.5948   -0.2739    1.0524 H   0  0  0  0  0  0  0  0  0  0  0  0
    2.2420   -2.5356    0.5365 H   0  0  0  0  0  0  0  0  0  0  0  0
    5.9665   -3.5878    3.5285 H   0  0  0  0  0  0  0  0  0  0  0  0
    6.0257    1.6358    3.0745 H   0  0  0  0  0  0  0  0  0  0  0  0
    7.5515    0.9073    3.8155 H   0  0  0  0  0  0  0  0  0  0  0  0
    7.4287    1.0526    2.0245 H   0  0  0  0  0  0  0  0  0  0  0  0
  1  2  1  0
  2  3  1  0
  3  4  1  0
  4  5  2  0
  5  6  1  0
  6  7  1  0
  7  8  2  0
  8  9  1  0
  9 10  1  0
  9 11  2  0
 11 12  1  0
 12 13  1  0
 13 14  1  0
 14 15  1  0
 14 16  1  0
 16 17  1  0
 17 18  2  0
 18 19  1  0
 19 20  1  0
 20 21  2  0
 21 22  1  0
 22 23  2  0
 23 24  1  0
 24 25  2  0
 11 26  1  0
 26 27  2  0
 27 28  1  0
 28 29  2  0
 29 30  1  0
 30 31  2  0
 31 32  1  0
 32 33  1  0
 33 34  2  0
 34 35  1  0
 34 36  1  0
 36 37  2  0
  6  2  2  0
 27  7  1  0
 37 28  1  0
 25 17  1  0
 36 31  1  0
 25 20  1  0
  1 38  1  0
  1 39  1  0
  1 40  1  0
  4 41  1  0
  5 42  1  0
 10 43  1  0
 10 44  1  0
 13 45  1  0
 13 46  1  0
 14 47  1  1
 15 48  1  0
 15 49  1  0
 16 50  1  0
 16 51  1  0
 18 52  1  0
 19 53  1  0
 21 54  1  0
 22 55  1  0
 23 56  1  0
 24 57  1  0
 26 58  1  0
 29 59  1  0
 32 60  1  0
 35 61  1  0
 35 62  1  0
 35 63  1  0
M  END
$$$$
