@<TRIPOS>MOLECULE
*****
 63 68 0 0 0
SMALL
GASTEIGER

@<TRIPOS>ATOM
      1 C           3.8928   -1.0004   -3.5643 C.3     1  UNL1       -0.0057
      2 C           4.7099   -0.1085   -2.6872 C.ar    1  UNL1        0.1109
      3 O           6.0001    0.1130   -2.7393 O.2     1  UNL1       -0.4674
      4 C           6.3493    0.9493   -1.8133 C.ar    1  UNL1        0.0927
      5 C           5.2191    1.3122   -1.0932 C.ar    1  UNL1       -0.0144
      6 C           4.1799    0.6367   -1.6529 C.ar    1  UNL1        0.0416
      7 C           2.7783    0.6831   -1.2586 C.ar    1  UNL1        0.0858
      8 N           1.9448    1.3575   -2.0678 N.ar    1  UNL1       -0.2279
      9 C           0.6344    1.4846   -1.8223 C.ar    1  UNL1        0.1589
     10 N          -0.2595    2.1885   -2.6559 N.pl3   1  UNL1       -0.3402
     11 C           0.1414    0.8863   -0.6800 C.ar    1  UNL1        0.1605
     12 O          -1.2063    0.9980   -0.3968 O.3     1  UNL1       -0.4870
     13 C          -1.7596    0.4089    0.7513 C.3     1  UNL1        0.1051
     14 C          -3.2601    0.7316    0.7386 C.3     1  UNL1        0.0435
     15 N          -3.4964    2.1452    0.7582 N.3     1  UNL1       -0.3242
     16 C          -3.8116    0.0869   -0.5021 C.3     1  UNL1       -0.0073
     17 C          -5.2565    0.2859   -0.6960 C.ar    1  UNL1       -0.0208
     18 C          -5.9257    1.1233   -1.5590 C.ar    1  UNL1        0.0060
     19 N          -7.2560    0.9857   -1.4085 N.ar    1  UNL1       -0.3604
     20 C          -7.4874    0.0535   -0.4414 C.ar    1  UNL1        0.0467
     21 C          -8.6383   -0.4689    0.1076 C.ar    1  UNL1       -0.0378
     22 C          -8.5548   -1.4256    1.0980 C.ar    1  UNL1       -0.0598
     23 C          -7.3439   -1.8846    1.5652 C.ar    1  UNL1       -0.0611
     24 C          -6.2052   -1.3499    1.0040 C.ar    1  UNL1       -0.0523
     25 C          -6.2442   -0.3821    0.0018 C.ar    1  UNL1        0.0029
     26 C           0.9726    0.1950    0.1573 C.ar    1  UNL1       -0.0052
     27 C           2.3238    0.0667   -0.0997 C.ar    1  UNL1        0.0315
     28 C           3.2386   -0.6664    0.7644 C.ar    1  UNL1        0.0921
     29 C           3.0645   -2.0064    0.9936 C.ar    1  UNL1        0.0560
     30 N           3.8862   -2.7284    1.7838 N.ar    1  UNL1       -0.2326
     31 C           4.9182   -2.1385    2.3787 C.ar    1  UNL1        0.1747
     32 N           5.8934   -2.5998    3.2125 N.ar    1  UNL1       -0.2587
     33 N           6.6557   -1.5717    3.4952 N.ar    1  UNL1       -0.1752
     34 C           6.2254   -0.4491    2.8834 C.ar    1  UNL1        0.0872
     35 C           6.8282    0.9036    2.9652 C.3     1  UNL1       -0.0185
     36 C           5.1168   -0.7824    2.1634 C.ar    1  UNL1        0.1306
     37 N           4.2793   -0.0665    1.3632 N.ar    1  UNL1       -0.2401
     38 H           4.5054   -1.3188   -4.4547 H       1  UNL1        0.0308
     39 H           2.9701   -0.4982   -3.9171 H       1  UNL1        0.0308
     40 H           3.5679   -1.8806   -2.9723 H       1  UNL1        0.0308
     41 H           7.3466    1.3271   -1.6034 H       1  UNL1        0.1029
     42 H           5.1970    2.0055   -0.2541 H       1  UNL1        0.0656
     43 H          -0.5173    3.1683   -2.4578 H       1  UNL1        0.1438
     44 H          -0.6643    1.7157   -3.4800 H       1  UNL1        0.1438
     45 H          -1.7082   -0.7040    0.7372 H       1  UNL1        0.0712
     46 H          -1.2940    0.7651    1.6918 H       1  UNL1        0.0712
     47 H          -3.6721    0.2941    1.6694 H       1  UNL1        0.0495
     48 H          -2.7653    2.5914    1.3554 H       1  UNL1        0.1186
     49 H          -3.5579    2.5210   -0.1938 H       1  UNL1        0.1186
     50 H          -3.3023    0.5923   -1.3713 H       1  UNL1        0.0330
     51 H          -3.5033   -0.9725   -0.5545 H       1  UNL1        0.0330
     52 H          -5.4586    1.8029   -2.2649 H       1  UNL1        0.0810
     53 H          -8.0258    1.4802   -1.9169 H       1  UNL1        0.1653
     54 H          -9.5867   -0.0974   -0.2682 H       1  UNL1        0.0638
     55 H          -9.4557   -1.8274    1.5208 H       1  UNL1        0.0618
     56 H          -7.2227   -2.6294    2.3361 H       1  UNL1        0.0618
     57 H          -5.2095   -1.6587    1.3192 H       1  UNL1        0.0624
     58 H           0.5948   -0.2739    1.0524 H       1  UNL1        0.0662
     59 H           2.2420   -2.5356    0.5365 H       1  UNL1        0.0852
     60 H           5.9665   -3.5878    3.5285 H       1  UNL1        0.1906
     61 H           6.0257    1.6358    3.0745 H       1  UNL1        0.0294
     62 H           7.5515    0.9073    3.8155 H       1  UNL1        0.0294
     63 H           7.4287    1.0526    2.0245 H       1  UNL1        0.0294
@<TRIPOS>BOND
     1     1     2    1
     2     2     3   ar
     3     3     4   ar
     4     4     5   ar
     5     5     6   ar
     6     6     7    1
     7     7     8   ar
     8     8     9   ar
     9     9    10    1
    10     9    11   ar
    11    11    12    1
    12    12    13    1
    13    13    14    1
    14    14    15    1
    15    14    16    1
    16    16    17    1
    17    17    18   ar
    18    18    19   ar
    19    19    20   ar
    20    20    21   ar
    21    21    22   ar
    22    22    23   ar
    23    23    24   ar
    24    24    25   ar
    25    11    26   ar
    26    26    27   ar
    27    27    28    1
    28    28    29   ar
    29    29    30   ar
    30    30    31   ar
    31    31    32   ar
    32    32    33   ar
    33    33    34   ar
    34    34    35    1
    35    34    36   ar
    36    36    37   ar
    37     6     2   ar
    38    27     7   ar
    39    37    28   ar
    40    25    17   ar
    41    36    31   ar
    42    25    20   ar
    43     1    38    1
    44     1    39    1
    45     1    40    1
    46     4    41    1
    47     5    42    1
    48    10    43    1
    49    10    44    1
    50    13    45    1
    51    13    46    1
    52    14    47    1
    53    15    48    1
    54    15    49    1
    55    16    50    1
    56    16    51    1
    57    18    52    1
    58    19    53    1
    59    21    54    1
    60    22    55    1
    61    23    56    1
    62    24    57    1
    63    26    58    1
    64    29    59    1
    65    32    60    1
    66    35    61    1
    67    35    62    1
    68    35    63    1
