@<TRIPOS>MOLECULE
*****
 42 45 0 0 0
SMALL
GASTEIGER

@<TRIPOS>ATOM
      1 O           1.1898    1.6517    1.2943 O.2     1  UNL1       -0.2449
      2 C           1.1584    0.6450    0.5766 C.2     1  UNL1        0.3413
      3 O          -0.1621    0.2359    0.2468 O.3     1  UNL1       -0.4605
      4 C          -1.2687    0.9690    0.7366 C.3     1  UNL1        0.0985
      5 C          -2.5680    0.3943    0.2897 C.3     1  UNL1        0.0084
      6 C          -3.7438    1.1840    0.8177 C.3     1  UNL1       -0.0313
      7 C          -5.0184    0.6406    0.2126 C.3     1  UNL1       -0.0005
      8 N          -4.7424   -0.5066   -0.6040 N.3     1  UNL1       -0.3023
      9 C          -3.9364   -0.0943   -1.7434 C.3     1  UNL1       -0.0005
     10 C          -2.6041    0.3658   -1.2437 C.3     1  UNL1       -0.0313
     11 C          -4.0213   -1.5466    0.0766 C.3     1  UNL1       -0.0005
     12 C          -2.7619   -1.0398    0.7352 C.3     1  UNL1       -0.0313
     13 C           2.2656   -0.1300    0.0570 C.ar    1  UNL1        0.0853
     14 C           2.1684   -1.2664   -0.7551 C.ar    1  UNL1        0.0168
     15 N           3.3871   -1.7196   -1.0424 N.ar    1  UNL1       -0.3597
     16 C           4.3055   -0.9380   -0.4589 C.ar    1  UNL1        0.0522
     17 C           5.6699   -0.9891   -0.4555 C.ar    1  UNL1        0.0038
     18 C           6.4170   -0.0357    0.2454 C.ar    1  UNL1        0.1202
     19 O           7.8054   -0.0973    0.2421 O.3     1  UNL1       -0.5067
     20 C           5.7616    0.9522    0.9299 C.ar    1  UNL1       -0.0011
     21 C           4.3822    0.9850    0.9129 C.ar    1  UNL1        0.0543
     22 CL          3.6083    2.2661    1.8027 Cl      1  UNL1       -0.0827
     23 C           3.6092    0.0624    0.2333 C.ar    1  UNL1        0.0322
     24 H          -1.2385    2.0307    0.4194 H       1  UNL1        0.0703
     25 H          -1.2762    0.9957    1.8564 H       1  UNL1        0.0703
     26 H          -3.7950    0.9612    1.9182 H       1  UNL1        0.0284
     27 H          -3.6360    2.2631    0.7179 H       1  UNL1        0.0284
     28 H          -5.4177    1.4352   -0.4728 H       1  UNL1        0.0427
     29 H          -5.7729    0.4282    0.9736 H       1  UNL1        0.0427
     30 H          -3.7633   -0.9654   -2.4089 H       1  UNL1        0.0427
     31 H          -4.4528    0.6743   -2.3392 H       1  UNL1        0.0427
     32 H          -2.3815    1.3857   -1.6250 H       1  UNL1        0.0284
     33 H          -1.7604   -0.2819   -1.5498 H       1  UNL1        0.0284
     34 H          -4.6613   -2.1076    0.7728 H       1  UNL1        0.0427
     35 H          -3.7008   -2.2830   -0.7067 H       1  UNL1        0.0427
     36 H          -1.8844   -1.6597    0.4827 H       1  UNL1        0.0284
     37 H          -2.9301   -1.0487    1.8286 H       1  UNL1        0.0284
     38 H           1.2418   -1.6831   -1.0789 H       1  UNL1        0.0815
     39 H           3.6288   -2.5692   -1.6403 H       1  UNL1        0.1654
     40 H           6.2518   -1.7465   -0.9778 H       1  UNL1        0.0675
     41 H           8.3526    0.4776   -0.3964 H       1  UNL1        0.2921
     42 H           6.2945    1.7048    1.4815 H       1  UNL1        0.0669
@<TRIPOS>BOND
     1     1     2    2
     2     2     3    1
     3     3     4    1
     4     4     5    1
     5     5     6    1
     6     6     7    1
     7     7     8    1
     8     8     9    1
     9     9    10    1
    10     8    11    1
    11    11    12    1
    12     2    13    1
    13    13    14   ar
    14    14    15   ar
    15    15    16   ar
    16    16    17   ar
    17    17    18   ar
    18    18    19    1
    19    18    20   ar
    20    20    21   ar
    21    21    22    1
    22    21    23   ar
    23    10     5    1
    24    23    13   ar
    25    12     5    1
    26    23    16   ar
    27     4    24    1
    28     4    25    1
    29     6    26    1
    30     6    27    1
    31     7    28    1
    32     7    29    1
    33     9    30    1
    34     9    31    1
    35    10    32    1
    36    10    33    1
    37    11    34    1
    38    11    35    1
    39    12    36    1
    40    12    37    1
    41    14    38    1
    42    15    39    1
    43    17    40    1
    44    19    41    1
    45    20    42    1
