
     RDKit          3D

 42 45  0  0  0  0  0  0  0  0999 V2000
    1.1898    1.6517    1.2943 O   0  0  0  0  0  0  0  0  0  0  0  0
    1.1584    0.6450    0.5766 C   0  0  0  0  0  0  0  0  0  0  0  0
   -0.1621    0.2359    0.2468 O   0  0  0  0  0  0  0  0  0  0  0  0
   -1.2687    0.9690    0.7366 C   0  0  0  0  0  0  0  0  0  0  0  0
   -2.5680    0.3943    0.2897 C   0  0  0  0  0  0  0  0  0  0  0  0
   -3.7438    1.1840    0.8177 C   0  0  0  0  0  0  0  0  0  0  0  0
   -5.0184    0.6406    0.2126 C   0  0  0  0  0  0  0  0  0  0  0  0
   -4.7424   -0.5066   -0.6040 N   0  0  0  0  0  0  0  0  0  0  0  0
   -3.9364   -0.0943   -1.7434 C   0  0  0  0  0  0  0  0  0  0  0  0
   -2.6041    0.3658   -1.2437 C   0  0  0  0  0  0  0  0  0  0  0  0
   -4.0213   -1.5466    0.0766 C   0  0  0  0  0  0  0  0  0  0  0  0
   -2.7619   -1.0398    0.7352 C   0  0  0  0  0  0  0  0  0  0  0  0
    2.2656   -0.1300    0.0570 C   0  0  0  0  0  0  0  0  0  0  0  0
    2.1684   -1.2664   -0.7551 C   0  0  0  0  0  0  0  0  0  0  0  0
    3.3871   -1.7196   -1.0424 N   0  0  0  0  0  0  0  0  0  0  0  0
    4.3055   -0.9380   -0.4589 C   0  0  0  0  0  0  0  0  0  0  0  0
    5.6699   -0.9891   -0.4555 C   0  0  0  0  0  0  0  0  0  0  0  0
    6.4170   -0.0357    0.2454 C   0  0  0  0  0  0  0  0  0  0  0  0
    7.8054   -0.0973    0.2421 O   0  0  0  0  0  0  0  0  0  0  0  0
    5.7616    0.9522    0.9299 C   0  0  0  0  0  0  0  0  0  0  0  0
    4.3822    0.9850    0.9129 C   0  0  0  0  0  0  0  0  0  0  0  0
    3.6083    2.2661    1.8027 Cl  0  0  0  0  0  0  0  0  0  0  0  0
    3.6092    0.0624    0.2333 C   0  0  0  0  0  0  0  0  0  0  0  0
   -1.2385    2.0307    0.4194 H   0  0  0  0  0  0  0  0  0  0  0  0
   -1.2762    0.9957    1.8564 H   0  0  0  0  0  0  0  0  0  0  0  0
   -3.7950    0.9612    1.9182 H   0  0  0  0  0  0  0  0  0  0  0  0
   -3.6360    2.2631    0.7179 H   0  0  0  0  0  0  0  0  0  0  0  0
   -5.4177    1.4352   -0.4728 H   0  0  0  0  0  0  0  0  0  0  0  0
   -5.7729    0.4282    0.9736 H   0  0  0  0  0  0  0  0  0  0  0  0
   -3.7633   -0.9654   -2.4089 H   0  0  0  0  0  0  0  0  0  0  0  0
   -4.4528    0.6743   -2.3392 H   0  0  0  0  0  0  0  0  0  0  0  0
   -2.3815    1.3857   -1.6250 H   0  0  0  0  0  0  0  0  0  0  0  0
   -1.7604   -0.2819   -1.5498 H   0  0  0  0  0  0  0  0  0  0  0  0
   -4.6613   -2.1076    0.7728 H   0  0  0  0  0  0  0  0  0  0  0  0
   -3.7008   -2.2830   -0.7067 H   0  0  0  0  0  0  0  0  0  0  0  0
   -1.8844   -1.6597    0.4827 H   0  0  0  0  0  0  0  0  0  0  0  0
   -2.9301   -1.0487    1.8286 H   0  0  0  0  0  0  0  0  0  0  0  0
    1.2418   -1.6831   -1.0789 H   0  0  0  0  0  0  0  0  0  0  0  0
    3.6288   -2.5692   -1.6403 H   0  0  0  0  0  0  0  0  0  0  0  0
    6.2518   -1.7465   -0.9778 H   0  0  0  0  0  0  0  0  0  0  0  0
    8.3526    0.4776   -0.3964 H   0  0  0  0  0  0  0  0  0  0  0  0
    6.2945    1.7048    1.4815 H   0  0  0  0  0  0  0  0  0  0  0  0
  1  2  2  0
  2  3  1  0
  3  4  1  0
  4  5  1  0
  5  6  1  0
  6  7  1  0
  7  8  1  0
  8  9  1  0
  9 10  1  0
  8 11  1  0
 11 12  1  0
  2 13  1  0
 13 14  2  0
 14 15  1  0
 15 16  1  0
 16 17  2  0
 17 18  1  0
 18 19  1  0
 18 20  2  0
 20 21  1  0
 21 22  1  0
 21 23  2  0
 10  5  1  0
 23 13  1  0
 12  5  1  0
 23 16  1  0
  4 24  1  0
  4 25  1  0
  6 26  1  0
  6 27  1  0
  7 28  1  0
  7 29  1  0
  9 30  1  0
  9 31  1  0
 10 32  1  0
 10 33  1  0
 11 34  1  0
 11 35  1  0
 12 36  1  0
 12 37  1  0
 14 38  1  0
 15 39  1  0
 17 40  1  0
 19 41  1  0
 20 42  1  0
M  END
$$$$
