@<TRIPOS>MOLECULE
*****
 58 62 0 0 0
SMALL
GASTEIGER

@<TRIPOS>ATOM
      1 N          -8.3837    0.0855   -1.1671 N.1     1  UNL1       -0.1943
      2 C          -7.4384    0.4201   -0.6330 C.1     1  UNL1        0.0883
      3 C          -6.2229    0.8715    0.0760 C.3     1  UNL1        0.1214
      4 N          -5.0349    0.0468    0.0339 N.am    1  UNL1       -0.2971
      5 C          -4.3651   -0.3110   -1.1710 C.2     1  UNL1        0.2180
      6 O          -4.8547    0.1252   -2.2442 O.2     1  UNL1       -0.2755
      7 C          -3.1344   -1.1674   -1.1525 C.3     1  UNL1        0.0466
      8 C          -3.4834   -2.4859   -0.5145 C.3     1  UNL1       -0.0412
      9 C          -2.3264   -3.4168   -0.3892 C.3     1  UNL1       -0.0523
     10 C          -1.1574   -2.7122    0.2283 C.3     1  UNL1       -0.0523
     11 C          -1.5862   -1.3317    0.6992 C.3     1  UNL1       -0.0412
     12 C          -1.9896   -0.4450   -0.4714 C.3     1  UNL1        0.0468
     13 C          -0.8708   -0.2728   -1.4240 C.2     1  UNL1        0.2195
     14 O          -0.9597   -0.8800   -2.5504 O.2     1  UNL1       -0.2753
     15 N           0.2787    0.4925   -1.2135 N.am    1  UNL1       -0.2982
     16 C           1.3420    0.5596   -2.2214 C.3     1  UNL1        0.0305
     17 C           2.5660    1.2693   -1.7212 C.3     1  UNL1        0.0298
     18 N           2.8685    0.9972   -0.3416 N.pl3   1  UNL1       -0.3066
     19 C           4.2170    0.8693    0.0374 C.ar    1  UNL1        0.1619
     20 N           5.3372    0.9113   -0.4919 N.ar    1  UNL1       -0.2248
     21 C           6.4818    0.7576    0.1163 C.ar    1  UNL1        0.0803
     22 C           7.7725    0.7982   -0.4452 C.ar    1  UNL1       -0.0351
     23 C           8.8587    0.6164    0.3455 C.ar    1  UNL1       -0.0597
     24 C           8.8119    0.3859    1.7057 C.ar    1  UNL1       -0.0606
     25 C           7.5478    0.3446    2.2645 C.ar    1  UNL1       -0.0458
     26 C           6.4426    0.5280    1.4685 C.ar    1  UNL1        0.0408
     27 S           4.7099    0.5463    1.7998 S.2     1  UNL1       -0.0522
     28 C           1.8226    0.8583    0.6443 C.3     1  UNL1        0.0298
     29 C           0.5164    1.2839   -0.0282 C.3     1  UNL1        0.0305
     30 C          -6.1277    2.3276    0.3230 C.3     1  UNL1       -0.0154
     31 C          -6.5107    1.4612    1.4418 C.3     1  UNL1       -0.0154
     32 H          -4.5933   -0.3414    0.9180 H       1  UNL1        0.1502
     33 H          -2.8689   -1.3655   -2.1996 H       1  UNL1        0.0401
     34 H          -4.0904   -2.3800    0.4145 H       1  UNL1        0.0273
     35 H          -4.2013   -2.9780   -1.2379 H       1  UNL1        0.0273
     36 H          -2.0882   -3.8219   -1.3978 H       1  UNL1        0.0265
     37 H          -2.6470   -4.2413    0.3125 H       1  UNL1        0.0265
     38 H          -0.7808   -3.2428    1.1235 H       1  UNL1        0.0265
     39 H          -0.3717   -2.5834   -0.5442 H       1  UNL1        0.0265
     40 H          -0.8421   -0.9072    1.3611 H       1  UNL1        0.0273
     41 H          -2.5069   -1.4751    1.3087 H       1  UNL1        0.0273
     42 H          -2.3679    0.4966   -0.0523 H       1  UNL1        0.0402
     43 H           1.6435   -0.5007   -2.4376 H       1  UNL1        0.0480
     44 H           0.9842    1.0552   -3.1456 H       1  UNL1        0.0480
     45 H           3.4090    0.9189   -2.3903 H       1  UNL1        0.0480
     46 H           2.5250    2.3719   -1.9292 H       1  UNL1        0.0480
     47 H           7.9206    0.9710   -1.4941 H       1  UNL1        0.0639
     48 H           9.8626    0.6480   -0.0900 H       1  UNL1        0.0618
     49 H           9.6807    0.2463    2.3063 H       1  UNL1        0.0618
     50 H           7.3755    0.1721    3.3181 H       1  UNL1        0.0629
     51 H           1.9668    1.5370    1.5004 H       1  UNL1        0.0480
     52 H           1.7480   -0.1771    1.0365 H       1  UNL1        0.0480
     53 H          -0.2598    1.2691    0.7237 H       1  UNL1        0.0480
     54 H           0.7370    2.3180   -0.4101 H       1  UNL1        0.0480
     55 H          -6.9036    2.9733   -0.1133 H       1  UNL1        0.0297
     56 H          -5.1218    2.7915    0.3520 H       1  UNL1        0.0297
     57 H          -7.5616    1.4206    1.8309 H       1  UNL1        0.0297
     58 H          -5.7753    1.2910    2.2666 H       1  UNL1        0.0297
@<TRIPOS>BOND
     1     1     2    3
     2     2     3    1
     3     3     4    1
     4     4     5   am
     5     5     6    2
     6     5     7    1
     7     7     8    1
     8     8     9    1
     9     9    10    1
    10    10    11    1
    11    11    12    1
    12    12    13    1
    13    13    14    2
    14    13    15   am
    15    15    16    1
    16    16    17    1
    17    17    18    1
    18    18    19    1
    19    19    20   ar
    20    20    21   ar
    21    21    22   ar
    22    22    23   ar
    23    23    24   ar
    24    24    25   ar
    25    25    26   ar
    26    26    27   ar
    27    18    28    1
    28    28    29    1
    29     3    30    1
    30    30    31    1
    31    31     3    1
    32    12     7    1
    33    29    15    1
    34    27    19   ar
    35    26    21   ar
    36     4    32    1
    37     7    33    1
    38     8    34    1
    39     8    35    1
    40     9    36    1
    41     9    37    1
    42    10    38    1
    43    10    39    1
    44    11    40    1
    45    11    41    1
    46    12    42    1
    47    16    43    1
    48    16    44    1
    49    17    45    1
    50    17    46    1
    51    22    47    1
    52    23    48    1
    53    24    49    1
    54    25    50    1
    55    28    51    1
    56    28    52    1
    57    29    53    1
    58    29    54    1
    59    30    55    1
    60    30    56    1
    61    31    57    1
    62    31    58    1
