
     RDKit          3D

 58 62  0  0  0  0  0  0  0  0999 V2000
   -8.3837    0.0855   -1.1671 N   0  0  0  0  0  0  0  0  0  0  0  0
   -7.4384    0.4201   -0.6330 C   0  0  0  0  0  0  0  0  0  0  0  0
   -6.2229    0.8715    0.0760 C   0  0  0  0  0  0  0  0  0  0  0  0
   -5.0349    0.0468    0.0339 N   0  0  0  0  0  0  0  0  0  0  0  0
   -4.3651   -0.3110   -1.1710 C   0  0  0  0  0  0  0  0  0  0  0  0
   -4.8547    0.1252   -2.2442 O   0  0  0  0  0  0  0  0  0  0  0  0
   -3.1344   -1.1674   -1.1525 C   0  0  2  0  0  0  0  0  0  0  0  0
   -3.4834   -2.4859   -0.5145 C   0  0  0  0  0  0  0  0  0  0  0  0
   -2.3264   -3.4168   -0.3892 C   0  0  0  0  0  0  0  0  0  0  0  0
   -1.1574   -2.7122    0.2283 C   0  0  0  0  0  0  0  0  0  0  0  0
   -1.5862   -1.3317    0.6992 C   0  0  0  0  0  0  0  0  0  0  0  0
   -1.9896   -0.4450   -0.4714 C   0  0  1  0  0  0  0  0  0  0  0  0
   -0.8708   -0.2728   -1.4240 C   0  0  0  0  0  0  0  0  0  0  0  0
   -0.9597   -0.8800   -2.5504 O   0  0  0  0  0  0  0  0  0  0  0  0
    0.2787    0.4925   -1.2135 N   0  0  0  0  0  0  0  0  0  0  0  0
    1.3420    0.5596   -2.2214 C   0  0  0  0  0  0  0  0  0  0  0  0
    2.5660    1.2693   -1.7212 C   0  0  0  0  0  0  0  0  0  0  0  0
    2.8685    0.9972   -0.3416 N   0  0  0  0  0  0  0  0  0  0  0  0
    4.2170    0.8693    0.0374 C   0  0  0  0  0  0  0  0  0  0  0  0
    5.3372    0.9113   -0.4919 N   0  0  0  0  0  0  0  0  0  0  0  0
    6.4818    0.7576    0.1163 C   0  0  0  0  0  0  0  0  0  0  0  0
    7.7725    0.7982   -0.4452 C   0  0  0  0  0  0  0  0  0  0  0  0
    8.8587    0.6164    0.3455 C   0  0  0  0  0  0  0  0  0  0  0  0
    8.8119    0.3859    1.7057 C   0  0  0  0  0  0  0  0  0  0  0  0
    7.5478    0.3446    2.2645 C   0  0  0  0  0  0  0  0  0  0  0  0
    6.4426    0.5280    1.4685 C   0  0  0  0  0  0  0  0  0  0  0  0
    4.7099    0.5463    1.7998 S   0  0  0  0  0  0  0  0  0  0  0  0
    1.8226    0.8583    0.6443 C   0  0  0  0  0  0  0  0  0  0  0  0
    0.5164    1.2839   -0.0282 C   0  0  0  0  0  0  0  0  0  0  0  0
   -6.1277    2.3276    0.3230 C   0  0  0  0  0  0  0  0  0  0  0  0
   -6.5107    1.4612    1.4418 C   0  0  0  0  0  0  0  0  0  0  0  0
   -4.5933   -0.3414    0.9180 H   0  0  0  0  0  0  0  0  0  0  0  0
   -2.8689   -1.3655   -2.1996 H   0  0  0  0  0  0  0  0  0  0  0  0
   -4.0904   -2.3800    0.4145 H   0  0  0  0  0  0  0  0  0  0  0  0
   -4.2013   -2.9780   -1.2379 H   0  0  0  0  0  0  0  0  0  0  0  0
   -2.0882   -3.8219   -1.3978 H   0  0  0  0  0  0  0  0  0  0  0  0
   -2.6470   -4.2413    0.3125 H   0  0  0  0  0  0  0  0  0  0  0  0
   -0.7808   -3.2428    1.1235 H   0  0  0  0  0  0  0  0  0  0  0  0
   -0.3717   -2.5834   -0.5442 H   0  0  0  0  0  0  0  0  0  0  0  0
   -0.8421   -0.9072    1.3611 H   0  0  0  0  0  0  0  0  0  0  0  0
   -2.5069   -1.4751    1.3087 H   0  0  0  0  0  0  0  0  0  0  0  0
   -2.3679    0.4966   -0.0523 H   0  0  0  0  0  0  0  0  0  0  0  0
    1.6435   -0.5007   -2.4376 H   0  0  0  0  0  0  0  0  0  0  0  0
    0.9842    1.0552   -3.1456 H   0  0  0  0  0  0  0  0  0  0  0  0
    3.4090    0.9189   -2.3903 H   0  0  0  0  0  0  0  0  0  0  0  0
    2.5250    2.3719   -1.9292 H   0  0  0  0  0  0  0  0  0  0  0  0
    7.9206    0.9710   -1.4941 H   0  0  0  0  0  0  0  0  0  0  0  0
    9.8626    0.6480   -0.0900 H   0  0  0  0  0  0  0  0  0  0  0  0
    9.6807    0.2463    2.3063 H   0  0  0  0  0  0  0  0  0  0  0  0
    7.3755    0.1721    3.3181 H   0  0  0  0  0  0  0  0  0  0  0  0
    1.9668    1.5370    1.5004 H   0  0  0  0  0  0  0  0  0  0  0  0
    1.7480   -0.1771    1.0365 H   0  0  0  0  0  0  0  0  0  0  0  0
   -0.2598    1.2691    0.7237 H   0  0  0  0  0  0  0  0  0  0  0  0
    0.7370    2.3180   -0.4101 H   0  0  0  0  0  0  0  0  0  0  0  0
   -6.9036    2.9733   -0.1133 H   0  0  0  0  0  0  0  0  0  0  0  0
   -5.1218    2.7915    0.3520 H   0  0  0  0  0  0  0  0  0  0  0  0
   -7.5616    1.4206    1.8309 H   0  0  0  0  0  0  0  0  0  0  0  0
   -5.7753    1.2910    2.2666 H   0  0  0  0  0  0  0  0  0  0  0  0
  1  2  3  0
  2  3  1  0
  3  4  1  0
  4  5  1  0
  5  6  2  0
  5  7  1  0
  7  8  1  0
  8  9  1  0
  9 10  1  0
 10 11  1  0
 11 12  1  0
 12 13  1  0
 13 14  2  0
 13 15  1  0
 15 16  1  0
 16 17  1  0
 17 18  1  0
 18 19  1  0
 19 20  2  0
 20 21  1  0
 21 22  2  0
 22 23  1  0
 23 24  2  0
 24 25  1  0
 25 26  2  0
 26 27  1  0
 18 28  1  0
 28 29  1  0
  3 30  1  0
 30 31  1  0
 31  3  1  0
 12  7  1  0
 29 15  1  0
 27 19  1  0
 26 21  1  0
  4 32  1  0
  7 33  1  6
  8 34  1  0
  8 35  1  0
  9 36  1  0
  9 37  1  0
 10 38  1  0
 10 39  1  0
 11 40  1  0
 11 41  1  0
 12 42  1  1
 16 43  1  0
 16 44  1  0
 17 45  1  0
 17 46  1  0
 22 47  1  0
 23 48  1  0
 24 49  1  0
 25 50  1  0
 28 51  1  0
 28 52  1  0
 29 53  1  0
 29 54  1  0
 30 55  1  0
 30 56  1  0
 31 57  1  0
 31 58  1  0
M  END
$$$$
