@<TRIPOS>MOLECULE
*****
 57 58 0 0 0
SMALL
GASTEIGER

@<TRIPOS>ATOM
      1 C           6.4231   -1.5377    0.4674 C.3     1  UNL1       -0.0523
      2 C           5.6706   -0.6639   -0.5037 C.3     1  UNL1       -0.0031
      3 N           4.9627    0.4119    0.0924 N.3     1  UNL1       -0.2921
      4 C           5.7298    1.4570    0.6757 C.3     1  UNL1       -0.0031
      5 C           6.5090    2.3077   -0.2741 C.3     1  UNL1       -0.0523
      6 C           3.9935    0.9557   -0.8072 C.3     1  UNL1        0.0610
      7 C           2.9058    0.0038   -1.0512 C.1     1  UNL1       -0.0833
      8 C           2.0294   -0.7814   -1.2338 C.1     1  UNL1       -0.0601
      9 C           0.9682   -1.7565   -1.4395 C.3     1  UNL1        0.1529
     10 O          -0.3347   -1.2187   -1.1957 O.3     1  UNL1       -0.4495
     11 C          -0.6216   -0.7002    0.0350 C.2     1  UNL1        0.3449
     12 O           0.3536   -0.7645    0.8328 O.2     1  UNL1       -0.2471
     13 C          -1.7831   -0.0705    0.7046 C.3     1  UNL1        0.1902
     14 O          -1.3082    0.3219    1.9749 O.3     1  UNL1       -0.3730
     15 C          -2.2394    1.1843    0.0054 C.3     1  UNL1        0.0026
     16 C          -2.6760    1.0212   -1.3972 C.3     1  UNL1       -0.0467
     17 C          -4.1190    0.8188   -1.6620 C.3     1  UNL1       -0.0527
     18 C          -5.0459    0.8915   -0.5121 C.3     1  UNL1       -0.0530
     19 C          -4.6298    1.7289    0.6380 C.3     1  UNL1       -0.0527
     20 C          -3.1889    2.0256    0.7836 C.3     1  UNL1       -0.0467
     21 C          -2.8103   -1.1162    0.8333 C.ar    1  UNL1       -0.0051
     22 C          -3.4589   -1.1814    2.0729 C.ar    1  UNL1       -0.0553
     23 C          -4.4458   -2.1007    2.3869 C.ar    1  UNL1       -0.0614
     24 C          -4.7762   -2.9834    1.3889 C.ar    1  UNL1       -0.0617
     25 C          -4.1727   -2.9642    0.1547 C.ar    1  UNL1       -0.0614
     26 C          -3.1810   -2.0252   -0.1310 C.ar    1  UNL1       -0.0553
     27 H           6.6759   -2.4831   -0.0974 H       1  UNL1        0.0242
     28 H           7.3786   -1.1470    0.8094 H       1  UNL1        0.0242
     29 H           5.8035   -1.8229    1.3193 H       1  UNL1        0.0242
     30 H           6.3124   -0.3967   -1.3629 H       1  UNL1        0.0424
     31 H           4.8811   -1.3443   -0.9422 H       1  UNL1        0.0424
     32 H           6.3828    1.1341    1.5064 H       1  UNL1        0.0424
     33 H           4.9827    2.1500    1.1651 H       1  UNL1        0.0424
     34 H           6.8269    1.7580   -1.1830 H       1  UNL1        0.0242
     35 H           5.9758    3.2115   -0.6110 H       1  UNL1        0.0242
     36 H           7.4754    2.6671    0.1859 H       1  UNL1        0.0242
     37 H           4.4566    1.2896   -1.7490 H       1  UNL1        0.0563
     38 H           3.5388    1.8601   -0.3366 H       1  UNL1        0.0563
     39 H           0.9404   -2.1393   -2.4793 H       1  UNL1        0.0838
     40 H           1.1588   -2.6280   -0.7532 H       1  UNL1        0.0838
     41 H          -0.8062    1.1676    1.8782 H       1  UNL1        0.2113
     42 H          -1.2818    1.8104   -0.0411 H       1  UNL1        0.0337
     43 H          -2.3611    1.9387   -1.9800 H       1  UNL1        0.0269
     44 H          -2.0379    0.2160   -1.8662 H       1  UNL1        0.0269
     45 H          -4.4918    1.4890   -2.4945 H       1  UNL1        0.0265
     46 H          -4.2354   -0.2074   -2.1247 H       1  UNL1        0.0265
     47 H          -5.3722   -0.1428   -0.1858 H       1  UNL1        0.0265
     48 H          -6.0280    1.3182   -0.8864 H       1  UNL1        0.0265
     49 H          -5.2072    2.7041    0.6713 H       1  UNL1        0.0265
     50 H          -5.0011    1.2022    1.5693 H       1  UNL1        0.0265
     51 H          -3.0227    3.0853    0.4833 H       1  UNL1        0.0269
     52 H          -2.9090    1.9484    1.8747 H       1  UNL1        0.0269
     53 H          -3.1942   -0.4720    2.8744 H       1  UNL1        0.0621
     54 H          -4.9002   -2.0767    3.3861 H       1  UNL1        0.0618
     55 H          -5.5539   -3.7085    1.6327 H       1  UNL1        0.0618
     56 H          -4.4667   -3.6819   -0.6029 H       1  UNL1        0.0618
     57 H          -2.6748   -1.9637   -1.0781 H       1  UNL1        0.0621
@<TRIPOS>BOND
     1     1     2    1
     2     2     3    1
     3     3     4    1
     4     4     5    1
     5     3     6    1
     6     6     7    1
     7     7     8    3
     8     8     9    1
     9     9    10    1
    10    10    11    1
    11    11    12    2
    12    11    13    1
    13    13    14    1
    14    13    15    1
    15    15    16    1
    16    16    17    1
    17    17    18    1
    18    18    19    1
    19    19    20    1
    20    13    21    1
    21    21    22   ar
    22    22    23   ar
    23    23    24   ar
    24    24    25   ar
    25    25    26   ar
    26    20    15    1
    27    26    21   ar
    28     1    27    1
    29     1    28    1
    30     1    29    1
    31     2    30    1
    32     2    31    1
    33     4    32    1
    34     4    33    1
    35     5    34    1
    36     5    35    1
    37     5    36    1
    38     6    37    1
    39     6    38    1
    40     9    39    1
    41     9    40    1
    42    14    41    1
    43    15    42    1
    44    16    43    1
    45    16    44    1
    46    17    45    1
    47    17    46    1
    48    18    47    1
    49    18    48    1
    50    19    49    1
    51    19    50    1
    52    20    51    1
    53    20    52    1
    54    22    53    1
    55    23    54    1
    56    24    55    1
    57    25    56    1
    58    26    57    1
