@<TRIPOS>MOLECULE
*****
 43 45 0 0 0
SMALL
GASTEIGER

@<TRIPOS>ATOM
      1 C          -3.9994    1.2105   -0.8100 C.3     1  UNL1       -0.0354
      2 C          -2.9353    0.5699    0.0338 C.3     1  UNL1        0.0897
      3 C          -1.6110    1.1899   -0.1795 C.ar    1  UNL1        0.0154
      4 C          -0.5777    0.4009   -0.6303 C.ar    1  UNL1       -0.0464
      5 C           0.6968    0.9272   -0.8500 C.ar    1  UNL1        0.0021
      6 C           1.8374    0.1133   -1.3346 C.3     1  UNL1        0.0240
      7 N           2.7656   -0.1885   -0.2428 N.3     1  UNL1       -0.3117
      8 C           3.8812   -0.9796   -0.7203 C.3     1  UNL1       -0.0010
      9 C           4.8433   -1.3018    0.3748 C.3     1  UNL1       -0.0285
     10 C           6.0388   -2.1400   -0.0980 C.3     1  UNL1       -0.0488
     11 C           6.2074   -0.7253    0.4115 C.3     1  UNL1       -0.0488
     12 C           0.8931    2.2684   -0.6011 C.ar    1  UNL1        0.1305
     13 F           2.1087    2.8292   -0.7973 F       1  UNL1       -0.2051
     14 C          -0.1279    3.0994   -0.1441 C.ar    1  UNL1        0.0095
     15 C          -1.3670    2.5129    0.0526 C.ar    1  UNL1        0.1316
     16 F          -2.3512    3.3142    0.4910 F       1  UNL1       -0.2050
     17 C          -3.2500    0.6433    1.5109 C.3     1  UNL1       -0.0142
     18 C          -4.6807    0.3947    1.8369 C.3     1  UNL1        0.0034
     19 S          -5.2535   -1.0332    0.8533 S.3     1  UNL1       -0.0910
     20 C          -3.8215   -1.6669   -0.0060 C.2     1  UNL1        0.1475
     21 N          -3.7958   -3.0534   -0.3206 N.pl3   1  UNL1       -0.3380
     22 N          -2.8842   -0.8538   -0.3016 N.2     1  UNL1       -0.2524
     23 H          -4.7957    1.6851   -0.2075 H       1  UNL1        0.0256
     24 H          -3.5077    1.9397   -1.5028 H       1  UNL1        0.0256
     25 H          -4.4965    0.4684   -1.4610 H       1  UNL1        0.0256
     26 H          -0.7067   -0.6440   -0.8308 H       1  UNL1        0.0626
     27 H           2.3767    0.5837   -2.1794 H       1  UNL1        0.0474
     28 H           1.4177   -0.8788   -1.6665 H       1  UNL1        0.0474
     29 H           2.2468   -0.6261    0.5324 H       1  UNL1        0.1223
     30 H           4.3969   -0.4368   -1.5133 H       1  UNL1        0.0427
     31 H           3.4454   -1.9448   -1.0840 H       1  UNL1        0.0427
     32 H           4.4074   -1.5804    1.3611 H       1  UNL1        0.0313
     33 H           6.3071   -2.9858    0.5560 H       1  UNL1        0.0268
     34 H           6.2096   -2.2444   -1.1787 H       1  UNL1        0.0268
     35 H           6.7154   -0.6556    1.3769 H       1  UNL1        0.0268
     36 H           6.4932    0.0769   -0.3019 H       1  UNL1        0.0268
     37 H           0.0554    4.1478    0.0421 H       1  UNL1        0.0675
     38 H          -2.6460   -0.1688    2.0066 H       1  UNL1        0.0300
     39 H          -2.8780    1.5916    1.9012 H       1  UNL1        0.0300
     40 H          -5.3445    1.2671    1.7269 H       1  UNL1        0.0381
     41 H          -4.7430    0.0539    2.9103 H       1  UNL1        0.0381
     42 H          -3.8433   -3.8012    0.4055 H       1  UNL1        0.1442
     43 H          -3.7276   -3.3783   -1.3081 H       1  UNL1        0.1442
@<TRIPOS>BOND
     1     2     1    1
     2     2     3    1
     3     3     4   ar
     4     4     5   ar
     5     5     6    1
     6     6     7    1
     7     7     8    1
     8     8     9    1
     9     9    10    1
    10    10    11    1
    11     5    12   ar
    12    12    13    1
    13    12    14   ar
    14    14    15   ar
    15    15    16    1
    16     2    17    1
    17    17    18    1
    18    18    19    1
    19    19    20    1
    20    20    21    1
    21    20    22    2
    22    22     2    1
    23    15     3   ar
    24    11     9    1
    25     1    23    1
    26     1    24    1
    27     1    25    1
    28     4    26    1
    29     6    27    1
    30     6    28    1
    31     7    29    1
    32     8    30    1
    33     8    31    1
    34     9    32    1
    35    10    33    1
    36    10    34    1
    37    11    35    1
    38    11    36    1
    39    14    37    1
    40    17    38    1
    41    17    39    1
    42    18    40    1
    43    18    41    1
    44    21    42    1
    45    21    43    1
