
     RDKit          3D

 40 42  0  0  0  0  0  0  0  0999 V2000
    1.4029   -0.2084    0.1585 C   0  0  1  0  0  0  0  0  0  0  0  0
    1.0771   -0.9717    1.2773 O   0  0  0  0  0  0  0  0  0  0  0  0
    2.8195   -0.5957   -0.2871 C   0  0  0  0  0  0  0  0  0  0  0  0
    3.7547   -0.3313    0.7835 N   0  0  0  0  0  0  0  0  0  0  0  0
    5.1069   -0.6900    0.3872 C   0  0  0  0  0  0  0  0  0  0  0  0
    3.7006    1.0882    1.0908 C   0  0  0  0  0  0  0  0  0  0  0  0
    0.4875   -0.5523   -1.0052 C   0  0  0  0  0  0  0  0  0  0  0  0
   -0.9013   -0.2950   -0.6745 N   0  0  0  0  0  0  0  0  0  0  0  0
   -1.8458   -1.0682   -0.1249 C   0  0  0  0  0  0  0  0  0  0  0  0
   -1.6970   -2.3943    0.2844 C   0  0  0  0  0  0  0  0  0  0  0  0
   -2.8263   -2.9983    0.8318 C   0  0  0  0  0  0  0  0  0  0  0  0
   -4.0137   -2.2990    0.9504 C   0  0  0  0  0  0  0  0  0  0  0  0
   -5.6094   -3.0538    1.6901 Br  0  0  0  0  0  0  0  0  0  0  0  0
   -4.1340   -0.9785    0.5345 C   0  0  0  0  0  0  0  0  0  0  0  0
   -3.0208   -0.3657   -0.0110 C   0  0  0  0  0  0  0  0  0  0  0  0
   -2.7517    0.8828   -0.5197 C   0  0  0  0  0  0  0  0  0  0  0  0
   -1.4367    0.9323   -0.9333 C   0  0  0  0  0  0  0  0  0  0  0  0
   -0.9412    2.1149   -1.4877 C   0  0  0  0  0  0  0  0  0  0  0  0
   -1.7315    3.2354   -1.6330 C   0  0  0  0  0  0  0  0  0  0  0  0
   -3.0336    3.1593   -1.2142 C   0  0  0  0  0  0  0  0  0  0  0  0
   -4.0623    4.7618   -1.4527 Br  0  0  0  0  0  0  0  0  0  0  0  0
   -3.5447    2.0149   -0.6682 C   0  0  0  0  0  0  0  0  0  0  0  0
    1.3717    0.8433    0.4373 H   0  0  0  0  0  0  0  0  0  0  0  0
    1.5468   -1.8470    1.2450 H   0  0  0  0  0  0  0  0  0  0  0  0
    3.1184    0.0122   -1.1658 H   0  0  0  0  0  0  0  0  0  0  0  0
    2.8479   -1.6589   -0.6017 H   0  0  0  0  0  0  0  0  0  0  0  0
    5.4621   -0.0299   -0.4272 H   0  0  0  0  0  0  0  0  0  0  0  0
    5.1476   -1.7390    0.0878 H   0  0  0  0  0  0  0  0  0  0  0  0
    5.7822   -0.5358    1.2512 H   0  0  0  0  0  0  0  0  0  0  0  0
    2.8490    1.2275    1.7919 H   0  0  0  0  0  0  0  0  0  0  0  0
    3.4284    1.6133    0.1687 H   0  0  0  0  0  0  0  0  0  0  0  0
    4.6302    1.4531    1.5511 H   0  0  0  0  0  0  0  0  0  0  0  0
    0.6648   -1.6366   -1.2341 H   0  0  0  0  0  0  0  0  0  0  0  0
    0.8075   -0.0001   -1.9087 H   0  0  0  0  0  0  0  0  0  0  0  0
   -0.7913   -2.9585    0.2044 H   0  0  0  0  0  0  0  0  0  0  0  0
   -2.8458   -4.0226    1.1884 H   0  0  0  0  0  0  0  0  0  0  0  0
   -5.0293   -0.3812    0.6000 H   0  0  0  0  0  0  0  0  0  0  0  0
    0.0818    2.1462   -1.8069 H   0  0  0  0  0  0  0  0  0  0  0  0
   -1.2888    4.1232   -2.0705 H   0  0  0  0  0  0  0  0  0  0  0  0
   -4.5824    2.0032   -0.3512 H   0  0  0  0  0  0  0  0  0  0  0  0
  1  2  1  0
  1  3  1  0
  3  4  1  0
  4  5  1  0
  4  6  1  0
  1  7  1  0
  7  8  1  0
  8  9  1  0
  9 10  2  0
 10 11  1  0
 11 12  2  0
 12 13  1  0
 12 14  1  0
 14 15  2  0
 15 16  1  0
 16 17  2  0
 17 18  1  0
 18 19  2  0
 19 20  1  0
 20 21  1  0
 20 22  2  0
 17  8  1  0
 15  9  1  0
 22 16  1  0
  1 23  1  1
  2 24  1  0
  3 25  1  0
  3 26  1  0
  5 27  1  0
  5 28  1  0
  5 29  1  0
  6 30  1  0
  6 31  1  0
  6 32  1  0
  7 33  1  0
  7 34  1  0
 10 35  1  0
 11 36  1  0
 14 37  1  0
 18 38  1  0
 19 39  1  0
 22 40  1  0
M  END
$$$$
