@<TRIPOS>MOLECULE
*****
 40 42 0 0 0
SMALL
GASTEIGER

@<TRIPOS>ATOM
      1 C           1.4029   -0.2084    0.1585 C.3     1  UNL1        0.0857
      2 O           1.0771   -0.9717    1.2773 O.3     1  UNL1       -0.3888
      3 C           2.8195   -0.5957   -0.2871 C.3     1  UNL1        0.0260
      4 N           3.7547   -0.3313    0.7835 N.3     1  UNL1       -0.3059
      5 C           5.1069   -0.6900    0.3872 C.3     1  UNL1       -0.0130
      6 C           3.7006    1.0882    1.0908 C.3     1  UNL1       -0.0130
      7 C           0.4875   -0.5523   -1.0052 C.3     1  UNL1        0.0510
      8 N          -0.9013   -0.2950   -0.6745 N.ar    1  UNL1       -0.3373
      9 C          -1.8458   -1.0682   -0.1249 C.ar    1  UNL1        0.0502
     10 C          -1.6970   -2.3943    0.2844 C.ar    1  UNL1       -0.0365
     11 C          -2.8263   -2.9983    0.8318 C.ar    1  UNL1       -0.0458
     12 C          -4.0137   -2.2990    0.9504 C.ar    1  UNL1        0.0186
     13 BR         -5.6094   -3.0538    1.6901 Br      1  UNL1       -0.0503
     14 C          -4.1340   -0.9785    0.5345 C.ar    1  UNL1       -0.0380
     15 C          -3.0208   -0.3657   -0.0110 C.ar    1  UNL1        0.0087
     16 C          -2.7517    0.8828   -0.5197 C.ar    1  UNL1        0.0087
     17 C          -1.4367    0.9323   -0.9333 C.ar    1  UNL1        0.0502
     18 C          -0.9412    2.1149   -1.4877 C.ar    1  UNL1       -0.0365
     19 C          -1.7315    3.2354   -1.6330 C.ar    1  UNL1       -0.0458
     20 C          -3.0336    3.1593   -1.2142 C.ar    1  UNL1        0.0186
     21 BR         -4.0623    4.7618   -1.4527 Br      1  UNL1       -0.0503
     22 C          -3.5447    2.0149   -0.6682 C.ar    1  UNL1       -0.0380
     23 H           1.3717    0.8433    0.4373 H       1  UNL1        0.0624
     24 H           1.5468   -1.8470    1.2450 H       1  UNL1        0.2099
     25 H           3.1184    0.0122   -1.1658 H       1  UNL1        0.0452
     26 H           2.8479   -1.6589   -0.6017 H       1  UNL1        0.0452
     27 H           5.4621   -0.0299   -0.4272 H       1  UNL1        0.0391
     28 H           5.1476   -1.7390    0.0878 H       1  UNL1        0.0391
     29 H           5.7822   -0.5358    1.2512 H       1  UNL1        0.0391
     30 H           2.8490    1.2275    1.7919 H       1  UNL1        0.0391
     31 H           3.4284    1.6133    0.1687 H       1  UNL1        0.0391
     32 H           4.6302    1.4531    1.5511 H       1  UNL1        0.0391
     33 H           0.6648   -1.6366   -1.2341 H       1  UNL1        0.0518
     34 H           0.8075   -0.0001   -1.9087 H       1  UNL1        0.0518
     35 H          -0.7913   -2.9585    0.2044 H       1  UNL1        0.0639
     36 H          -2.8458   -4.0226    1.1884 H       1  UNL1        0.0629
     37 H          -5.0293   -0.3812    0.6000 H       1  UNL1        0.0635
     38 H           0.0818    2.1462   -1.8069 H       1  UNL1        0.0639
     39 H          -1.2888    4.1232   -2.0705 H       1  UNL1        0.0629
     40 H          -4.5824    2.0032   -0.3512 H       1  UNL1        0.0635
@<TRIPOS>BOND
     1     1     2    1
     2     1     3    1
     3     3     4    1
     4     4     5    1
     5     4     6    1
     6     1     7    1
     7     7     8    1
     8     8     9   ar
     9     9    10   ar
    10    10    11   ar
    11    11    12   ar
    12    12    13    1
    13    12    14   ar
    14    14    15   ar
    15    15    16   ar
    16    16    17   ar
    17    17    18   ar
    18    18    19   ar
    19    19    20   ar
    20    20    21    1
    21    20    22   ar
    22    17     8   ar
    23    15     9   ar
    24    22    16   ar
    25     1    23    1
    26     2    24    1
    27     3    25    1
    28     3    26    1
    29     5    27    1
    30     5    28    1
    31     5    29    1
    32     6    30    1
    33     6    31    1
    34     6    32    1
    35     7    33    1
    36     7    34    1
    37    10    35    1
    38    11    36    1
    39    14    37    1
    40    18    38    1
    41    19    39    1
    42    22    40    1
