@<TRIPOS>MOLECULE
*****
 52 55 0 0 0
SMALL
GASTEIGER

@<TRIPOS>ATOM
      1 C           3.9677    1.2295    1.2899 C.3     1  UNL1       -0.0610
      2 C           4.2603    1.8474   -0.0715 C.3     1  UNL1       -0.0271
      3 C           5.1612    3.0230    0.1046 C.3     1  UNL1       -0.0610
      4 C           2.9422    2.2048   -0.7494 C.3     1  UNL1        0.0438
      5 N           2.1395    1.0099   -0.9261 N.ar    1  UNL1       -0.2708
      6 C           1.2283    0.4584   -0.0925 C.ar    1  UNL1        0.0332
      7 C           0.7037   -0.6793   -0.6628 C.ar    1  UNL1        0.0480
      8 C          -0.3079   -1.6216   -0.1488 C.3     1  UNL1        0.2674
      9 C          -1.6421   -1.0224    0.0497 C.ar    1  UNL1        0.0113
     10 C          -2.6771   -1.8880    0.3498 C.ar    1  UNL1       -0.0540
     11 C          -3.9660   -1.4556    0.5556 C.ar    1  UNL1       -0.0608
     12 C          -4.2190   -0.1082    0.4552 C.ar    1  UNL1       -0.0539
     13 C          -3.2266    0.8013    0.1582 C.ar    1  UNL1       -0.0146
     14 C          -3.5044    2.2196    0.0524 C.ar    1  UNL1        0.0183
     15 C          -4.7154    2.6932   -0.3946 C.ar    1  UNL1        0.0385
     16 N          -4.9586    4.0337   -0.4908 N.ar    1  UNL1       -0.2431
     17 C          -3.9864    4.8964   -0.1383 C.ar    1  UNL1        0.1159
     18 N          -2.7846    4.4767    0.3052 N.ar    1  UNL1       -0.2431
     19 C          -2.5495    3.1488    0.3981 C.ar    1  UNL1        0.0385
     20 C          -1.9442    0.3057   -0.0388 C.ar    1  UNL1       -0.0462
     21 N           0.1114   -2.2205    1.0998 N.2     1  UNL1       -0.0890
     22 C           0.2291   -3.4858    0.9859 C.2     1  UNL1        0.3731
     23 N           0.6260   -4.3373    2.0467 N.pl3   1  UNL1       -0.2512
     24 N          -0.0800   -3.9379   -0.3105 N.am    1  UNL1       -0.1614
     25 C          -0.0446   -5.3123   -0.7655 C.3     1  UNL1        0.0573
     26 C          -0.4258   -2.7943   -1.0626 C.2     1  UNL1        0.3304
     27 O          -0.7663   -2.8033   -2.2795 O.2     1  UNL1       -0.2520
     28 C           1.3282   -0.8059   -1.8800 C.ar    1  UNL1        0.0571
     29 N           2.1774    0.2294   -1.9891 N.ar    1  UNL1       -0.1792
     30 H           4.8744    1.1952    1.9211 H       1  UNL1        0.0233
     31 H           3.6473    0.1701    1.1428 H       1  UNL1        0.0233
     32 H           3.1753    1.8581    1.7499 H       1  UNL1        0.0233
     33 H           4.7702    1.0970   -0.7249 H       1  UNL1        0.0313
     34 H           5.9696    2.7182    0.8012 H       1  UNL1        0.0233
     35 H           4.5917    3.8236    0.6470 H       1  UNL1        0.0233
     36 H           5.6069    3.3811   -0.8282 H       1  UNL1        0.0233
     37 H           2.4423    2.9598   -0.0993 H       1  UNL1        0.0511
     38 H           3.1863    2.6102   -1.7545 H       1  UNL1        0.0511
     39 H           0.9501    0.8586    0.8905 H       1  UNL1        0.0830
     40 H          -2.4937   -2.9466    0.4319 H       1  UNL1        0.0622
     41 H          -4.7973   -2.1039    0.7915 H       1  UNL1        0.0618
     42 H          -5.2320    0.2901    0.6110 H       1  UNL1        0.0624
     43 H          -5.4942    2.0013   -0.6759 H       1  UNL1        0.0837
     44 H          -4.1796    5.9572   -0.2143 H       1  UNL1        0.1047
     45 H          -1.5756    2.8472    0.7563 H       1  UNL1        0.0837
     46 H          -1.1655    0.9903   -0.2689 H       1  UNL1        0.0628
     47 H           0.0316   -4.5645    2.8679 H       1  UNL1        0.2412
     48 H           1.5717   -4.7640    2.0029 H       1  UNL1        0.2412
     49 H           0.1134   -5.2706   -1.8664 H       1  UNL1        0.0602
     50 H           0.7602   -5.8576   -0.2475 H       1  UNL1        0.0602
     51 H          -1.0270   -5.7739   -0.6003 H       1  UNL1        0.0602
     52 H           1.1975   -1.5824   -2.6524 H       1  UNL1        0.0852
@<TRIPOS>BOND
     1     1     2    1
     2     2     3    1
     3     2     4    1
     4     4     5    1
     5     5     6   ar
     6     6     7   ar
     7     7     8    1
     8     8     9    1
     9     9    10   ar
    10    10    11   ar
    11    11    12   ar
    12    12    13   ar
    13    13    14    1
    14    14    15   ar
    15    15    16   ar
    16    16    17   ar
    17    17    18   ar
    18    18    19   ar
    19    13    20   ar
    20     8    21    1
    21    21    22    2
    22    22    23    1
    23    22    24    1
    24    24    25    1
    25    24    26   am
    26    26    27    2
    27     7    28   ar
    28    28    29   ar
    29    29     5   ar
    30    26     8    1
    31    20     9   ar
    32    19    14   ar
    33     1    30    1
    34     1    31    1
    35     1    32    1
    36     2    33    1
    37     3    34    1
    38     3    35    1
    39     3    36    1
    40     4    37    1
    41     4    38    1
    42     6    39    1
    43    10    40    1
    44    11    41    1
    45    12    42    1
    46    15    43    1
    47    17    44    1
    48    19    45    1
    49    20    46    1
    50    23    47    1
    51    23    48    1
    52    25    49    1
    53    25    50    1
    54    25    51    1
    55    28    52    1
