
     RDKit          3D

 52 55  0  0  0  0  0  0  0  0999 V2000
    3.9677    1.2295    1.2899 C   0  0  0  0  0  0  0  0  0  0  0  0
    4.2603    1.8474   -0.0715 C   0  0  0  0  0  0  0  0  0  0  0  0
    5.1612    3.0230    0.1046 C   0  0  0  0  0  0  0  0  0  0  0  0
    2.9422    2.2048   -0.7494 C   0  0  0  0  0  0  0  0  0  0  0  0
    2.1395    1.0099   -0.9261 N   0  0  0  0  0  0  0  0  0  0  0  0
    1.2283    0.4584   -0.0925 C   0  0  0  0  0  0  0  0  0  0  0  0
    0.7037   -0.6793   -0.6628 C   0  0  0  0  0  0  0  0  0  0  0  0
   -0.3079   -1.6216   -0.1488 C   0  0  0  0  0  0  0  0  0  0  0  0
   -1.6421   -1.0224    0.0497 C   0  0  0  0  0  0  0  0  0  0  0  0
   -2.6771   -1.8880    0.3498 C   0  0  0  0  0  0  0  0  0  0  0  0
   -3.9660   -1.4556    0.5556 C   0  0  0  0  0  0  0  0  0  0  0  0
   -4.2190   -0.1082    0.4552 C   0  0  0  0  0  0  0  0  0  0  0  0
   -3.2266    0.8013    0.1582 C   0  0  0  0  0  0  0  0  0  0  0  0
   -3.5044    2.2196    0.0524 C   0  0  0  0  0  0  0  0  0  0  0  0
   -4.7154    2.6932   -0.3946 C   0  0  0  0  0  0  0  0  0  0  0  0
   -4.9586    4.0337   -0.4908 N   0  0  0  0  0  0  0  0  0  0  0  0
   -3.9864    4.8964   -0.1383 C   0  0  0  0  0  0  0  0  0  0  0  0
   -2.7846    4.4767    0.3052 N   0  0  0  0  0  0  0  0  0  0  0  0
   -2.5495    3.1488    0.3981 C   0  0  0  0  0  0  0  0  0  0  0  0
   -1.9442    0.3057   -0.0388 C   0  0  0  0  0  0  0  0  0  0  0  0
    0.1114   -2.2205    1.0998 N   0  0  0  0  0  0  0  0  0  0  0  0
    0.2291   -3.4858    0.9859 C   0  0  0  0  0  0  0  0  0  0  0  0
    0.6260   -4.3373    2.0467 N   0  0  0  0  0  0  0  0  0  0  0  0
   -0.0800   -3.9379   -0.3105 N   0  0  0  0  0  0  0  0  0  0  0  0
   -0.0446   -5.3123   -0.7655 C   0  0  0  0  0  0  0  0  0  0  0  0
   -0.4258   -2.7943   -1.0626 C   0  0  0  0  0  0  0  0  0  0  0  0
   -0.7663   -2.8033   -2.2795 O   0  0  0  0  0  0  0  0  0  0  0  0
    1.3282   -0.8059   -1.8800 C   0  0  0  0  0  0  0  0  0  0  0  0
    2.1774    0.2294   -1.9891 N   0  0  0  0  0  0  0  0  0  0  0  0
    4.8744    1.1952    1.9211 H   0  0  0  0  0  0  0  0  0  0  0  0
    3.6473    0.1701    1.1428 H   0  0  0  0  0  0  0  0  0  0  0  0
    3.1753    1.8581    1.7499 H   0  0  0  0  0  0  0  0  0  0  0  0
    4.7702    1.0970   -0.7249 H   0  0  0  0  0  0  0  0  0  0  0  0
    5.9696    2.7182    0.8012 H   0  0  0  0  0  0  0  0  0  0  0  0
    4.5917    3.8236    0.6470 H   0  0  0  0  0  0  0  0  0  0  0  0
    5.6069    3.3811   -0.8282 H   0  0  0  0  0  0  0  0  0  0  0  0
    2.4423    2.9598   -0.0993 H   0  0  0  0  0  0  0  0  0  0  0  0
    3.1863    2.6102   -1.7545 H   0  0  0  0  0  0  0  0  0  0  0  0
    0.9501    0.8586    0.8905 H   0  0  0  0  0  0  0  0  0  0  0  0
   -2.4937   -2.9466    0.4319 H   0  0  0  0  0  0  0  0  0  0  0  0
   -4.7973   -2.1039    0.7915 H   0  0  0  0  0  0  0  0  0  0  0  0
   -5.2320    0.2901    0.6110 H   0  0  0  0  0  0  0  0  0  0  0  0
   -5.4942    2.0013   -0.6759 H   0  0  0  0  0  0  0  0  0  0  0  0
   -4.1796    5.9572   -0.2143 H   0  0  0  0  0  0  0  0  0  0  0  0
   -1.5756    2.8472    0.7563 H   0  0  0  0  0  0  0  0  0  0  0  0
   -1.1655    0.9903   -0.2689 H   0  0  0  0  0  0  0  0  0  0  0  0
    0.0316   -4.5645    2.8679 H   0  0  0  0  0  0  0  0  0  0  0  0
    1.5717   -4.7640    2.0029 H   0  0  0  0  0  0  0  0  0  0  0  0
    0.1134   -5.2706   -1.8664 H   0  0  0  0  0  0  0  0  0  0  0  0
    0.7602   -5.8576   -0.2475 H   0  0  0  0  0  0  0  0  0  0  0  0
   -1.0270   -5.7739   -0.6003 H   0  0  0  0  0  0  0  0  0  0  0  0
    1.1975   -1.5824   -2.6524 H   0  0  0  0  0  0  0  0  0  0  0  0
  1  2  1  0
  2  3  1  0
  2  4  1  0
  4  5  1  0
  5  6  1  0
  6  7  2  0
  7  8  1  0
  8  9  1  0
  9 10  2  0
 10 11  1  0
 11 12  2  0
 12 13  1  0
 13 14  1  0
 14 15  2  0
 15 16  1  0
 16 17  2  0
 17 18  1  0
 18 19  2  0
 13 20  2  0
  8 21  1  0
 21 22  2  0
 22 23  1  0
 22 24  1  0
 24 25  1  0
 24 26  1  0
 26 27  2  0
  7 28  1  0
 28 29  2  0
 29  5  1  0
 26  8  1  0
 20  9  1  0
 19 14  1  0
  1 30  1  0
  1 31  1  0
  1 32  1  0
  2 33  1  0
  3 34  1  0
  3 35  1  0
  3 36  1  0
  4 37  1  0
  4 38  1  0
  6 39  1  0
 10 40  1  0
 11 41  1  0
 12 42  1  0
 15 43  1  0
 17 44  1  0
 19 45  1  0
 20 46  1  0
 23 47  1  0
 23 48  1  0
 25 49  1  0
 25 50  1  0
 25 51  1  0
 28 52  1  0
M  END
$$$$
