@<TRIPOS>MOLECULE
*****
 81 84 0 0 0
SMALL
GASTEIGER

@<TRIPOS>ATOM
      1 C           1.9972    1.4727   -1.9893 C.3     1  UNL1        0.1328
      2 C           3.1010    0.6762   -2.5964 C.3     1  UNL1        0.0035
      3 C           4.3031    0.4901   -1.7785 C.ar    1  UNL1       -0.0438
      4 C           5.4580    1.2453   -1.7574 C.ar    1  UNL1       -0.0401
      5 C           6.5269    0.9551   -0.9328 C.ar    1  UNL1        0.1051
      6 C           6.4993   -0.1240   -0.0698 C.ar    1  UNL1        0.1361
      7 O           7.5589   -0.4419    0.7643 O.3     1  UNL1       -0.4799
      8 C           7.4647   -1.5676    1.6529 C.3     1  UNL1        0.1857
      9 C           6.3681   -1.3864    2.6291 C.2     1  UNL1        0.3427
     10 O           5.3392   -0.5896    3.0919 O.3     1  UNL1       -0.4783
     11 O           6.2955   -2.3728    3.4148 O.2     1  UNL1       -0.2472
     12 C           5.3320   -0.8923   -0.0862 C.ar    1  UNL1       -0.0188
     13 C           4.2382   -0.6128   -0.9152 C.ar    1  UNL1       -0.0550
     14 P           7.9712    1.9884   -0.9880 P.3     1  UNL1        0.3618
     15 O           7.7291    3.4766   -0.2629 O.3     1  UNL1       -0.3207
     16 O           8.4582    2.1627   -2.6060 O.3     1  UNL1       -0.3207
     17 O           9.1102    1.2974   -0.2512 O.2     1  UNL1       -0.2533
     18 N           2.4654    2.7729   -1.6931 N.2     1  UNL1       -0.2418
     19 C           2.8961    3.3346   -0.6678 C.2     1  UNL1        0.1799
     20 C           3.2995    4.7805   -0.7987 C.3     1  UNL1        0.0112
     21 O           3.0109    2.6883    0.5543 O.2     1  UNL1       -0.4958
     22 C           1.3906    0.7588   -0.8038 C.2     1  UNL1        0.2089
     23 O           1.0966    0.3351    0.4770 O.2     1  UNL1       -0.4942
     24 N           0.5482   -0.0287   -1.1111 N.2     1  UNL1       -0.2402
     25 C          -0.4151   -0.9453   -1.3132 C.3     1  UNL1        0.1301
     26 C          -0.7443   -1.8582   -0.1178 C.3     1  UNL1       -0.0218
     27 C          -1.0767   -3.2174   -0.6000 C.3     1  UNL1       -0.0492
     28 C          -1.8723   -3.3447   -1.8371 C.3     1  UNL1       -0.0371
     29 C          -3.1127   -2.5347   -1.9501 C.3     1  UNL1        0.0151
     30 N          -2.9346   -1.1077   -1.8879 N.am    1  UNL1       -0.2954
     31 C          -4.1581   -0.3404   -2.1192 C.3     1  UNL1        0.0398
     32 C          -4.9294   -0.1640   -0.8692 C.ar    1  UNL1       -0.0301
     33 C          -5.9210   -1.1045   -0.5653 C.ar    1  UNL1       -0.0565
     34 C          -6.7278   -1.0791    0.5753 C.ar    1  UNL1       -0.0537
     35 C          -6.5277   -0.0411    1.4728 C.ar    1  UNL1       -0.0179
     36 C          -5.5570    0.8926    1.1895 C.ar    1  UNL1       -0.0537
     37 C          -4.7790    0.8403    0.0582 C.ar    1  UNL1       -0.0565
     38 C          -7.4021   -0.0625    2.6432 C.ar    1  UNL1       -0.0179
     39 C          -8.6754   -0.5721    2.4715 C.ar    1  UNL1       -0.0540
     40 C          -9.5587   -0.6194    3.5572 C.ar    1  UNL1       -0.0612
     41 C          -9.0790   -0.1407    4.7512 C.ar    1  UNL1       -0.0617
     42 C          -7.8234    0.3762    4.9739 C.ar    1  UNL1       -0.0612
     43 C          -6.9592    0.4155    3.8836 C.ar    1  UNL1       -0.0540
     44 C          -1.7567   -0.3134   -1.6305 C.2     1  UNL1        0.2405
     45 O          -1.8607    0.9256   -1.6739 O.2     1  UNL1       -0.2733
     46 H           1.1899    1.5970   -2.7722 H       1  UNL1        0.0646
     47 H           3.4196    1.2170   -3.5370 H       1  UNL1        0.0339
     48 H           2.7789   -0.3210   -2.9651 H       1  UNL1        0.0339
     49 H           5.4260    2.0798   -2.4516 H       1  UNL1        0.0630
     50 H           7.3184   -2.5138    1.0567 H       1  UNL1        0.0815
     51 H           8.4158   -1.6798    2.2027 H       1  UNL1        0.0815
     52 H           4.3803   -0.8103    2.8436 H       1  UNL1        0.2952
     53 H           5.2068   -1.7749    0.5555 H       1  UNL1        0.0654
     54 H           3.3697   -1.2568   -0.8656 H       1  UNL1        0.0621
     55 H           8.5724    4.0012   -0.4044 H       1  UNL1        0.2201
     56 H           7.6023    2.2485   -3.1332 H       1  UNL1        0.2201
     57 H           2.7346    5.3315   -0.0293 H       1  UNL1        0.0324
     58 H           4.3891    4.9108   -0.5474 H       1  UNL1        0.0324
     59 H           3.1930    5.1504   -1.8197 H       1  UNL1        0.0324
     60 H           3.4098    1.7578    0.6361 H       1  UNL1        0.2934
     61 H           0.9229    0.9646    1.2506 H       1  UNL1        0.2935
     62 H          -0.2752   -1.6460   -2.1945 H       1  UNL1        0.0642
     63 H           0.1392   -1.9210    0.5683 H       1  UNL1        0.0290
     64 H          -1.5834   -1.4350    0.4812 H       1  UNL1        0.0290
     65 H          -0.0897   -3.7387   -0.7958 H       1  UNL1        0.0267
     66 H          -1.5099   -3.8303    0.2448 H       1  UNL1        0.0267
     67 H          -1.2937   -3.2461   -2.7879 H       1  UNL1        0.0280
     68 H          -2.2197   -4.4296   -1.8784 H       1  UNL1        0.0280
     69 H          -3.5134   -2.7358   -2.9907 H       1  UNL1        0.0465
     70 H          -3.9420   -2.9095   -1.2863 H       1  UNL1        0.0465
     71 H          -4.7801   -0.9363   -2.8139 H       1  UNL1        0.0514
     72 H          -3.9356    0.6242   -2.6192 H       1  UNL1        0.0514
     73 H          -6.1072   -1.9334   -1.2506 H       1  UNL1        0.0621
     74 H          -7.4611   -1.8482    0.7248 H       1  UNL1        0.0624
     75 H          -5.4299    1.6882    1.9198 H       1  UNL1        0.0624
     76 H          -4.0359    1.5747   -0.1445 H       1  UNL1        0.0621
     77 H          -9.0735   -0.9554    1.5425 H       1  UNL1        0.0624
     78 H         -10.5576   -1.0153    3.4274 H       1  UNL1        0.0618
     79 H          -9.7673   -0.1813    5.5897 H       1  UNL1        0.0618
     80 H          -7.5093    0.7355    5.9360 H       1  UNL1        0.0618
     81 H          -5.9715    0.8138    4.0191 H       1  UNL1        0.0624
@<TRIPOS>BOND
     1     1     2    1
     2     2     3    1
     3     3     4   ar
     4     4     5   ar
     5     5     6   ar
     6     6     7    1
     7     7     8    1
     8     8     9    1
     9     9    10    1
    10     9    11    2
    11     6    12   ar
    12    12    13   ar
    13     5    14    1
    14    14    15    1
    15    14    16    1
    16    14    17    2
    17     1    18    1
    18    18    19    2
    19    19    20    1
    20    19    21    1
    21     1    22    1
    22    22    23    1
    23    22    24    2
    24    24    25    1
    25    25    26    1
    26    26    27    1
    27    27    28    1
    28    28    29    1
    29    29    30    1
    30    30    31    1
    31    31    32    1
    32    32    33   ar
    33    33    34   ar
    34    34    35   ar
    35    35    36   ar
    36    36    37   ar
    37    35    38    1
    38    38    39   ar
    39    39    40   ar
    40    40    41   ar
    41    41    42   ar
    42    42    43   ar
    43    30    44   am
    44    44    45    2
    45    13     3   ar
    46    44    25    1
    47    37    32   ar
    48    43    38   ar
    49     1    46    1
    50     2    47    1
    51     2    48    1
    52     4    49    1
    53     8    50    1
    54     8    51    1
    55    10    52    1
    56    12    53    1
    57    13    54    1
    58    15    55    1
    59    16    56    1
    60    20    57    1
    61    20    58    1
    62    20    59    1
    63    21    60    1
    64    23    61    1
    65    25    62    1
    66    26    63    1
    67    26    64    1
    68    27    65    1
    69    27    66    1
    70    28    67    1
    71    28    68    1
    72    29    69    1
    73    29    70    1
    74    31    71    1
    75    31    72    1
    76    33    73    1
    77    34    74    1
    78    36    75    1
    79    37    76    1
    80    39    77    1
    81    40    78    1
    82    41    79    1
    83    42    80    1
    84    43    81    1
