
     RDKit          3D

 81 84  0  0  0  0  0  0  0  0999 V2000
    1.9972    1.4727   -1.9893 C   0  0  2  0  0  0  0  0  0  0  0  0
    3.1010    0.6762   -2.5964 C   0  0  0  0  0  0  0  0  0  0  0  0
    4.3031    0.4901   -1.7785 C   0  0  0  0  0  0  0  0  0  0  0  0
    5.4580    1.2453   -1.7574 C   0  0  0  0  0  0  0  0  0  0  0  0
    6.5269    0.9551   -0.9328 C   0  0  0  0  0  0  0  0  0  0  0  0
    6.4993   -0.1240   -0.0698 C   0  0  0  0  0  0  0  0  0  0  0  0
    7.5589   -0.4419    0.7643 O   0  0  0  0  0  0  0  0  0  0  0  0
    7.4647   -1.5676    1.6529 C   0  0  0  0  0  0  0  0  0  0  0  0
    6.3681   -1.3864    2.6291 C   0  0  0  0  0  0  0  0  0  0  0  0
    5.3392   -0.5896    3.0919 O   0  0  0  0  0  0  0  0  0  0  0  0
    6.2955   -2.3728    3.4148 O   0  0  0  0  0  0  0  0  0  0  0  0
    5.3320   -0.8923   -0.0862 C   0  0  0  0  0  0  0  0  0  0  0  0
    4.2382   -0.6128   -0.9152 C   0  0  0  0  0  0  0  0  0  0  0  0
    7.9712    1.9884   -0.9880 P   0  0  0  0  0  0  0  0  0  0  0  0
    7.7291    3.4766   -0.2629 O   0  0  0  0  0  0  0  0  0  0  0  0
    8.4582    2.1627   -2.6060 O   0  0  0  0  0  0  0  0  0  0  0  0
    9.1102    1.2974   -0.2512 O   0  0  0  0  0  0  0  0  0  0  0  0
    2.4654    2.7729   -1.6931 N   0  0  0  0  0  0  0  0  0  0  0  0
    2.8961    3.3346   -0.6678 C   0  0  0  0  0  0  0  0  0  0  0  0
    3.2995    4.7805   -0.7987 C   0  0  0  0  0  0  0  0  0  0  0  0
    3.0109    2.6883    0.5543 O   0  0  0  0  0  0  0  0  0  0  0  0
    1.3906    0.7588   -0.8038 C   0  0  0  0  0  0  0  0  0  0  0  0
    1.0966    0.3351    0.4770 O   0  0  0  0  0  0  0  0  0  0  0  0
    0.5482   -0.0287   -1.1111 N   0  0  0  0  0  0  0  0  0  0  0  0
   -0.4151   -0.9453   -1.3132 C   0  0  1  0  0  0  0  0  0  0  0  0
   -0.7443   -1.8582   -0.1178 C   0  0  0  0  0  0  0  0  0  0  0  0
   -1.0767   -3.2174   -0.6000 C   0  0  0  0  0  0  0  0  0  0  0  0
   -1.8723   -3.3447   -1.8371 C   0  0  0  0  0  0  0  0  0  0  0  0
   -3.1127   -2.5347   -1.9501 C   0  0  0  0  0  0  0  0  0  0  0  0
   -2.9346   -1.1077   -1.8879 N   0  0  0  0  0  0  0  0  0  0  0  0
   -4.1581   -0.3404   -2.1192 C   0  0  0  0  0  0  0  0  0  0  0  0
   -4.9294   -0.1640   -0.8692 C   0  0  0  0  0  0  0  0  0  0  0  0
   -5.9210   -1.1045   -0.5653 C   0  0  0  0  0  0  0  0  0  0  0  0
   -6.7278   -1.0791    0.5753 C   0  0  0  0  0  0  0  0  0  0  0  0
   -6.5277   -0.0411    1.4728 C   0  0  0  0  0  0  0  0  0  0  0  0
   -5.5570    0.8926    1.1895 C   0  0  0  0  0  0  0  0  0  0  0  0
   -4.7790    0.8403    0.0582 C   0  0  0  0  0  0  0  0  0  0  0  0
   -7.4021   -0.0625    2.6432 C   0  0  0  0  0  0  0  0  0  0  0  0
   -8.6754   -0.5721    2.4715 C   0  0  0  0  0  0  0  0  0  0  0  0
   -9.5587   -0.6194    3.5572 C   0  0  0  0  0  0  0  0  0  0  0  0
   -9.0790   -0.1407    4.7512 C   0  0  0  0  0  0  0  0  0  0  0  0
   -7.8234    0.3762    4.9739 C   0  0  0  0  0  0  0  0  0  0  0  0
   -6.9592    0.4155    3.8836 C   0  0  0  0  0  0  0  0  0  0  0  0
   -1.7567   -0.3134   -1.6305 C   0  0  0  0  0  0  0  0  0  0  0  0
   -1.8607    0.9256   -1.6739 O   0  0  0  0  0  0  0  0  0  0  0  0
    1.1899    1.5970   -2.7722 H   0  0  0  0  0  0  0  0  0  0  0  0
    3.4196    1.2170   -3.5370 H   0  0  0  0  0  0  0  0  0  0  0  0
    2.7789   -0.3210   -2.9651 H   0  0  0  0  0  0  0  0  0  0  0  0
    5.4260    2.0798   -2.4516 H   0  0  0  0  0  0  0  0  0  0  0  0
    7.3184   -2.5138    1.0567 H   0  0  0  0  0  0  0  0  0  0  0  0
    8.4158   -1.6798    2.2027 H   0  0  0  0  0  0  0  0  0  0  0  0
    4.3803   -0.8103    2.8436 H   0  0  0  0  0  0  0  0  0  0  0  0
    5.2068   -1.7749    0.5555 H   0  0  0  0  0  0  0  0  0  0  0  0
    3.3697   -1.2568   -0.8656 H   0  0  0  0  0  0  0  0  0  0  0  0
    8.5724    4.0012   -0.4044 H   0  0  0  0  0  0  0  0  0  0  0  0
    7.6023    2.2485   -3.1332 H   0  0  0  0  0  0  0  0  0  0  0  0
    2.7346    5.3315   -0.0293 H   0  0  0  0  0  0  0  0  0  0  0  0
    4.3891    4.9108   -0.5474 H   0  0  0  0  0  0  0  0  0  0  0  0
    3.1930    5.1504   -1.8197 H   0  0  0  0  0  0  0  0  0  0  0  0
    3.4098    1.7578    0.6361 H   0  0  0  0  0  0  0  0  0  0  0  0
    0.9229    0.9646    1.2506 H   0  0  0  0  0  0  0  0  0  0  0  0
   -0.2752   -1.6460   -2.1945 H   0  0  0  0  0  0  0  0  0  0  0  0
    0.1392   -1.9210    0.5683 H   0  0  0  0  0  0  0  0  0  0  0  0
   -1.5834   -1.4350    0.4812 H   0  0  0  0  0  0  0  0  0  0  0  0
   -0.0897   -3.7387   -0.7958 H   0  0  0  0  0  0  0  0  0  0  0  0
   -1.5099   -3.8303    0.2448 H   0  0  0  0  0  0  0  0  0  0  0  0
   -1.2937   -3.2461   -2.7879 H   0  0  0  0  0  0  0  0  0  0  0  0
   -2.2197   -4.4296   -1.8784 H   0  0  0  0  0  0  0  0  0  0  0  0
   -3.5134   -2.7358   -2.9907 H   0  0  0  0  0  0  0  0  0  0  0  0
   -3.9420   -2.9095   -1.2863 H   0  0  0  0  0  0  0  0  0  0  0  0
   -4.7801   -0.9363   -2.8139 H   0  0  0  0  0  0  0  0  0  0  0  0
   -3.9356    0.6242   -2.6192 H   0  0  0  0  0  0  0  0  0  0  0  0
   -6.1072   -1.9334   -1.2506 H   0  0  0  0  0  0  0  0  0  0  0  0
   -7.4611   -1.8482    0.7248 H   0  0  0  0  0  0  0  0  0  0  0  0
   -5.4299    1.6882    1.9198 H   0  0  0  0  0  0  0  0  0  0  0  0
   -4.0359    1.5747   -0.1445 H   0  0  0  0  0  0  0  0  0  0  0  0
   -9.0735   -0.9554    1.5425 H   0  0  0  0  0  0  0  0  0  0  0  0
  -10.5576   -1.0153    3.4274 H   0  0  0  0  0  0  0  0  0  0  0  0
   -9.7673   -0.1813    5.5897 H   0  0  0  0  0  0  0  0  0  0  0  0
   -7.5093    0.7355    5.9360 H   0  0  0  0  0  0  0  0  0  0  0  0
   -5.9715    0.8138    4.0191 H   0  0  0  0  0  0  0  0  0  0  0  0
  1  2  1  0
  2  3  1  0
  3  4  2  0
  4  5  1  0
  5  6  2  0
  6  7  1  0
  7  8  1  0
  8  9  1  0
  9 10  1  0
  9 11  2  0
  6 12  1  0
 12 13  2  0
  5 14  1  0
 14 15  1  0
 14 16  1  0
 14 17  2  0
  1 18  1  0
 18 19  2  3
 19 20  1  0
 19 21  1  0
  1 22  1  0
 22 23  1  0
 22 24  2  3
 24 25  1  0
 25 26  1  0
 26 27  1  0
 27 28  1  0
 28 29  1  0
 29 30  1  0
 30 31  1  0
 31 32  1  0
 32 33  2  0
 33 34  1  0
 34 35  2  0
 35 36  1  0
 36 37  2  0
 35 38  1  0
 38 39  2  0
 39 40  1  0
 40 41  2  0
 41 42  1  0
 42 43  2  0
 30 44  1  0
 44 45  2  0
 13  3  1  0
 44 25  1  0
 37 32  1  0
 43 38  1  0
  1 46  1  6
  2 47  1  0
  2 48  1  0
  4 49  1  0
  8 50  1  0
  8 51  1  0
 10 52  1  0
 12 53  1  0
 13 54  1  0
 15 55  1  0
 16 56  1  0
 20 57  1  0
 20 58  1  0
 20 59  1  0
 21 60  1  0
 23 61  1  0
 25 62  1  6
 26 63  1  0
 26 64  1  0
 27 65  1  0
 27 66  1  0
 28 67  1  0
 28 68  1  0
 29 69  1  0
 29 70  1  0
 31 71  1  0
 31 72  1  0
 33 73  1  0
 34 74  1  0
 36 75  1  0
 37 76  1  0
 39 77  1  0
 40 78  1  0
 41 79  1  0
 42 80  1  0
 43 81  1  0
M  END
$$$$
