
     RDKit          3D

 49 50  0  0  0  0  0  0  0  0999 V2000
   -1.7602   -4.0423    1.2496 C   0  0  0  0  0  0  0  0  0  0  0  0
   -1.7556   -3.5166   -0.1493 C   0  0  0  0  0  0  0  0  0  0  0  0
   -1.4637   -2.1074   -0.2269 N   0  0  0  0  0  4  0  0  0  0  0  0
   -0.1910   -1.7146   -0.3526 C   0  0  0  0  0  0  0  0  0  0  0  0
    0.8705   -2.7354   -0.4078 C   0  0  0  0  0  0  0  0  0  0  0  0
    0.1242   -0.3808   -0.4292 C   0  0  0  0  0  0  0  0  0  0  0  0
    1.5160   -0.0243   -0.5640 C   0  0  0  0  0  0  0  0  0  0  0  0
    1.9266    0.0646   -1.7411 O   0  0  0  0  0  0  0  0  0  0  0  0
    2.4323    0.2264    0.4687 O   0  0  0  0  0  0  0  0  0  0  0  0
    3.7747    0.5682    0.2017 C   0  0  0  0  0  0  0  0  0  0  0  0
    4.7185   -0.5532    0.6497 C   0  0  0  0  0  0  0  0  0  0  0  0
    4.1894    1.9095    0.7112 C   0  0  0  0  0  0  0  0  0  0  0  0
   -0.9039    0.5206   -0.3725 C   0  0  0  0  0  0  0  0  0  0  0  0
   -0.5583    1.9330   -0.4547 C   0  0  0  0  0  0  0  0  0  0  0  0
   -0.2988    2.6018    0.7317 C   0  0  0  0  0  0  0  0  0  0  0  0
    0.0318    3.9284    0.7318 C   0  0  0  0  0  0  0  0  0  0  0  0
    0.1010    4.5843   -0.4743 C   0  0  0  0  0  0  0  0  0  0  0  0
   -0.1470    3.9755   -1.7045 C   0  0  0  0  0  0  0  0  0  0  0  0
   -0.4771    2.6371   -1.6609 C   0  0  0  0  0  0  0  0  0  0  0  0
   -0.8052    1.7859   -3.1436 Cl  0  0  0  0  0  0  0  0  0  0  0  0
   -2.2482    0.1527   -0.2414 C   0  0  0  0  0  0  0  0  0  0  0  0
   -3.2776    1.1761   -0.1891 C   0  0  0  0  0  0  0  0  0  0  0  0
   -3.6172    1.6673    1.0756 O   0  0  0  0  0  0  0  0  0  0  0  0
   -3.9308    1.7066   -1.1200 O   0  0  0  0  0  0  0  0  0  0  0  0
   -2.4503   -1.2001   -0.1739 C   0  0  0  0  0  0  0  0  0  0  0  0
   -3.8578   -1.5782   -0.0347 C   0  0  0  0  0  0  0  0  0  0  0  0
   -4.6401   -2.7048    0.0782 O   0  0  0  0  0  0  0  0  0  0  0  0
   -4.8440   -0.7691    0.0212 O   0  0  0  0  0  0  0  0  0  0  0  0
   -2.7401   -4.5561    1.4026 H   0  0  0  0  0  0  0  0  0  0  0  0
   -0.9860   -4.8182    1.4153 H   0  0  0  0  0  0  0  0  0  0  0  0
   -1.6143   -3.2583    2.0104 H   0  0  0  0  0  0  0  0  0  0  0  0
   -0.9740   -4.0964   -0.7183 H   0  0  0  0  0  0  0  0  0  0  0  0
   -2.6914   -3.7034   -0.7125 H   0  0  0  0  0  0  0  0  0  0  0  0
    1.8593   -2.2715   -0.1190 H   0  0  0  0  0  0  0  0  0  0  0  0
    0.9417   -3.1636   -1.4211 H   0  0  0  0  0  0  0  0  0  0  0  0
    0.7417   -3.5660    0.3166 H   0  0  0  0  0  0  0  0  0  0  0  0
    3.8683    0.5764   -0.9128 H   0  0  0  0  0  0  0  0  0  0  0  0
    5.6407   -0.4361    0.0455 H   0  0  0  0  0  0  0  0  0  0  0  0
    4.2677   -1.5054    0.3143 H   0  0  0  0  0  0  0  0  0  0  0  0
    4.8693   -0.4734    1.7329 H   0  0  0  0  0  0  0  0  0  0  0  0
    3.8404    2.1509    1.7270 H   0  0  0  0  0  0  0  0  0  0  0  0
    5.3057    1.8938    0.7779 H   0  0  0  0  0  0  0  0  0  0  0  0
    3.9148    2.6614   -0.0494 H   0  0  0  0  0  0  0  0  0  0  0  0
   -0.3428    2.1233    1.6942 H   0  0  0  0  0  0  0  0  0  0  0  0
    0.2558    4.5631    1.5720 H   0  0  0  0  0  0  0  0  0  0  0  0
    0.3588    5.6478   -0.5678 H   0  0  0  0  0  0  0  0  0  0  0  0
   -0.0851    4.5180   -2.6428 H   0  0  0  0  0  0  0  0  0  0  0  0
   -3.9418    2.6413    1.1713 H   0  0  0  0  0  0  0  0  0  0  0  0
   -4.9468   -3.0388    0.9643 H   0  0  0  0  0  0  0  0  0  0  0  0
  1  2  1  0
  2  3  1  0
  3  4  2  0
  4  5  1  0
  4  6  1  0
  6  7  1  0
  7  8  2  0
  7  9  1  0
  9 10  1  0
 10 11  1  0
 10 12  1  0
  6 13  2  0
 13 14  1  0
 14 15  2  0
 15 16  1  0
 16 17  2  0
 17 18  1  0
 18 19  2  0
 19 20  1  0
 13 21  1  0
 21 22  1  0
 22 23  1  0
 22 24  2  0
 21 25  2  0
 25 26  1  0
 26 27  1  0
 26 28  2  0
 25  3  1  0
 19 14  1  0
  1 29  1  0
  1 30  1  0
  1 31  1  0
  2 32  1  0
  2 33  1  0
  5 34  1  0
  5 35  1  0
  5 36  1  0
 10 37  1  0
 11 38  1  0
 11 39  1  0
 11 40  1  0
 12 41  1  0
 12 42  1  0
 12 43  1  0
 15 44  1  0
 16 45  1  0
 17 46  1  0
 18 47  1  0
 23 48  1  0
 27 49  1  0
M  CHG  1   3   1
M  END
$$$$
