@<TRIPOS>MOLECULE
*****
 36 36 0 0 0
SMALL
GASTEIGER

@<TRIPOS>ATOM
      1 C          -5.5802   -1.0216    0.1058 C.3     1  UNL1       -0.0653
      2 C          -4.9208    0.0749   -0.7012 C.3     1  UNL1       -0.0559
      3 C          -3.3989   -0.0821   -0.6553 C.3     1  UNL1       -0.0533
      4 C          -2.8836   -0.0040    0.7413 C.3     1  UNL1       -0.0528
      5 C          -1.3862   -0.1550    0.8519 C.3     1  UNL1       -0.0491
      6 C          -0.6387    0.8937    0.1039 C.3     1  UNL1       -0.0277
      7 C           0.8424    0.7399    0.2194 C.ar    1  UNL1       -0.0473
      8 C           1.5671    1.3434    1.2250 C.ar    1  UNL1       -0.0579
      9 C           2.9513    1.1827    1.3093 C.ar    1  UNL1       -0.0507
     10 C           3.6297    0.4152    0.3875 C.ar    1  UNL1        0.0217
     11 C           2.8468   -0.1577   -0.5884 C.ar    1  UNL1       -0.0507
     12 C           1.4842   -0.0219   -0.7026 C.ar    1  UNL1       -0.0579
     13 C           5.0663    0.2916    0.5354 C.2     1  UNL1        0.1855
     14 O           5.5630    0.9226    1.5289 O.2     1  UNL1       -0.2873
     15 C           6.0210   -0.4357   -0.2688 C.2     1  UNL1       -0.0214
     16 C           5.7281   -1.1515   -1.3354 C.2     1  UNL1       -0.0951
     17 H          -5.7085   -0.6995    1.1397 H       1  UNL1        0.0230
     18 H          -6.5506   -1.2519   -0.3753 H       1  UNL1        0.0230
     19 H          -4.8882   -1.8964    0.0610 H       1  UNL1        0.0230
     20 H          -5.1628    1.0351   -0.1936 H       1  UNL1        0.0263
     21 H          -5.2870    0.1537   -1.7265 H       1  UNL1        0.0263
     22 H          -3.2117   -1.0721   -1.1292 H       1  UNL1        0.0265
     23 H          -2.9211    0.6536   -1.3070 H       1  UNL1        0.0265
     24 H          -3.3651   -0.7897    1.3544 H       1  UNL1        0.0265
     25 H          -3.2296    0.9739    1.1686 H       1  UNL1        0.0265
     26 H          -1.1041   -0.1530    1.9109 H       1  UNL1        0.0268
     27 H          -1.1605   -1.1773    0.4297 H       1  UNL1        0.0268
     28 H          -0.9530    0.9833   -0.9514 H       1  UNL1        0.0313
     29 H          -0.8651    1.8788    0.5921 H       1  UNL1        0.0313
     30 H           1.0191    1.9421    1.9398 H       1  UNL1        0.0620
     31 H           3.3980    1.7094    2.1453 H       1  UNL1        0.0625
     32 H           3.3312   -0.7669   -1.3321 H       1  UNL1        0.0625
     33 H           0.9392   -0.5035   -1.4976 H       1  UNL1        0.0620
     34 H           7.0646   -0.4465   -0.0506 H       1  UNL1        0.0650
     35 H           5.3583   -1.7009   -2.1866 H       1  UNL1        0.0536
     36 H           6.4051   -1.7068   -1.9610 H       1  UNL1        0.0536
@<TRIPOS>BOND
     1     1     2    1
     2     2     3    1
     3     3     4    1
     4     4     5    1
     5     5     6    1
     6     6     7    1
     7     7     8   ar
     8     8     9   ar
     9     9    10   ar
    10    10    11   ar
    11    11    12   ar
    12    10    13    1
    13    13    14    2
    14    13    15    1
    15    15    16    2
    16    12     7   ar
    17     1    17    1
    18     1    18    1
    19     1    19    1
    20     2    20    1
    21     2    21    1
    22     3    22    1
    23     3    23    1
    24     4    24    1
    25     4    25    1
    26     5    26    1
    27     5    27    1
    28     6    28    1
    29     6    29    1
    30     8    30    1
    31     9    31    1
    32    11    32    1
    33    12    33    1
    34    15    34    1
    35    16    35    1
    36    16    36    1
