@<TRIPOS>MOLECULE
*****
 69 72 0 0 0
SMALL
GASTEIGER

@<TRIPOS>ATOM
      1 C          -0.3921   -4.5864    0.8891 C.3     1  UNL1       -0.0377
      2 C          -1.8397   -4.5167    1.0624 C.ar    1  UNL1       -0.0248
      3 C          -2.5135   -5.5686    1.7175 C.ar    1  UNL1       -0.0568
      4 C          -3.8688   -5.5460    1.9151 C.ar    1  UNL1       -0.0594
      5 C          -4.6058   -4.4804    1.4708 C.ar    1  UNL1       -0.0342
      6 C          -3.9774   -3.4395    0.8280 C.ar    1  UNL1        0.0912
      7 N          -4.4605   -2.3008    0.3048 N.ar    1  UNL1       -0.2141
      8 C          -3.4310   -1.6321   -0.2065 C.ar    1  UNL1        0.2035
      9 N          -3.4746   -0.3616   -0.8781 N.am    1  UNL1       -0.2518
     10 C          -3.4130    0.8623   -0.1642 C.2     1  UNL1        0.2505
     11 O          -3.3205    0.8029    1.1091 O.2     1  UNL1       -0.2698
     12 C          -3.4498    2.1706   -0.8041 C.ar    1  UNL1        0.0405
     13 C          -3.5123    2.3224   -2.1559 C.ar    1  UNL1       -0.0314
     14 C          -3.5484    3.6149   -2.6827 C.ar    1  UNL1        0.0289
     15 N          -3.5243    4.7083   -1.9166 N.ar    1  UNL1       -0.2509
     16 C          -3.4628    4.5810   -0.5787 C.ar    1  UNL1        0.1442
     17 C          -3.4391    5.8008    0.2908 C.3     1  UNL1        0.4342
     18 F          -4.0055    6.8460   -0.4309 F       1  UNL1       -0.1644
     19 F          -4.1804    5.6009    1.4431 F       1  UNL1       -0.1644
     20 F          -2.1182    6.0975    0.5637 F       1  UNL1       -0.1644
     21 C          -3.4262    3.3113   -0.0383 C.ar    1  UNL1       -0.0195
     22 N          -2.2464   -2.3150   -0.0325 N.ar    1  UNL1       -0.3067
     23 C          -0.9393   -1.9030   -0.4716 C.3     1  UNL1        0.0534
     24 C          -0.2755   -2.7017   -1.5288 C.3     1  UNL1       -0.0305
     25 C           1.2235   -2.7886   -1.4701 C.3     1  UNL1       -0.0497
     26 C           1.8742   -1.5665   -2.1017 C.3     1  UNL1       -0.0371
     27 C           1.1816   -0.3030   -1.6203 C.3     1  UNL1        0.0150
     28 N           0.9945   -0.4042   -0.1948 N.am    1  UNL1       -0.2960
     29 C           1.9622    0.1531    0.6358 C.2     1  UNL1        0.2392
     30 O           1.7996    0.0831    1.8902 O.2     1  UNL1       -0.2706
     31 C           3.1426    0.8061    0.1497 C.2     1  UNL1       -0.0024
     32 C           4.0582    1.3363    0.9881 C.2     1  UNL1       -0.0652
     33 C           5.2822    2.0145    0.5012 C.3     1  UNL1        0.0170
     34 N           5.3445    3.3943    0.9471 N.3     1  UNL1       -0.3047
     35 C           5.5453    3.3760    2.3820 C.3     1  UNL1       -0.0127
     36 C           6.4695    4.0816    0.3503 C.3     1  UNL1       -0.0127
     37 C          -0.1488   -1.0762    0.4589 C.3     1  UNL1        0.0359
     38 C          -2.5887   -3.4491    0.6180 C.ar    1  UNL1        0.0733
     39 H          -0.0497   -5.3454    1.6949 H       1  UNL1        0.0278
     40 H           0.1949   -3.7203    1.2113 H       1  UNL1        0.0278
     41 H          -0.0294   -5.1138   -0.0131 H       1  UNL1        0.0278
     42 H          -1.8894   -6.4015    2.0550 H       1  UNL1        0.0621
     43 H          -4.3414   -6.3853    2.4280 H       1  UNL1        0.0618
     44 H          -5.6825   -4.4428    1.6185 H       1  UNL1        0.0639
     45 H          -3.5527   -0.3537   -1.9145 H       1  UNL1        0.1580
     46 H          -3.5331    1.4673   -2.8119 H       1  UNL1        0.0640
     47 H          -3.5984    3.7208   -3.7722 H       1  UNL1        0.0830
     48 H          -3.3762    3.2650    1.0543 H       1  UNL1        0.0646
     49 H          -1.2640   -0.9994   -1.1678 H       1  UNL1        0.0544
     50 H          -0.6862   -3.7097   -1.7280 H       1  UNL1        0.0286
     51 H          -0.4305   -2.2466   -2.5936 H       1  UNL1        0.0286
     52 H           1.5262   -3.6455   -2.1196 H       1  UNL1        0.0266
     53 H           1.6455   -3.0008   -0.4744 H       1  UNL1        0.0266
     54 H           1.8800   -1.5779   -3.1956 H       1  UNL1        0.0280
     55 H           2.9133   -1.5266   -1.7415 H       1  UNL1        0.0280
     56 H           0.2332   -0.1534   -2.1869 H       1  UNL1        0.0465
     57 H           1.8124    0.5515   -1.8896 H       1  UNL1        0.0465
     58 H           3.4135    0.9306   -0.8954 H       1  UNL1        0.0667
     59 H           3.8417    1.2346    2.0370 H       1  UNL1        0.0586
     60 H           6.1907    1.4662    0.8122 H       1  UNL1        0.0470
     61 H           5.3222    2.0478   -0.6091 H       1  UNL1        0.0470
     62 H           4.6891    2.8934    2.9179 H       1  UNL1        0.0391
     63 H           6.4147    2.6830    2.5800 H       1  UNL1        0.0391
     64 H           5.7739    4.3621    2.7956 H       1  UNL1        0.0391
     65 H           6.9776    4.7727    1.0797 H       1  UNL1        0.0391
     66 H           7.2332    3.3254    0.0813 H       1  UNL1        0.0391
     67 H           6.1740    4.6433   -0.5652 H       1  UNL1        0.0391
     68 H           0.3088   -1.5060    1.3354 H       1  UNL1        0.0485
     69 H          -0.8263   -0.2592    0.8399 H       1  UNL1        0.0485
@<TRIPOS>BOND
     1     1     2    1
     2     2     3   ar
     3     3     4   ar
     4     4     5   ar
     5     5     6   ar
     6     6     7   ar
     7     7     8   ar
     8     8     9    1
     9     9    10   am
    10    10    11    2
    11    10    12    1
    12    12    13   ar
    13    13    14   ar
    14    14    15   ar
    15    15    16   ar
    16    16    17    1
    17    17    18    1
    18    17    19    1
    19    17    20    1
    20    16    21   ar
    21     8    22   ar
    22    22    23    1
    23    23    24    1
    24    24    25    1
    25    25    26    1
    26    26    27    1
    27    27    28    1
    28    28    29   am
    29    29    30    2
    30    29    31    1
    31    31    32    2
    32    32    33    1
    33    33    34    1
    34    34    35    1
    35    34    36    1
    36    28    37    1
    37    22    38   ar
    38    38     2   ar
    39    38     6   ar
    40    21    12   ar
    41    37    23    1
    42     1    39    1
    43     1    40    1
    44     1    41    1
    45     3    42    1
    46     4    43    1
    47     5    44    1
    48     9    45    1
    49    13    46    1
    50    14    47    1
    51    21    48    1
    52    23    49    1
    53    24    50    1
    54    24    51    1
    55    25    52    1
    56    25    53    1
    57    26    54    1
    58    26    55    1
    59    27    56    1
    60    27    57    1
    61    31    58    1
    62    32    59    1
    63    33    60    1
    64    33    61    1
    65    35    62    1
    66    35    63    1
    67    35    64    1
    68    36    65    1
    69    36    66    1
    70    36    67    1
    71    37    68    1
    72    37    69    1
