
     RDKit          3D

 98 99  0  0  0  0  0  0  0  0999 V2000
   -7.9970   -4.0391    0.1004 C   0  0  0  0  0  0  0  0  0  0  0  0
   -8.9771   -5.2139    0.0784 C   0  0  0  0  0  0  0  0  0  0  0  0
   -8.0641   -6.6251    0.7571 S   0  0  0  0  0  0  0  0  0  0  0  0
   -6.8859   -4.4492   -0.7314 N   0  0  0  0  0  0  0  0  0  0  0  0
   -5.7847   -3.7848   -0.6514 C   0  0  0  0  0  0  0  0  0  0  0  0
   -5.7691   -4.8329   -1.5432 O   0  0  0  0  0  0  0  0  0  0  0  0
   -5.4372   -2.6056    0.1917 C   0  0  0  0  0  0  0  0  0  0  0  0
   -4.2195   -2.9707    1.0102 C   0  0  0  0  0  0  0  0  0  0  0  0
   -3.0931   -3.3153    0.0755 C   0  0  0  0  0  0  0  0  0  0  0  0
   -2.7827   -2.1493   -0.8140 C   0  0  0  0  0  0  0  0  0  0  0  0
   -2.3847   -0.9684    0.0195 C   0  0  0  0  0  0  0  0  0  0  0  0
   -2.1001    0.1143   -0.9398 N   0  0  0  0  0  0  0  0  0  0  0  0
   -1.3250    1.0543   -0.5167 C   0  0  0  0  0  0  0  0  0  0  0  0
   -1.7789    1.1969   -1.8088 O   0  0  0  0  0  0  0  0  0  0  0  0
   -0.6009    1.3412    0.7746 C   0  0  2  0  0  0  0  0  0  0  0  0
   -1.1744    2.6005    1.4028 C   0  0  0  0  0  0  0  0  0  0  0  0
   -1.0250    3.7774    0.5081 C   0  0  0  0  0  0  0  0  0  0  0  0
    0.0432    4.6492    0.4678 C   0  0  0  0  0  0  0  0  0  0  0  0
    0.0388    5.7091   -0.4268 C   0  0  0  0  0  0  0  0  0  0  0  0
   -1.0221    5.8870   -1.2648 C   0  0  0  0  0  0  0  0  0  0  0  0
   -2.1368    5.0439   -1.2784 C   0  0  0  0  0  0  0  0  0  0  0  0
   -2.0847    3.9949   -0.3621 C   0  0  0  0  0  0  0  0  0  0  0  0
   -0.9947    7.0446   -2.2223 C   0  0  0  0  0  0  0  0  0  0  0  0
    0.0786    6.8835   -3.0828 F   0  0  0  0  0  0  0  0  0  0  0  0
   -2.1702    7.1123   -2.9266 F   0  0  0  0  0  0  0  0  0  0  0  0
   -0.7415    8.5954   -1.3227 P   0  0  0  0  0  0  0  0  0  0  0  0
   -1.3536    8.4884    0.2547 O   0  0  0  0  0  0  0  0  0  0  0  0
   -1.5951    9.8028   -2.1414 O   0  0  0  0  0  0  0  0  0  0  0  0
    0.7199    8.9243   -1.2396 O   0  0  0  0  0  0  0  0  0  0  0  0
    0.8100    1.4773    0.5251 N   0  0  0  0  0  0  0  0  0  0  0  0
    1.6843    0.5422    0.5155 C   0  0  0  0  0  0  0  0  0  0  0  0
    1.2618   -0.7744    0.7729 O   0  0  0  0  0  0  0  0  0  0  0  0
    3.1045    0.8728    0.2338 C   0  0  0  0  0  0  0  0  0  0  0  0
    3.2234    2.3687    0.0919 C   0  0  0  0  0  0  0  0  0  0  0  0
    4.5828    2.8320   -0.1903 C   0  0  0  0  0  0  0  0  0  0  0  0
    5.9202    2.5268   -0.4103 O   0  0  0  0  0  0  0  0  0  0  0  0
    4.5597    4.1059   -0.2824 O   0  0  0  0  0  0  0  0  0  0  0  0
    3.9946    0.2831    1.1557 N   0  0  0  0  0  0  0  0  0  0  0  0
    4.0956    0.3619    2.4047 C   0  0  0  0  0  0  0  0  0  0  0  0
    3.1631    1.1811    3.0259 O   0  0  0  0  0  0  0  0  0  0  0  0
    5.1924   -0.4303    3.0171 C   0  0  0  0  0  0  0  0  0  0  0  0
    5.9991   -1.1830    2.0189 C   0  0  0  0  0  0  0  0  0  0  0  0
    7.1076   -0.5214    1.4747 C   0  0  0  0  0  0  0  0  0  0  0  0
    7.9476   -1.0995    0.5344 C   0  0  0  0  0  0  0  0  0  0  0  0
    7.6616   -2.3948    0.1246 C   0  0  0  0  0  0  0  0  0  0  0  0
    6.5718   -3.0766    0.6442 C   0  0  0  0  0  0  0  0  0  0  0  0
    5.7397   -2.4876    1.5837 C   0  0  0  0  0  0  0  0  0  0  0  0
    8.5570   -3.0271   -0.8871 C   0  0  0  0  0  0  0  0  0  0  0  0
    9.8867   -2.7171   -0.6782 F   0  0  0  0  0  0  0  0  0  0  0  0
    8.2299   -2.5653   -2.1361 F   0  0  0  0  0  0  0  0  0  0  0  0
    8.3954   -4.8321   -0.8859 P   0  0  0  0  0  0  0  0  0  0  0  0
    8.5371   -5.3516    0.7318 O   0  0  0  0  0  0  0  0  0  0  0  0
    6.9362   -5.3581   -1.5108 O   0  0  0  0  0  0  0  0  0  0  0  0
    9.5793   -5.4202   -1.6263 O   0  0  0  0  0  0  0  0  0  0  0  0
   -8.6082   -2.8340   -0.4993 C   0  0  0  0  0  0  0  0  0  0  0  0
   -8.2727   -1.5220   -0.7638 O   0  0  0  0  0  0  0  0  0  0  0  0
   -9.7930   -2.7799   -0.9755 N   0  0  0  0  0  0  0  0  0  0  0  0
   -7.7100   -3.8441    1.1526 H   0  0  0  0  0  0  0  0  0  0  0  0
   -9.8766   -4.9861    0.6558 H   0  0  0  0  0  0  0  0  0  0  0  0
   -9.1537   -5.4088   -0.9989 H   0  0  0  0  0  0  0  0  0  0  0  0
   -8.5743   -7.7910    0.1138 H   0  0  0  0  0  0  0  0  0  0  0  0
   -4.9682   -4.9181   -2.1843 H   0  0  0  0  0  0  0  0  0  0  0  0
   -5.2230   -1.7077   -0.3950 H   0  0  0  0  0  0  0  0  0  0  0  0
   -6.2924   -2.4205    0.8998 H   0  0  0  0  0  0  0  0  0  0  0  0
   -3.9904   -2.1406    1.6916 H   0  0  0  0  0  0  0  0  0  0  0  0
   -4.5369   -3.8753    1.6068 H   0  0  0  0  0  0  0  0  0  0  0  0
   -3.3543   -4.1634   -0.5935 H   0  0  0  0  0  0  0  0  0  0  0  0
   -2.1483   -3.5268    0.6409 H   0  0  0  0  0  0  0  0  0  0  0  0
   -3.6177   -1.9179   -1.5376 H   0  0  0  0  0  0  0  0  0  0  0  0
   -1.9276   -2.4286   -1.5119 H   0  0  0  0  0  0  0  0  0  0  0  0
   -1.4877   -1.2690    0.5904 H   0  0  0  0  0  0  0  0  0  0  0  0
   -3.1271   -0.6401    0.7456 H   0  0  0  0  0  0  0  0  0  0  0  0
   -1.4337    1.9987   -2.3577 H   0  0  0  0  0  0  0  0  0  0  0  0
   -0.7523    0.5165    1.4873 H   0  0  0  0  0  0  0  0  0  0  0  0
   -2.2290    2.4558    1.7066 H   0  0  0  0  0  0  0  0  0  0  0  0
   -0.6167    2.7909    2.3346 H   0  0  0  0  0  0  0  0  0  0  0  0
    0.8473    4.4426    1.1625 H   0  0  0  0  0  0  0  0  0  0  0  0
    0.8989    6.3643   -0.4213 H   0  0  0  0  0  0  0  0  0  0  0  0
   -2.9639    5.1951   -1.9424 H   0  0  0  0  0  0  0  0  0  0  0  0
   -2.9707    3.3417   -0.3866 H   0  0  0  0  0  0  0  0  0  0  0  0
   -2.0837    9.1532    0.4042 H   0  0  0  0  0  0  0  0  0  0  0  0
   -1.3720   10.7057   -1.8127 H   0  0  0  0  0  0  0  0  0  0  0  0
    0.6523   -0.9308    1.5891 H   0  0  0  0  0  0  0  0  0  0  0  0
    3.3122    0.3740   -0.7676 H   0  0  0  0  0  0  0  0  0  0  0  0
    2.9049    2.8199    1.0556 H   0  0  0  0  0  0  0  0  0  0  0  0
    2.5370    2.6898   -0.7203 H   0  0  0  0  0  0  0  0  0  0  0  0
    6.3502    2.7052   -1.3223 H   0  0  0  0  0  0  0  0  0  0  0  0
    2.1711    1.0443    2.9128 H   0  0  0  0  0  0  0  0  0  0  0  0
    4.7677   -1.1047    3.7932 H   0  0  0  0  0  0  0  0  0  0  0  0
    5.8912    0.2400    3.5782 H   0  0  0  0  0  0  0  0  0  0  0  0
    7.3755    0.5050    1.7657 H   0  0  0  0  0  0  0  0  0  0  0  0
    8.7845   -0.5713    0.1380 H   0  0  0  0  0  0  0  0  0  0  0  0
    6.3334   -4.0666    0.3453 H   0  0  0  0  0  0  0  0  0  0  0  0
    4.8784   -2.9540    2.0315 H   0  0  0  0  0  0  0  0  0  0  0  0
    9.4955   -5.5255    0.9435 H   0  0  0  0  0  0  0  0  0  0  0  0
    6.7919   -6.2854   -1.1707 H   0  0  0  0  0  0  0  0  0  0  0  0
   -8.5771   -0.7475   -0.2072 H   0  0  0  0  0  0  0  0  0  0  0  0
  -10.4544   -3.5619   -0.9967 H   0  0  0  0  0  0  0  0  0  0  0  0
  1  2  1  0
  2  3  1  0
  1  4  1  0
  4  5  2  3
  5  6  1  0
  5  7  1  0
  7  8  1  0
  8  9  1  0
  9 10  1  0
 10 11  1  0
 11 12  1  0
 12 13  2  3
 13 14  1  0
 13 15  1  0
 15 16  1  0
 16 17  1  0
 17 18  2  0
 18 19  1  0
 19 20  2  0
 20 21  1  0
 21 22  2  0
 20 23  1  0
 23 24  1  0
 23 25  1  0
 23 26  1  0
 26 27  1  0
 26 28  1  0
 26 29  2  0
 15 30  1  0
 30 31  2  3
 31 32  1  0
 31 33  1  0
 33 34  1  0
 34 35  1  0
 35 36  1  0
 35 37  2  0
 33 38  1  0
 38 39  2  3
 39 40  1  0
 39 41  1  0
 41 42  1  0
 42 43  2  0
 43 44  1  0
 44 45  2  0
 45 46  1  0
 46 47  2  0
 45 48  1  0
 48 49  1  0
 48 50  1  0
 48 51  1  0
 51 52  1  0
 51 53  1  0
 51 54  2  0
  1 55  1  0
 55 56  1  0
 55 57  2  3
 22 17  1  0
 47 42  1  0
  1 58  1  0
  2 59  1  0
  2 60  1  0
  3 61  1  0
  6 62  1  0
  7 63  1  0
  7 64  1  0
  8 65  1  0
  8 66  1  0
  9 67  1  0
  9 68  1  0
 10 69  1  0
 10 70  1  0
 11 71  1  0
 11 72  1  0
 14 73  1  0
 15 74  1  1
 16 75  1  0
 16 76  1  0
 18 77  1  0
 19 78  1  0
 21 79  1  0
 22 80  1  0
 27 81  1  0
 28 82  1  0
 32 83  1  0
 33 84  1  0
 34 85  1  0
 34 86  1  0
 36 87  1  0
 40 88  1  0
 41 89  1  0
 41 90  1  0
 43 91  1  0
 44 92  1  0
 46 93  1  0
 47 94  1  0
 52 95  1  0
 53 96  1  0
 56 97  1  0
 57 98  1  0
M  END
$$$$
