
     RDKit          3D

 50 52  0  0  0  0  0  0  0  0999 V2000
   -6.9476   -1.2584   -0.8685 C   0  0  0  0  0  0  0  0  0  0  0  0
   -6.0792   -0.3235   -0.1958 N   0  0  0  0  0  0  0  0  0  0  0  0
   -5.7281    0.8089   -0.9853 C   0  0  0  0  0  0  0  0  0  0  0  0
   -4.3578    0.7733   -1.5734 C   0  0  0  0  0  0  0  0  0  0  0  0
   -3.2772    0.3895   -0.6128 C   0  0  0  0  0  0  0  0  0  0  0  0
   -2.0185    1.5951   -0.4476 S   0  0  0  0  0  6  0  0  0  0  0  0
   -2.5989    2.9117   -0.0331 O   0  0  0  0  0  0  0  0  0  0  0  0
   -1.3109    1.8253   -1.7610 O   0  0  0  0  0  0  0  0  0  0  0  0
   -0.8365    1.0249    0.7257 C   0  0  0  0  0  0  0  0  0  0  0  0
   -0.9524    1.3425    2.0596 C   0  0  0  0  0  0  0  0  0  0  0  0
   -2.2965    2.3512    2.6160 Cl  0  0  0  0  0  0  0  0  0  0  0  0
   -0.0449    0.9086    3.0199 C   0  0  0  0  0  0  0  0  0  0  0  0
    1.0028    0.1343    2.6099 C   0  0  0  0  0  0  0  0  0  0  0  0
    1.1394   -0.1994    1.2623 C   0  0  0  0  0  0  0  0  0  0  0  0
    2.2617   -1.0077    0.9399 N   0  0  0  0  0  0  0  0  0  0  0  0
    3.5283   -0.4290    0.5880 C   0  0  0  0  0  0  0  0  0  0  0  0
    3.5824    0.8021    0.5826 O   0  0  0  0  0  0  0  0  0  0  0  0
    4.6486   -1.2093    0.2664 N   0  0  0  0  0  0  0  0  0  0  0  0
    5.9283   -0.7329   -0.0902 C   0  0  0  0  0  0  0  0  0  0  0  0
    6.3062    0.5821   -0.1865 C   0  0  0  0  0  0  0  0  0  0  0  0
    7.5914    0.9740   -0.5453 C   0  0  0  0  0  0  0  0  0  0  0  0
    8.5405    0.0301   -0.8196 C   0  0  0  0  0  0  0  0  0  0  0  0
    8.2051   -1.3133   -0.7354 C   0  0  0  0  0  0  0  0  0  0  0  0
    9.1569   -2.2218   -1.0102 F   0  0  0  0  0  0  0  0  0  0  0  0
    6.9348   -1.6582   -0.3805 C   0  0  0  0  0  0  0  0  0  0  0  0
    6.5592   -3.3710   -0.2878 Cl  0  0  0  0  0  0  0  0  0  0  0  0
    0.2328    0.2423    0.3486 C   0  0  0  0  0  0  0  0  0  0  0  0
    0.3799   -0.0948   -0.9793 O   0  0  0  0  0  0  0  0  0  0  0  0
   -3.9086    0.1178    0.7249 C   0  0  0  0  0  0  0  0  0  0  0  0
   -4.9768   -0.9569    0.4717 C   0  0  0  0  0  0  0  0  0  0  0  0
   -7.9467   -0.8259   -0.9472 H   0  0  0  0  0  0  0  0  0  0  0  0
   -6.5305   -1.6019   -1.8374 H   0  0  0  0  0  0  0  0  0  0  0  0
   -7.0249   -2.1616   -0.2223 H   0  0  0  0  0  0  0  0  0  0  0  0
   -5.9275    1.7289   -0.3999 H   0  0  0  0  0  0  0  0  0  0  0  0
   -6.4534    0.8520   -1.8465 H   0  0  0  0  0  0  0  0  0  0  0  0
   -4.3106    0.1595   -2.4961 H   0  0  0  0  0  0  0  0  0  0  0  0
   -4.1231    1.8235   -1.9170 H   0  0  0  0  0  0  0  0  0  0  0  0
   -2.8240   -0.5813   -0.9693 H   0  0  0  0  0  0  0  0  0  0  0  0
   -0.1531    1.1691    4.0668 H   0  0  0  0  0  0  0  0  0  0  0  0
    1.7283   -0.2184    3.3455 H   0  0  0  0  0  0  0  0  0  0  0  0
    2.1936   -2.0414    0.9508 H   0  0  0  0  0  0  0  0  0  0  0  0
    4.4956   -2.2663    0.3011 H   0  0  0  0  0  0  0  0  0  0  0  0
    5.6206    1.3752    0.0124 H   0  0  0  0  0  0  0  0  0  0  0  0
    7.8472    2.0197   -0.6093 H   0  0  0  0  0  0  0  0  0  0  0  0
    9.5480    0.3014   -1.1011 H   0  0  0  0  0  0  0  0  0  0  0  0
    0.7045    0.5726   -1.6828 H   0  0  0  0  0  0  0  0  0  0  0  0
   -3.1630   -0.2647    1.4547 H   0  0  0  0  0  0  0  0  0  0  0  0
   -4.4599    1.0007    1.0535 H   0  0  0  0  0  0  0  0  0  0  0  0
   -4.5583   -1.8174   -0.0719 H   0  0  0  0  0  0  0  0  0  0  0  0
   -5.3273   -1.2612    1.4813 H   0  0  0  0  0  0  0  0  0  0  0  0
  1  2  1  0
  2  3  1  0
  3  4  1  0
  4  5  1  0
  5  6  1  0
  6  7  2  0
  6  8  2  0
  6  9  1  0
  9 10  2  0
 10 11  1  0
 10 12  1  0
 12 13  2  0
 13 14  1  0
 14 15  1  0
 15 16  1  0
 16 17  2  0
 16 18  1  0
 18 19  1  0
 19 20  2  0
 20 21  1  0
 21 22  2  0
 22 23  1  0
 23 24  1  0
 23 25  2  0
 25 26  1  0
 14 27  2  0
 27 28  1  0
  5 29  1  0
 29 30  1  0
 30  2  1  0
 27  9  1  0
 25 19  1  0
  1 31  1  0
  1 32  1  0
  1 33  1  0
  3 34  1  0
  3 35  1  0
  4 36  1  0
  4 37  1  0
  5 38  1  0
 12 39  1  0
 13 40  1  0
 15 41  1  0
 18 42  1  0
 20 43  1  0
 21 44  1  0
 22 45  1  0
 28 46  1  0
 29 47  1  0
 29 48  1  0
 30 49  1  0
 30 50  1  0
M  END
$$$$
