@<TRIPOS>MOLECULE
*****
 50 52 0 0 0
SMALL
GASTEIGER

@<TRIPOS>ATOM
      1 C          -6.9476   -1.2584   -0.8685 C.3     1  UNL1       -0.0128
      2 N          -6.0792   -0.3235   -0.1958 N.3     1  UNL1       -0.3052
      3 C          -5.7281    0.8089   -0.9853 C.3     1  UNL1        0.0003
      4 C          -4.3578    0.7733   -1.5734 C.3     1  UNL1       -0.0175
      5 C          -3.2772    0.3895   -0.6128 C.3     1  UNL1        0.0845
      6 S          -2.0185    1.5951   -0.4476 S.O2    1  UNL1        0.0047
      7 O          -2.5989    2.9117   -0.0331 O.2     1  UNL1       -0.1689
      8 O          -1.3109    1.8253   -1.7610 O.2     1  UNL1       -0.1689
      9 C          -0.8365    1.0249    0.7257 C.ar    1  UNL1        0.1497
     10 C          -0.9524    1.3425    2.0596 C.ar    1  UNL1        0.0694
     11 CL         -2.2965    2.3512    2.6160 Cl      1  UNL1       -0.0815
     12 C          -0.0449    0.9086    3.0199 C.ar    1  UNL1       -0.0395
     13 C           1.0028    0.1343    2.6099 C.ar    1  UNL1       -0.0354
     14 C           1.1394   -0.1994    1.2623 C.ar    1  UNL1        0.0785
     15 N           2.2617   -1.0077    0.9399 N.am    1  UNL1       -0.2661
     16 C           3.5283   -0.4290    0.5880 C.2     1  UNL1        0.3082
     17 O           3.5824    0.8021    0.5826 O.2     1  UNL1       -0.2521
     18 N           4.6486   -1.2093    0.2664 N.am    1  UNL1       -0.2678
     19 C           5.9283   -0.7329   -0.0902 C.ar    1  UNL1        0.0559
     20 C           6.3062    0.5821   -0.1865 C.ar    1  UNL1       -0.0388
     21 C           7.5914    0.9740   -0.5453 C.ar    1  UNL1       -0.0572
     22 C           8.5405    0.0301   -0.8196 C.ar    1  UNL1       -0.0249
     23 C           8.2051   -1.3133   -0.7354 C.ar    1  UNL1        0.1434
     24 F           9.1569   -2.2218   -1.0102 F       1  UNL1       -0.2039
     25 C           6.9348   -1.6582   -0.3805 C.ar    1  UNL1        0.0972
     26 CL          6.5592   -3.3710   -0.2878 Cl      1  UNL1       -0.0786
     27 C           0.2328    0.2423    0.3486 C.ar    1  UNL1        0.1644
     28 O           0.3799   -0.0948   -0.9793 O.3     1  UNL1       -0.5032
     29 C          -3.9086    0.1178    0.7249 C.3     1  UNL1       -0.0175
     30 C          -4.9768   -0.9569    0.4717 C.3     1  UNL1        0.0003
     31 H          -7.9467   -0.8259   -0.9472 H       1  UNL1        0.0391
     32 H          -6.5305   -1.6019   -1.8374 H       1  UNL1        0.0391
     33 H          -7.0249   -2.1616   -0.2223 H       1  UNL1        0.0391
     34 H          -5.9275    1.7289   -0.3999 H       1  UNL1        0.0427
     35 H          -6.4534    0.8520   -1.8465 H       1  UNL1        0.0427
     36 H          -4.3106    0.1595   -2.4961 H       1  UNL1        0.0296
     37 H          -4.1231    1.8235   -1.9170 H       1  UNL1        0.0296
     38 H          -2.8240   -0.5813   -0.9693 H       1  UNL1        0.0541
     39 H          -0.1531    1.1691    4.0668 H       1  UNL1        0.0633
     40 H           1.7283   -0.2184    3.3455 H       1  UNL1        0.0638
     41 H           2.1936   -2.0414    0.9508 H       1  UNL1        0.1565
     42 H           4.4956   -2.2663    0.3011 H       1  UNL1        0.1564
     43 H           5.6206    1.3752    0.0124 H       1  UNL1        0.0637
     44 H           7.8472    2.0197   -0.6093 H       1  UNL1        0.0619
     45 H           9.5480    0.3014   -1.1011 H       1  UNL1        0.0647
     46 H           0.7045    0.5726   -1.6828 H       1  UNL1        0.2923
     47 H          -3.1630   -0.2647    1.4547 H       1  UNL1        0.0296
     48 H          -4.4599    1.0007    1.0535 H       1  UNL1        0.0296
     49 H          -4.5583   -1.8174   -0.0719 H       1  UNL1        0.0427
     50 H          -5.3273   -1.2612    1.4813 H       1  UNL1        0.0427
@<TRIPOS>BOND
     1     1     2    1
     2     2     3    1
     3     3     4    1
     4     4     5    1
     5     5     6    1
     6     6     7    2
     7     6     8    2
     8     6     9    1
     9     9    10   ar
    10    10    11    1
    11    10    12   ar
    12    12    13   ar
    13    13    14   ar
    14    14    15    1
    15    15    16   am
    16    16    17    2
    17    16    18   am
    18    18    19    1
    19    19    20   ar
    20    20    21   ar
    21    21    22   ar
    22    22    23   ar
    23    23    24    1
    24    23    25   ar
    25    25    26    1
    26    14    27   ar
    27    27    28    1
    28     5    29    1
    29    29    30    1
    30    30     2    1
    31    27     9   ar
    32    25    19   ar
    33     1    31    1
    34     1    32    1
    35     1    33    1
    36     3    34    1
    37     3    35    1
    38     4    36    1
    39     4    37    1
    40     5    38    1
    41    12    39    1
    42    13    40    1
    43    15    41    1
    44    18    42    1
    45    20    43    1
    46    21    44    1
    47    22    45    1
    48    28    46    1
    49    29    47    1
    50    29    48    1
    51    30    49    1
    52    30    50    1
