@<TRIPOS>MOLECULE
*****
 52 56 0 0 0
SMALL
GASTEIGER

@<TRIPOS>ATOM
      1 C          -7.0048   -2.4830   -0.1406 C.3     1  UNL1        0.0132
      2 N          -5.8271   -1.6489   -0.2078 N.ar    1  UNL1       -0.3342
      3 C          -4.6186   -1.7968    0.3562 C.ar    1  UNL1        0.0147
      4 C          -3.8005   -0.7516    0.0177 C.ar    1  UNL1        0.0150
      5 C          -2.4168   -0.4958    0.3978 C.ar    1  UNL1        0.0199
      6 C          -1.3847   -0.9649   -0.3830 C.ar    1  UNL1       -0.0494
      7 C          -0.0562   -0.7280   -0.0359 C.ar    1  UNL1       -0.0393
      8 C           0.2663   -0.0189    1.0968 C.ar    1  UNL1        0.0422
      9 C          -0.7693    0.4496    1.8762 C.ar    1  UNL1        0.0113
     10 C          -2.1031    0.2162    1.5348 C.ar    1  UNL1        0.1361
     11 F          -3.1162    0.6804    2.3068 F       1  UNL1       -0.2045
     12 C          -0.1592    1.1760    3.0174 C.3     1  UNL1       -0.0069
     13 C           1.2472    0.6788    3.0860 C.3     1  UNL1        0.0239
     14 N           1.5259    0.3566    1.6693 N.am    1  UNL1       -0.2704
     15 C           2.7963    0.4254    1.0973 C.2     1  UNL1        0.2256
     16 O           3.7632    0.8493    1.7943 O.2     1  UNL1       -0.2748
     17 C           3.0779    0.0334   -0.2741 C.3     1  UNL1        0.0668
     18 C           4.5183    0.3063   -0.6480 C.ar    1  UNL1        0.0507
     19 C           4.8620    1.5126   -1.2257 C.ar    1  UNL1       -0.0399
     20 C           6.1662    1.7296   -1.5482 C.ar    1  UNL1       -0.0581
     21 C           7.1159    0.7625   -1.3008 C.ar    1  UNL1       -0.0316
     22 C           6.7559   -0.4406   -0.7218 C.ar    1  UNL1        0.1438
     23 C           7.8172   -1.4514   -0.4763 C.3     1  UNL1        0.4342
     24 F           8.6636   -0.9797    0.5170 F       1  UNL1       -0.1644
     25 F           7.2783   -2.6769   -0.1560 F       1  UNL1       -0.1644
     26 F           8.5454   -1.5356   -1.6681 F       1  UNL1       -0.1644
     27 N           5.4621   -0.6198   -0.4171 N.ar    1  UNL1       -0.2471
     28 C          -4.5390    0.0842   -0.7957 C.ar    1  UNL1        0.0661
     29 C          -4.2378    1.2659   -1.4229 C.ar    1  UNL1        0.1292
     30 N          -2.9513    1.8203   -1.2697 N.pl3   1  UNL1       -0.3425
     31 N          -5.1640    1.8934   -2.1799 N.ar    1  UNL1       -0.2204
     32 C          -6.3817    1.3245   -2.2967 C.ar    1  UNL1        0.1204
     33 N          -6.6854    0.1663   -1.6852 N.ar    1  UNL1       -0.2176
     34 C          -5.7927   -0.4882   -0.9243 C.ar    1  UNL1        0.1461
     35 H          -7.2457   -2.9868   -1.0823 H       1  UNL1        0.0456
     36 H          -6.8669   -3.1858    0.7151 H       1  UNL1        0.0456
     37 H          -7.8796   -1.8381    0.1700 H       1  UNL1        0.0456
     38 H          -4.3520   -2.6341    0.9863 H       1  UNL1        0.0816
     39 H          -1.6245   -1.5262   -1.2795 H       1  UNL1        0.0625
     40 H           0.7334   -1.1029   -0.6659 H       1  UNL1        0.0636
     41 H          -0.1254    2.2720    2.8330 H       1  UNL1        0.0330
     42 H          -0.7475    0.9676    3.9571 H       1  UNL1        0.0330
     43 H           1.9438    1.4624    3.3910 H       1  UNL1        0.0472
     44 H           1.3355   -0.2602    3.6938 H       1  UNL1        0.0472
     45 H           2.4465    0.5339   -1.0245 H       1  UNL1        0.0422
     46 H           3.0113   -1.0936   -0.3985 H       1  UNL1        0.0422
     47 H           4.0565    2.2137   -1.3849 H       1  UNL1        0.0636
     48 H           6.4441    2.6710   -1.9999 H       1  UNL1        0.0619
     49 H           8.1421    0.9655   -1.5686 H       1  UNL1        0.0638
     50 H          -2.8037    2.6042   -0.6164 H       1  UNL1        0.1437
     51 H          -2.1589    1.4433   -1.8099 H       1  UNL1        0.1437
     52 H          -7.1621    1.8073   -2.9059 H       1  UNL1        0.1048
@<TRIPOS>BOND
     1     1     2    1
     2     2     3   ar
     3     3     4   ar
     4     4     5    1
     5     5     6   ar
     6     6     7   ar
     7     7     8   ar
     8     8     9   ar
     9     9    10   ar
    10    10    11    1
    11     9    12    1
    12    12    13    1
    13    13    14    1
    14    14    15   am
    15    15    16    2
    16    15    17    1
    17    17    18    1
    18    18    19   ar
    19    19    20   ar
    20    20    21   ar
    21    21    22   ar
    22    22    23    1
    23    23    24    1
    24    23    25    1
    25    23    26    1
    26    22    27   ar
    27     4    28   ar
    28    28    29   ar
    29    29    30    1
    30    29    31   ar
    31    31    32   ar
    32    32    33   ar
    33    33    34   ar
    34    34     2   ar
    35    10     5   ar
    36    27    18   ar
    37    34    28   ar
    38    14     8    1
    39     1    35    1
    40     1    36    1
    41     1    37    1
    42     3    38    1
    43     6    39    1
    44     7    40    1
    45    12    41    1
    46    12    42    1
    47    13    43    1
    48    13    44    1
    49    17    45    1
    50    17    46    1
    51    19    47    1
    52    20    48    1
    53    21    49    1
    54    30    50    1
    55    30    51    1
    56    32    52    1
