
     RDKit          3D

 52 56  0  0  0  0  0  0  0  0999 V2000
   -7.0048   -2.4830   -0.1406 C   0  0  0  0  0  0  0  0  0  0  0  0
   -5.8271   -1.6489   -0.2078 N   0  0  0  0  0  0  0  0  0  0  0  0
   -4.6186   -1.7968    0.3562 C   0  0  0  0  0  0  0  0  0  0  0  0
   -3.8005   -0.7516    0.0177 C   0  0  0  0  0  0  0  0  0  0  0  0
   -2.4168   -0.4958    0.3978 C   0  0  0  0  0  0  0  0  0  0  0  0
   -1.3847   -0.9649   -0.3830 C   0  0  0  0  0  0  0  0  0  0  0  0
   -0.0562   -0.7280   -0.0359 C   0  0  0  0  0  0  0  0  0  0  0  0
    0.2663   -0.0189    1.0968 C   0  0  0  0  0  0  0  0  0  0  0  0
   -0.7693    0.4496    1.8762 C   0  0  0  0  0  0  0  0  0  0  0  0
   -2.1031    0.2162    1.5348 C   0  0  0  0  0  0  0  0  0  0  0  0
   -3.1162    0.6804    2.3068 F   0  0  0  0  0  0  0  0  0  0  0  0
   -0.1592    1.1760    3.0174 C   0  0  0  0  0  0  0  0  0  0  0  0
    1.2472    0.6788    3.0860 C   0  0  0  0  0  0  0  0  0  0  0  0
    1.5259    0.3566    1.6693 N   0  0  0  0  0  0  0  0  0  0  0  0
    2.7963    0.4254    1.0973 C   0  0  0  0  0  0  0  0  0  0  0  0
    3.7632    0.8493    1.7943 O   0  0  0  0  0  0  0  0  0  0  0  0
    3.0779    0.0334   -0.2741 C   0  0  0  0  0  0  0  0  0  0  0  0
    4.5183    0.3063   -0.6480 C   0  0  0  0  0  0  0  0  0  0  0  0
    4.8620    1.5126   -1.2257 C   0  0  0  0  0  0  0  0  0  0  0  0
    6.1662    1.7296   -1.5482 C   0  0  0  0  0  0  0  0  0  0  0  0
    7.1159    0.7625   -1.3008 C   0  0  0  0  0  0  0  0  0  0  0  0
    6.7559   -0.4406   -0.7218 C   0  0  0  0  0  0  0  0  0  0  0  0
    7.8172   -1.4514   -0.4763 C   0  0  0  0  0  0  0  0  0  0  0  0
    8.6636   -0.9797    0.5170 F   0  0  0  0  0  0  0  0  0  0  0  0
    7.2783   -2.6769   -0.1560 F   0  0  0  0  0  0  0  0  0  0  0  0
    8.5454   -1.5356   -1.6681 F   0  0  0  0  0  0  0  0  0  0  0  0
    5.4621   -0.6198   -0.4171 N   0  0  0  0  0  0  0  0  0  0  0  0
   -4.5390    0.0842   -0.7957 C   0  0  0  0  0  0  0  0  0  0  0  0
   -4.2378    1.2659   -1.4229 C   0  0  0  0  0  0  0  0  0  0  0  0
   -2.9513    1.8203   -1.2697 N   0  0  0  0  0  0  0  0  0  0  0  0
   -5.1640    1.8934   -2.1799 N   0  0  0  0  0  0  0  0  0  0  0  0
   -6.3817    1.3245   -2.2967 C   0  0  0  0  0  0  0  0  0  0  0  0
   -6.6854    0.1663   -1.6852 N   0  0  0  0  0  0  0  0  0  0  0  0
   -5.7927   -0.4882   -0.9243 C   0  0  0  0  0  0  0  0  0  0  0  0
   -7.2457   -2.9868   -1.0823 H   0  0  0  0  0  0  0  0  0  0  0  0
   -6.8669   -3.1858    0.7151 H   0  0  0  0  0  0  0  0  0  0  0  0
   -7.8796   -1.8381    0.1700 H   0  0  0  0  0  0  0  0  0  0  0  0
   -4.3520   -2.6341    0.9863 H   0  0  0  0  0  0  0  0  0  0  0  0
   -1.6245   -1.5262   -1.2795 H   0  0  0  0  0  0  0  0  0  0  0  0
    0.7334   -1.1029   -0.6659 H   0  0  0  0  0  0  0  0  0  0  0  0
   -0.1254    2.2720    2.8330 H   0  0  0  0  0  0  0  0  0  0  0  0
   -0.7475    0.9676    3.9571 H   0  0  0  0  0  0  0  0  0  0  0  0
    1.9438    1.4624    3.3910 H   0  0  0  0  0  0  0  0  0  0  0  0
    1.3355   -0.2602    3.6938 H   0  0  0  0  0  0  0  0  0  0  0  0
    2.4465    0.5339   -1.0245 H   0  0  0  0  0  0  0  0  0  0  0  0
    3.0113   -1.0936   -0.3985 H   0  0  0  0  0  0  0  0  0  0  0  0
    4.0565    2.2137   -1.3849 H   0  0  0  0  0  0  0  0  0  0  0  0
    6.4441    2.6710   -1.9999 H   0  0  0  0  0  0  0  0  0  0  0  0
    8.1421    0.9655   -1.5686 H   0  0  0  0  0  0  0  0  0  0  0  0
   -2.8037    2.6042   -0.6164 H   0  0  0  0  0  0  0  0  0  0  0  0
   -2.1589    1.4433   -1.8099 H   0  0  0  0  0  0  0  0  0  0  0  0
   -7.1621    1.8073   -2.9059 H   0  0  0  0  0  0  0  0  0  0  0  0
  1  2  1  0
  2  3  1  0
  3  4  2  0
  4  5  1  0
  5  6  2  0
  6  7  1  0
  7  8  2  0
  8  9  1  0
  9 10  2  0
 10 11  1  0
  9 12  1  0
 12 13  1  0
 13 14  1  0
 14 15  1  0
 15 16  2  0
 15 17  1  0
 17 18  1  0
 18 19  2  0
 19 20  1  0
 20 21  2  0
 21 22  1  0
 22 23  1  0
 23 24  1  0
 23 25  1  0
 23 26  1  0
 22 27  2  0
  4 28  1  0
 28 29  2  0
 29 30  1  0
 29 31  1  0
 31 32  2  0
 32 33  1  0
 33 34  2  0
 34  2  1  0
 10  5  1  0
 27 18  1  0
 34 28  1  0
 14  8  1  0
  1 35  1  0
  1 36  1  0
  1 37  1  0
  3 38  1  0
  6 39  1  0
  7 40  1  0
 12 41  1  0
 12 42  1  0
 13 43  1  0
 13 44  1  0
 17 45  1  0
 17 46  1  0
 19 47  1  0
 20 48  1  0
 21 49  1  0
 30 50  1  0
 30 51  1  0
 32 52  1  0
M  END
$$$$
