@<TRIPOS>MOLECULE
*****
 46 47 0 0 0
SMALL
GASTEIGER

@<TRIPOS>ATOM
      1 C          -5.1001    0.1054    0.9432 C.3     1  UNL1       -0.0122
      2 N          -4.2045   -0.2012   -0.0956 N.3     1  UNL1       -0.2968
      3 C          -4.7797   -1.1998   -0.9718 C.3     1  UNL1       -0.0122
      4 C          -2.8658   -0.5336    0.1908 C.3     1  UNL1        0.0739
      5 C          -2.7181   -1.7228    1.1564 C.3     1  UNL1       -0.0398
      6 C          -2.2949   -1.0874   -1.1376 C.3     1  UNL1       -0.0398
      7 C          -1.9677    0.5383    0.6335 C.ar    1  UNL1        0.1307
      8 N          -0.7140    0.5691    0.1461 N.ar    1  UNL1       -0.2235
      9 C           0.2139    1.4730    0.4554 C.ar    1  UNL1        0.1740
     10 C           1.5626    1.4813   -0.0870 C.2     1  UNL1        0.2665
     11 O           2.3693    2.3752    0.2717 O.2     1  UNL1       -0.2684
     12 N           1.9914    0.4969   -1.0180 N.am    1  UNL1       -0.3059
     13 C           3.2975    0.4303   -1.5973 C.3     1  UNL1        0.0372
     14 C           4.3433   -0.1197   -0.7012 C.ar    1  UNL1       -0.0301
     15 C           4.5192   -1.4981   -0.7038 C.ar    1  UNL1       -0.0544
     16 C           5.4653   -2.0709    0.0902 C.ar    1  UNL1       -0.0261
     17 C           6.2673   -1.3099    0.9104 C.ar    1  UNL1        0.1234
     18 F           7.1980   -1.9236    1.6854 F       1  UNL1       -0.2055
     19 C           6.0780    0.0462    0.8981 C.ar    1  UNL1       -0.0261
     20 C           5.1273    0.6712    0.1058 C.ar    1  UNL1       -0.0544
     21 C          -0.1663    2.4490    1.3524 C.ar    1  UNL1        0.2128
     22 O           0.7422    3.4301    1.7288 O.3     1  UNL1       -0.5006
     23 C          -1.4423    2.4301    1.8580 C.ar    1  UNL1        0.2940
     24 O          -1.8121    3.3157    2.6820 O.2     1  UNL1       -0.2638
     25 N          -2.3303    1.4878    1.5032 N.ar    1  UNL1       -0.3063
     26 H          -5.4423    1.1731    0.9734 H       1  UNL1        0.0391
     27 H          -4.8318   -0.2863    1.9588 H       1  UNL1        0.0391
     28 H          -6.0778   -0.4395    0.7383 H       1  UNL1        0.0391
     29 H          -4.1856   -2.1152   -1.0671 H       1  UNL1        0.0391
     30 H          -5.8031   -1.4991   -0.6375 H       1  UNL1        0.0391
     31 H          -4.9179   -0.7831   -1.9908 H       1  UNL1        0.0391
     32 H          -2.9772   -2.6780    0.6477 H       1  UNL1        0.0252
     33 H          -3.2665   -1.5604    2.0817 H       1  UNL1        0.0252
     34 H          -1.6218   -1.7918    1.4093 H       1  UNL1        0.0252
     35 H          -2.8827   -0.7785   -1.9983 H       1  UNL1        0.0252
     36 H          -1.2614   -0.6600   -1.3030 H       1  UNL1        0.0252
     37 H          -2.1560   -2.1670   -1.1159 H       1  UNL1        0.0252
     38 H           1.2390   -0.2184   -1.2650 H       1  UNL1        0.1494
     39 H           3.6617    1.4054   -1.9794 H       1  UNL1        0.0512
     40 H           3.2282   -0.2317   -2.5044 H       1  UNL1        0.0512
     41 H           3.8709   -2.0938   -1.3655 H       1  UNL1        0.0622
     42 H           5.5726   -3.1659    0.0583 H       1  UNL1        0.0646
     43 H           6.7002    0.6568    1.5371 H       1  UNL1        0.0646
     44 H           5.0015    1.7288    0.1111 H       1  UNL1        0.0622
     45 H           0.6765    4.3606    1.3035 H       1  UNL1        0.2924
     46 H          -3.3057    1.5117    1.9215 H       1  UNL1        0.1702
@<TRIPOS>BOND
     1     1     2    1
     2     2     3    1
     3     2     4    1
     4     4     5    1
     5     4     6    1
     6     4     7    1
     7     7     8   ar
     8     8     9   ar
     9     9    10    1
    10    10    11    2
    11    10    12   am
    12    12    13    1
    13    13    14    1
    14    14    15   ar
    15    15    16   ar
    16    16    17   ar
    17    17    18    1
    18    17    19   ar
    19    19    20   ar
    20     9    21   ar
    21    21    22    1
    22    21    23   ar
    23    23    24    2
    24    23    25   ar
    25    25     7   ar
    26    20    14   ar
    27     1    26    1
    28     1    27    1
    29     1    28    1
    30     3    29    1
    31     3    30    1
    32     3    31    1
    33     5    32    1
    34     5    33    1
    35     5    34    1
    36     6    35    1
    37     6    36    1
    38     6    37    1
    39    12    38    1
    40    13    39    1
    41    13    40    1
    42    15    41    1
    43    16    42    1
    44    19    43    1
    45    20    44    1
    46    22    45    1
    47    25    46    1
