
     RDKit          3D

 31 33  0  0  0  0  0  0  0  0999 V2000
   -1.8410   -3.0496    0.1634 O   0  0  0  0  0  0  0  0  0  0  0  0
   -1.4460   -1.8686    0.1390 C   0  0  0  0  0  0  0  0  0  0  0  0
   -0.0861   -1.5279    0.0842 C   0  0  0  0  0  0  0  0  0  0  0  0
    0.3402   -0.2411    0.0578 C   0  0  0  0  0  0  0  0  0  0  0  0
    1.7651    0.0839    0.0007 C   0  0  0  0  0  0  0  0  0  0  0  0
    2.1745    1.4207   -0.0255 C   0  0  0  0  0  0  0  0  0  0  0  0
    3.5047    1.7676   -0.0792 C   0  0  0  0  0  0  0  0  0  0  0  0
    4.4825    0.7957   -0.1091 C   0  0  0  0  0  0  0  0  0  0  0  0
    5.8176    1.1755   -0.1632 O   0  0  0  0  0  0  0  0  0  0  0  0
    4.1207   -0.5105   -0.0850 C   0  0  0  0  0  0  0  0  0  0  0  0
    5.1107   -1.4823   -0.1153 O   0  0  0  0  0  0  0  0  0  0  0  0
    2.7698   -0.8492   -0.0306 C   0  0  0  0  0  0  0  0  0  0  0  0
   -0.5633    0.7100    0.0851 O   0  0  0  0  0  0  0  0  0  0  0  0
   -1.8533    0.4796    0.1363 C   0  0  0  0  0  0  0  0  0  0  0  0
   -2.7642    1.5389    0.1630 C   0  0  0  0  0  0  0  0  0  0  0  0
   -4.1168    1.2782    0.2169 C   0  0  0  0  0  0  0  0  0  0  0  0
   -5.0522    2.3006    0.2448 O   0  0  0  0  0  0  0  0  0  0  0  0
   -4.6149   -0.0275    0.2461 C   0  0  0  0  0  0  0  0  0  0  0  0
   -3.6807   -1.0692    0.2184 C   0  0  0  0  0  0  0  0  0  0  0  0
   -4.1124   -2.3809    0.2452 O   0  0  0  0  0  0  0  0  0  0  0  0
   -2.3276   -0.8132    0.1646 C   0  0  0  0  0  0  0  0  0  0  0  0
    0.5841   -2.3610    0.0650 H   0  0  0  0  0  0  0  0  0  0  0  0
    1.4128    2.1860   -0.0022 H   0  0  0  0  0  0  0  0  0  0  0  0
    3.8296    2.7996   -0.0997 H   0  0  0  0  0  0  0  0  0  0  0  0
    6.3011    1.4795   -0.9747 H   0  0  0  0  0  0  0  0  0  0  0  0
    5.0136   -2.3120   -0.7198 H   0  0  0  0  0  0  0  0  0  0  0  0
    2.5179   -1.9017   -0.0127 H   0  0  0  0  0  0  0  0  0  0  0  0
   -2.4187    2.5608    0.1418 H   0  0  0  0  0  0  0  0  0  0  0  0
   -5.1086    3.0220   -0.4603 H   0  0  0  0  0  0  0  0  0  0  0  0
   -5.6744   -0.2407    0.2884 H   0  0  0  0  0  0  0  0  0  0  0  0
   -4.0844   -2.9631   -0.5634 H   0  0  0  0  0  0  0  0  0  0  0  0
  1  2  2  0
  2  3  1  0
  3  4  2  0
  4  5  1  0
  5  6  2  0
  6  7  1  0
  7  8  2  0
  8  9  1  0
  8 10  1  0
 10 11  1  0
 10 12  2  0
  4 13  1  0
 13 14  1  0
 14 15  2  0
 15 16  1  0
 16 17  1  0
 16 18  2  0
 18 19  1  0
 19 20  1  0
 19 21  2  0
 21  2  1  0
 12  5  1  0
 21 14  1  0
  3 22  1  0
  6 23  1  0
  7 24  1  0
  9 25  1  0
 11 26  1  0
 12 27  1  0
 15 28  1  0
 17 29  1  0
 18 30  1  0
 20 31  1  0
M  END
$$$$
