@<TRIPOS>MOLECULE
*****
 31 33 0 0 0
SMALL
GASTEIGER

@<TRIPOS>ATOM
      1 O          -1.8410   -3.0496    0.1634 O.2     1  UNL1       -0.2869
      2 C          -1.4460   -1.8686    0.1390 C.ar    1  UNL1        0.1966
      3 C          -0.0861   -1.5279    0.0842 C.ar    1  UNL1        0.0288
      4 C           0.3402   -0.2411    0.0578 C.ar    1  UNL1        0.1393
      5 C           1.7651    0.0839    0.0007 C.ar    1  UNL1        0.0211
      6 C           2.1745    1.4207   -0.0255 C.ar    1  UNL1       -0.0474
      7 C           3.5047    1.7676   -0.0792 C.ar    1  UNL1       -0.0159
      8 C           4.4825    0.7957   -0.1091 C.ar    1  UNL1        0.1583
      9 O           5.8176    1.1755   -0.1632 O.3     1  UNL1       -0.5033
     10 C           4.1207   -0.5105   -0.0850 C.ar    1  UNL1        0.1589
     11 O           5.1107   -1.4823   -0.1153 O.3     1  UNL1       -0.5033
     12 C           2.7698   -0.8492   -0.0306 C.ar    1  UNL1       -0.0059
     13 O          -0.5633    0.7100    0.0851 O.2     1  UNL1       -0.4544
     14 C          -1.8533    0.4796    0.1363 C.ar    1  UNL1        0.1462
     15 C          -2.7642    1.5389    0.1630 C.ar    1  UNL1        0.0231
     16 C          -4.1168    1.2782    0.2169 C.ar    1  UNL1        0.1239
     17 O          -5.0522    2.3006    0.2448 O.3     1  UNL1       -0.5065
     18 C          -4.6149   -0.0275    0.2461 C.ar    1  UNL1        0.0223
     19 C          -3.6807   -1.0692    0.2184 C.ar    1  UNL1        0.1347
     20 O          -4.1124   -2.3809    0.2452 O.3     1  UNL1       -0.5058
     21 C          -2.3276   -0.8132    0.1646 C.ar    1  UNL1        0.1055
     22 H           0.5841   -2.3610    0.0650 H       1  UNL1        0.0693
     23 H           1.4128    2.1860   -0.0022 H       1  UNL1        0.0626
     24 H           3.8296    2.7996   -0.0997 H       1  UNL1        0.0655
     25 H           6.3011    1.4795   -0.9747 H       1  UNL1        0.2923
     26 H           5.0136   -2.3120   -0.7198 H       1  UNL1        0.2923
     27 H           2.5179   -1.9017   -0.0127 H       1  UNL1        0.0662
     28 H          -2.4187    2.5608    0.1418 H       1  UNL1        0.0691
     29 H          -5.1086    3.0220   -0.4603 H       1  UNL1        0.2921
     30 H          -5.6744   -0.2407    0.2884 H       1  UNL1        0.0691
     31 H          -4.0844   -2.9631   -0.5634 H       1  UNL1        0.2922
@<TRIPOS>BOND
     1     1     2    2
     2     2     3   ar
     3     3     4   ar
     4     4     5    1
     5     5     6   ar
     6     6     7   ar
     7     7     8   ar
     8     8     9    1
     9     8    10   ar
    10    10    11    1
    11    10    12   ar
    12     4    13   ar
    13    13    14   ar
    14    14    15   ar
    15    15    16   ar
    16    16    17    1
    17    16    18   ar
    18    18    19   ar
    19    19    20    1
    20    19    21   ar
    21    21     2   ar
    22    12     5   ar
    23    21    14   ar
    24     3    22    1
    25     6    23    1
    26     7    24    1
    27     9    25    1
    28    11    26    1
    29    12    27    1
    30    15    28    1
    31    17    29    1
    32    18    30    1
    33    20    31    1
