@<TRIPOS>MOLECULE
*****
 52 55 0 0 0
SMALL
GASTEIGER

@<TRIPOS>ATOM
      1 C          -6.6405    2.9052   -0.6160 C.3     1  UNL1       -0.0307
      2 C          -6.2064    2.5862    0.7920 C.3     1  UNL1        0.0870
      3 O          -5.4102    1.4596    0.8944 O.3     1  UNL1       -0.4885
      4 C          -4.1804    1.3164    0.3218 C.ar    1  UNL1        0.1639
      5 C          -3.4833    0.0897    0.4837 C.ar    1  UNL1        0.1627
      6 O          -4.1736   -0.8028    1.2178 O.3     1  UNL1       -0.4886
      7 C          -3.8358   -2.0954    1.5536 C.3     1  UNL1        0.0870
      8 C          -3.7154   -3.0859    0.4273 C.3     1  UNL1       -0.0307
      9 C          -2.2177   -0.1203   -0.0813 C.ar    1  UNL1       -0.0038
     10 C          -1.6777    0.9045   -0.7979 C.ar    1  UNL1        0.0441
     11 C          -0.4420    0.6591   -1.3452 C.ar    1  UNL1        0.1340
     12 N           0.3906   -0.4835   -1.2723 N.pl3   1  UNL1       -0.2988
     13 C           1.5581   -0.2099   -0.4706 C.ar    1  UNL1        0.0330
     14 C           1.5863    0.8128    0.4459 C.ar    1  UNL1       -0.0405
     15 C           2.7446    1.0870    1.1931 C.ar    1  UNL1       -0.0594
     16 C           3.8556    0.2932    0.9740 C.ar    1  UNL1       -0.0524
     17 C           3.8775   -0.7575    0.0544 C.ar    1  UNL1        0.0026
     18 C           2.7128   -0.9664   -0.6351 C.ar    1  UNL1       -0.0313
     19 C           5.0819   -1.5436   -0.1608 C.ar    1  UNL1        0.0786
     20 C           5.0901   -2.6047   -1.1122 C.ar    1  UNL1        0.0034
     21 S           6.8757   -3.2312   -0.9757 S.2     1  UNL1       -0.0777
     22 C           7.2364   -1.9704    0.3018 C.ar    1  UNL1        0.1043
     23 C           8.6336   -1.8969    0.9075 C.3     1  UNL1        0.0925
     24 O           9.4076   -0.9877    0.1987 O.3     1  UNL1       -0.3884
     25 N           6.2287   -1.3832    0.4345 N.ar    1  UNL1       -0.2417
     26 N           0.0997    1.6647   -2.0637 N.ar    1  UNL1       -0.2200
     27 C          -0.4717    2.8547   -2.2746 C.ar    1  UNL1        0.1187
     28 N          -1.6700    3.0493   -1.7252 N.ar    1  UNL1       -0.2352
     29 C          -2.2746    2.1202   -1.0063 C.ar    1  UNL1        0.0797
     30 C          -3.5092    2.2722   -0.4320 C.ar    1  UNL1        0.0098
     31 H          -6.0794    3.6861   -1.1272 H       1  UNL1        0.0262
     32 H          -6.7411    1.9516   -1.1786 H       1  UNL1        0.0262
     33 H          -7.7077    3.3085   -0.5949 H       1  UNL1        0.0262
     34 H          -7.1615    2.4835    1.3940 H       1  UNL1        0.0694
     35 H          -5.6780    3.5143    1.1609 H       1  UNL1        0.0694
     36 H          -4.5769   -2.5418    2.2832 H       1  UNL1        0.0694
     37 H          -2.8667   -2.1573    2.1164 H       1  UNL1        0.0694
     38 H          -3.2902   -4.0172    0.9012 H       1  UNL1        0.0262
     39 H          -3.0027   -2.7856   -0.3336 H       1  UNL1        0.0262
     40 H          -4.7145   -3.3209   -0.0225 H       1  UNL1        0.0262
     41 H          -1.6845   -1.0204    0.0514 H       1  UNL1        0.0663
     42 H           0.1364   -1.3485   -1.7431 H       1  UNL1        0.1536
     43 H           0.6896    1.4296    0.6026 H       1  UNL1        0.0636
     44 H           2.7631    1.8895    1.9095 H       1  UNL1        0.0618
     45 H           4.7864    0.4384    1.5083 H       1  UNL1        0.0624
     46 H           2.6419   -1.7706   -1.3742 H       1  UNL1        0.0643
     47 H           4.2038   -2.9889   -1.8072 H       1  UNL1        0.0715
     48 H           8.4307   -1.5474    1.9469 H       1  UNL1        0.0628
     49 H           9.0887   -2.9203    0.8932 H       1  UNL1        0.0628
     50 H           9.2219   -1.0788   -0.7632 H       1  UNL1        0.2099
     51 H           0.0089    3.6185   -2.8624 H       1  UNL1        0.1048
     52 H          -3.9391    3.2426   -0.5969 H       1  UNL1        0.0677
@<TRIPOS>BOND
     1     1     2    1
     2     2     3    1
     3     3     4    1
     4     4     5   ar
     5     5     6    1
     6     6     7    1
     7     7     8    1
     8     5     9   ar
     9     9    10   ar
    10    10    11   ar
    11    11    12    1
    12    12    13    1
    13    13    14   ar
    14    14    15   ar
    15    15    16   ar
    16    16    17   ar
    17    17    18   ar
    18    17    19    1
    19    19    20   ar
    20    20    21   ar
    21    21    22   ar
    22    22    23    1
    23    23    24    1
    24    22    25   ar
    25    11    26   ar
    26    26    27   ar
    27    27    28   ar
    28    28    29   ar
    29    29    30   ar
    30    30     4   ar
    31    29    10   ar
    32    18    13   ar
    33    25    19   ar
    34     1    31    1
    35     1    32    1
    36     1    33    1
    37     2    34    1
    38     2    35    1
    39     7    36    1
    40     7    37    1
    41     8    38    1
    42     8    39    1
    43     8    40    1
    44     9    41    1
    45    12    42    1
    46    14    43    1
    47    15    44    1
    48    16    45    1
    49    18    46    1
    50    20    47    1
    51    23    48    1
    52    23    49    1
    53    24    50    1
    54    27    51    1
    55    30    52    1
