@<TRIPOS>MOLECULE
*****
 51 55 0 0 0
SMALL
GASTEIGER

@<TRIPOS>ATOM
      1 C           3.1202   -0.8573   -2.7550 C.3     1  UNL1       -0.0274
      2 C           2.6641    0.0369   -1.6428 C.3     1  UNL1        0.1037
      3 O           2.3228   -0.7467   -0.5344 O.3     1  UNL1       -0.4725
      4 C           1.0557   -0.8237    0.0063 C.ar    1  UNL1        0.2265
      5 N          -0.0061   -0.1568   -0.4637 N.ar    1  UNL1       -0.2122
      6 C          -1.2427   -0.2484    0.0848 C.ar    1  UNL1        0.0770
      7 C          -2.3503    0.5074   -0.4815 C.ar    1  UNL1        0.0026
      8 C          -2.1638    1.3334   -1.5892 C.ar    1  UNL1       -0.0518
      9 C          -3.1714    2.0686   -2.1644 C.ar    1  UNL1       -0.0504
     10 C          -4.4326    1.9813   -1.6127 C.ar    1  UNL1        0.0197
     11 C          -5.6465    2.5661   -1.9259 C.ar    1  UNL1        0.0571
     12 N          -6.5382    2.1200   -1.0507 N.ar    1  UNL1       -0.1788
     13 N          -5.9863    1.2817   -0.1859 N.ar    1  UNL1       -0.2667
     14 C          -6.6169    0.5816    0.9184 C.3     1  UNL1        0.0309
     15 C          -4.6798    1.1835   -0.5193 C.ar    1  UNL1        0.0692
     16 C          -3.6216    0.4522    0.0332 C.ar    1  UNL1       -0.0269
     17 C          -1.4178   -1.0624    1.1734 C.ar    1  UNL1       -0.0077
     18 C          -0.3540   -1.7821    1.7094 C.ar    1  UNL1        0.0999
     19 N          -0.1959   -2.6360    2.7318 N.ar    1  UNL1       -0.1712
     20 N           1.0437   -3.0456    2.8148 N.ar    1  UNL1       -0.2732
     21 C           1.5849   -3.9817    3.8068 C.3     1  UNL1        0.0302
     22 C           1.7312   -2.4516    1.8245 C.ar    1  UNL1        0.0380
     23 C           0.8745   -1.6442    1.1053 C.ar    1  UNL1        0.0812
     24 C           3.6957    1.0794   -1.2760 C.3     1  UNL1        0.0196
     25 C           3.1819    1.9365   -0.1644 C.3     1  UNL1        0.0182
     26 N           4.2833    2.0697    0.7810 N.am    1  UNL1       -0.3149
     27 C           5.1109    0.9247    0.6325 C.2     1  UNL1        0.2135
     28 O           5.8072    0.4159    1.5483 O.2     1  UNL1       -0.2758
     29 C           4.9718    0.4894   -0.7796 C.3     1  UNL1        0.0315
     30 H           2.3801   -1.7020   -2.8124 H       1  UNL1        0.0265
     31 H           3.0760   -0.3523   -3.7456 H       1  UNL1        0.0265
     32 H           4.0995   -1.3221   -2.5631 H       1  UNL1        0.0265
     33 H           1.7541    0.5666   -1.9925 H       1  UNL1        0.0734
     34 H          -1.1665    1.3777   -1.9943 H       1  UNL1        0.0624
     35 H          -3.0040    2.7059   -3.0274 H       1  UNL1        0.0625
     36 H          -5.7476    3.2532   -2.7577 H       1  UNL1        0.0854
     37 H          -6.8630   -0.4576    0.6315 H       1  UNL1        0.0473
     38 H          -5.9613    0.5556    1.7945 H       1  UNL1        0.0473
     39 H          -7.5710    1.0932    1.1276 H       1  UNL1        0.0473
     40 H          -3.8679   -0.1534    0.8838 H       1  UNL1        0.0645
     41 H          -2.3646   -1.1945    1.6715 H       1  UNL1        0.0661
     42 H           1.4358   -3.5389    4.8063 H       1  UNL1        0.0473
     43 H           1.0136   -4.9429    3.6923 H       1  UNL1        0.0473
     44 H           2.6505   -4.1324    3.5988 H       1  UNL1        0.0473
     45 H           2.7878   -2.5876    1.6262 H       1  UNL1        0.0834
     46 H           3.9139    1.7061   -2.1624 H       1  UNL1        0.0356
     47 H           2.8211    2.9273   -0.5088 H       1  UNL1        0.0466
     48 H           2.3419    1.4568    0.3976 H       1  UNL1        0.0466
     49 H           4.3991    2.8796    1.4294 H       1  UNL1        0.1487
     50 H           4.9869   -0.6178   -0.7830 H       1  UNL1        0.0363
     51 H           5.8614    0.8877   -1.3375 H       1  UNL1        0.0363
@<TRIPOS>BOND
     1     1     2    1
     2     2     3    1
     3     3     4    1
     4     4     5   ar
     5     5     6   ar
     6     6     7    1
     7     7     8   ar
     8     8     9   ar
     9     9    10   ar
    10    10    11   ar
    11    11    12   ar
    12    12    13   ar
    13    13    14    1
    14    13    15   ar
    15    15    16   ar
    16     6    17   ar
    17    17    18   ar
    18    18    19   ar
    19    19    20   ar
    20    20    21    1
    21    20    22   ar
    22    22    23   ar
    23     2    24    1
    24    24    25    1
    25    25    26    1
    26    26    27   am
    27    27    28    2
    28    27    29    1
    29    23     4   ar
    30    29    24    1
    31    16     7   ar
    32    23    18   ar
    33    15    10   ar
    34     1    30    1
    35     1    31    1
    36     1    32    1
    37     2    33    1
    38     8    34    1
    39     9    35    1
    40    11    36    1
    41    14    37    1
    42    14    38    1
    43    14    39    1
    44    16    40    1
    45    17    41    1
    46    21    42    1
    47    21    43    1
    48    21    44    1
    49    22    45    1
    50    24    46    1
    51    25    47    1
    52    25    48    1
    53    26    49    1
    54    29    50    1
    55    29    51    1
