
     RDKit          3D

 42 44  0  0  0  0  0  0  0  0999 V2000
   -1.8898   -0.5386   -0.7812 C   0  0  2  0  0  0  0  0  0  0  0  0
   -2.7648    0.6216   -1.2691 C   0  0  0  0  0  0  0  0  0  0  0  0
   -4.1297    0.5328   -0.6762 C   0  0  0  0  0  0  0  0  0  0  0  0
   -5.0525   -0.1965   -1.4142 C   0  0  0  0  0  0  0  0  0  0  0  0
   -6.3313   -0.2969   -0.8878 C   0  0  0  0  0  0  0  0  0  0  0  0
   -6.6885    0.2829    0.2938 C   0  0  0  0  0  0  0  0  0  0  0  0
   -5.7729    1.0113    1.0343 C   0  0  0  0  0  0  0  0  0  0  0  0
   -4.4975    1.1171    0.5188 C   0  0  0  0  0  0  0  0  0  0  0  0
   -0.6028   -0.4992   -1.3089 O   0  0  0  0  0  0  0  0  0  0  0  0
    0.5810   -0.3348   -0.6486 C   0  0  0  0  0  0  0  0  0  0  0  0
    0.8371   -0.1646    0.7019 C   0  0  0  0  0  0  0  0  0  0  0  0
    2.1331   -0.0149    1.1501 C   0  0  0  0  0  0  0  0  0  0  0  0
    3.1990   -0.0278    0.2976 C   0  0  0  0  0  0  0  0  0  0  0  0
    2.9849   -0.1972   -1.0746 C   0  0  0  0  0  0  0  0  0  0  0  0
    1.6883   -0.3437   -1.4935 C   0  0  0  0  0  0  0  0  0  0  0  0
    4.5482    0.1354    0.8302 C   0  0  0  0  0  0  0  0  0  0  0  0
    5.4865    0.7544    0.0322 C   0  0  0  0  0  0  0  0  0  0  0  0
    6.7718    0.9379    0.4743 C   0  0  0  0  0  0  0  0  0  0  0  0
    7.1422    0.5054    1.7229 C   0  0  0  0  0  0  0  0  0  0  0  0
    6.1964   -0.1144    2.5175 C   0  0  0  0  0  0  0  0  0  0  0  0
    4.9013   -0.3073    2.0908 C   0  0  0  0  0  0  0  0  0  0  0  0
   -2.5565   -1.8515   -0.9955 C   0  0  0  0  0  0  0  0  0  0  0  0
   -3.3737   -2.9627   -1.0705 O   0  0  0  0  0  0  0  0  0  0  0  0
   -1.6003   -2.3623   -1.5914 O   0  0  0  0  0  0  0  0  0  0  0  0
   -1.8210   -0.4132    0.3189 H   0  0  0  0  0  0  0  0  0  0  0  0
   -2.3024    1.5301   -0.8141 H   0  0  0  0  0  0  0  0  0  0  0  0
   -2.8193    0.6881   -2.3569 H   0  0  0  0  0  0  0  0  0  0  0  0
   -4.8079   -0.6718   -2.3567 H   0  0  0  0  0  0  0  0  0  0  0  0
   -7.0517   -0.8686   -1.4681 H   0  0  0  0  0  0  0  0  0  0  0  0
   -7.7043    0.1702    0.6560 H   0  0  0  0  0  0  0  0  0  0  0  0
   -6.0600    1.4659    1.9648 H   0  0  0  0  0  0  0  0  0  0  0  0
   -3.7255    1.6796    1.0551 H   0  0  0  0  0  0  0  0  0  0  0  0
   -0.0588   -0.1658    1.3076 H   0  0  0  0  0  0  0  0  0  0  0  0
    2.2049    0.1099    2.2190 H   0  0  0  0  0  0  0  0  0  0  0  0
    3.8423   -0.2011   -1.7029 H   0  0  0  0  0  0  0  0  0  0  0  0
    1.6266   -0.4704   -2.5860 H   0  0  0  0  0  0  0  0  0  0  0  0
    5.2471    1.1146   -0.9615 H   0  0  0  0  0  0  0  0  0  0  0  0
    7.5045    1.4325   -0.1751 H   0  0  0  0  0  0  0  0  0  0  0  0
    8.1539    0.6677    2.0299 H   0  0  0  0  0  0  0  0  0  0  0  0
    6.4862   -0.4617    3.5146 H   0  0  0  0  0  0  0  0  0  0  0  0
    4.1702   -0.7873    2.7072 H   0  0  0  0  0  0  0  0  0  0  0  0
   -4.0943   -3.0544   -1.8048 H   0  0  0  0  0  0  0  0  0  0  0  0
  1  2  1  0
  2  3  1  0
  3  4  2  0
  4  5  1  0
  5  6  2  0
  6  7  1  0
  7  8  2  0
  1  9  1  0
  9 10  1  0
 10 11  2  0
 11 12  1  0
 12 13  2  0
 13 14  1  0
 14 15  2  0
 13 16  1  0
 16 17  2  0
 17 18  1  0
 18 19  2  0
 19 20  1  0
 20 21  2  0
  1 22  1  0
 22 23  1  0
 22 24  2  0
  8  3  1  0
 15 10  1  0
 21 16  1  0
  1 25  1  1
  2 26  1  0
  2 27  1  0
  4 28  1  0
  5 29  1  0
  6 30  1  0
  7 31  1  0
  8 32  1  0
 11 33  1  0
 12 34  1  0
 14 35  1  0
 15 36  1  0
 17 37  1  0
 18 38  1  0
 19 39  1  0
 20 40  1  0
 21 41  1  0
 23 42  1  0
M  END
$$$$
