@<TRIPOS>MOLECULE
*****
 42 44 0 0 0
SMALL
GASTEIGER

@<TRIPOS>ATOM
      1 C          -1.8898   -0.5386   -0.7812 C.3     1  UNL1        0.1997
      2 C          -2.7648    0.6216   -1.2691 C.3     1  UNL1        0.0201
      3 C          -4.1297    0.5328   -0.6762 C.ar    1  UNL1       -0.0433
      4 C          -5.0525   -0.1965   -1.4142 C.ar    1  UNL1       -0.0584
      5 C          -6.3313   -0.2969   -0.8878 C.ar    1  UNL1       -0.0615
      6 C          -6.6885    0.2829    0.2938 C.ar    1  UNL1       -0.0617
      7 C          -5.7729    1.0113    1.0343 C.ar    1  UNL1       -0.0615
      8 C          -4.4975    1.1171    0.5188 C.ar    1  UNL1       -0.0584
      9 O          -0.6028   -0.4992   -1.3089 O.3     1  UNL1       -0.4773
     10 C           0.5810   -0.3348   -0.6486 C.ar    1  UNL1        0.1218
     11 C           0.8371   -0.1646    0.7019 C.ar    1  UNL1       -0.0193
     12 C           2.1331   -0.0149    1.1501 C.ar    1  UNL1       -0.0506
     13 C           3.1990   -0.0278    0.2976 C.ar    1  UNL1       -0.0177
     14 C           2.9849   -0.1972   -1.0746 C.ar    1  UNL1       -0.0506
     15 C           1.6883   -0.3437   -1.4935 C.ar    1  UNL1       -0.0193
     16 C           4.5482    0.1354    0.8302 C.ar    1  UNL1       -0.0179
     17 C           5.4865    0.7544    0.0322 C.ar    1  UNL1       -0.0540
     18 C           6.7718    0.9379    0.4743 C.ar    1  UNL1       -0.0612
     19 C           7.1422    0.5054    1.7229 C.ar    1  UNL1       -0.0617
     20 C           6.1964   -0.1144    2.5175 C.ar    1  UNL1       -0.0612
     21 C           4.9013   -0.3073    2.0908 C.ar    1  UNL1       -0.0540
     22 C          -2.5565   -1.8515   -0.9955 C.2     1  UNL1        0.3462
     23 O          -3.3737   -2.9627   -1.0705 O.3     1  UNL1       -0.4780
     24 O          -1.6003   -2.3623   -1.5914 O.2     1  UNL1       -0.2468
     25 H          -1.8210   -0.4132    0.3189 H       1  UNL1        0.0855
     26 H          -2.3024    1.5301   -0.8141 H       1  UNL1        0.0355
     27 H          -2.8193    0.6881   -2.3569 H       1  UNL1        0.0355
     28 H          -4.8079   -0.6718   -2.3567 H       1  UNL1        0.0620
     29 H          -7.0517   -0.8686   -1.4681 H       1  UNL1        0.0618
     30 H          -7.7043    0.1702    0.6560 H       1  UNL1        0.0618
     31 H          -6.0600    1.4659    1.9648 H       1  UNL1        0.0618
     32 H          -3.7255    1.6796    1.0551 H       1  UNL1        0.0620
     33 H          -0.0588   -0.1658    1.3076 H       1  UNL1        0.0654
     34 H           2.2049    0.1099    2.2190 H       1  UNL1        0.0625
     35 H           3.8423   -0.2011   -1.7029 H       1  UNL1        0.0625
     36 H           1.6266   -0.4704   -2.5860 H       1  UNL1        0.0654
     37 H           5.2471    1.1146   -0.9615 H       1  UNL1        0.0624
     38 H           7.5045    1.4325   -0.1751 H       1  UNL1        0.0618
     39 H           8.1539    0.6677    2.0299 H       1  UNL1        0.0618
     40 H           6.4862   -0.4617    3.5146 H       1  UNL1        0.0618
     41 H           4.1702   -0.7873    2.7072 H       1  UNL1        0.0624
     42 H          -4.0943   -3.0544   -1.8048 H       1  UNL1        0.2952
@<TRIPOS>BOND
     1     1     2    1
     2     2     3    1
     3     3     4   ar
     4     4     5   ar
     5     5     6   ar
     6     6     7   ar
     7     7     8   ar
     8     1     9    1
     9     9    10    1
    10    10    11   ar
    11    11    12   ar
    12    12    13   ar
    13    13    14   ar
    14    14    15   ar
    15    13    16    1
    16    16    17   ar
    17    17    18   ar
    18    18    19   ar
    19    19    20   ar
    20    20    21   ar
    21     1    22    1
    22    22    23    1
    23    22    24    2
    24     8     3   ar
    25    15    10   ar
    26    21    16   ar
    27     1    25    1
    28     2    26    1
    29     2    27    1
    30     4    28    1
    31     5    29    1
    32     6    30    1
    33     7    31    1
    34     8    32    1
    35    11    33    1
    36    12    34    1
    37    14    35    1
    38    15    36    1
    39    17    37    1
    40    18    38    1
    41    19    39    1
    42    20    40    1
    43    21    41    1
    44    23    42    1
