
     RDKit          3D

 41 45  0  0  0  0  0  0  0  0999 V2000
    1.0546   -0.4680   -3.9637 O   0  0  0  0  0  0  0  0  0  0  0  0
    0.6388   -0.3334   -2.7931 C   0  0  0  0  0  0  0  0  0  0  0  0
   -0.6836   -0.3173   -2.5432 N   0  0  0  0  0  0  0  0  0  0  0  0
   -1.1473   -0.1724   -1.2787 C   0  0  0  0  0  0  0  0  0  0  0  0
   -2.4880   -0.1509   -0.9942 C   0  0  0  0  0  0  0  0  0  0  0  0
   -2.9870   -0.0028    0.2927 C   0  0  0  0  0  0  0  0  0  0  0  0
   -4.4159    0.0222    0.5670 C   0  0  0  0  0  0  0  0  0  0  0  0
   -5.2962    0.5442   -0.3557 C   0  0  0  0  0  0  0  0  0  0  0  0
   -6.6585    0.5964   -0.1580 C   0  0  0  0  0  0  0  0  0  0  0  0
   -7.1711    0.1049    1.0157 C   0  0  0  0  0  0  0  0  0  0  0  0
   -6.3349   -0.4193    1.9530 C   0  0  0  0  0  0  0  0  0  0  0  0
   -7.0324   -1.0444    3.4541 Cl  0  0  0  0  0  0  0  0  0  0  0  0
   -4.9683   -0.4616    1.7333 C   0  0  0  0  0  0  0  0  0  0  0  0
   -2.0506    0.1258    1.3047 C   0  0  0  0  0  0  0  0  0  0  0  0
   -0.6846    0.1073    1.0391 C   0  0  0  0  0  0  0  0  0  0  0  0
   -0.2568   -0.0421   -0.2538 C   0  0  0  0  0  0  0  0  0  0  0  0
    1.1059   -0.0562   -0.4902 C   0  0  0  0  0  0  0  0  0  0  0  0
    2.1969    0.0477    0.2760 N   0  0  0  0  0  0  0  0  0  0  0  0
    3.3304   -0.0284   -0.4790 C   0  0  0  0  0  0  0  0  0  0  0  0
    4.7017    0.0503    0.0328 C   0  0  0  0  0  0  0  0  0  0  0  0
    5.8077   -0.0304   -0.7753 C   0  0  0  0  0  0  0  0  0  0  0  0
    5.6736   -0.1946   -2.1325 F   0  0  0  0  0  0  0  0  0  0  0  0
    7.0860    0.0520   -0.2338 C   0  0  0  0  0  0  0  0  0  0  0  0
    7.2592    0.2150    1.1140 C   0  0  0  0  0  0  0  0  0  0  0  0
    6.1599    0.2994    1.9478 C   0  0  0  0  0  0  0  0  0  0  0  0
    4.9037    0.2175    1.4094 C   0  0  0  0  0  0  0  0  0  0  0  0
    3.5330    0.3264    2.4930 Cl  0  0  0  0  0  0  0  0  0  0  0  0
    2.9262   -0.1817   -1.7295 N   0  0  0  0  0  0  0  0  0  0  0  0
    1.5582   -0.2039   -1.7784 C   0  0  0  0  0  0  0  0  0  0  0  0
   -1.4064   -0.4138   -3.2956 H   0  0  0  0  0  0  0  0  0  0  0  0
   -3.2166   -0.2509   -1.7767 H   0  0  0  0  0  0  0  0  0  0  0  0
   -4.9250    0.9451   -1.3028 H   0  0  0  0  0  0  0  0  0  0  0  0
   -7.3309    1.0095   -0.8917 H   0  0  0  0  0  0  0  0  0  0  0  0
   -8.2287    0.1317    1.1997 H   0  0  0  0  0  0  0  0  0  0  0  0
   -4.3583   -0.8882    2.5114 H   0  0  0  0  0  0  0  0  0  0  0  0
   -2.3545    0.2445    2.3290 H   0  0  0  0  0  0  0  0  0  0  0  0
    0.0343    0.2082    1.8374 H   0  0  0  0  0  0  0  0  0  0  0  0
    7.9222   -0.0207   -0.9377 H   0  0  0  0  0  0  0  0  0  0  0  0
    8.2639    0.2780    1.5223 H   0  0  0  0  0  0  0  0  0  0  0  0
    6.3301    0.4305    3.0248 H   0  0  0  0  0  0  0  0  0  0  0  0
    3.5092   -0.2757   -2.5768 H   0  0  0  0  0  0  0  0  0  0  0  0
  1  2  2  0
  2  3  1  0
  3  4  1  0
  4  5  2  0
  5  6  1  0
  6  7  1  0
  7  8  2  0
  8  9  1  0
  9 10  2  0
 10 11  1  0
 11 12  1  0
 11 13  2  0
  6 14  2  0
 14 15  1  0
 15 16  2  0
 16 17  1  0
 17 18  1  0
 18 19  2  0
 19 20  1  0
 20 21  2  0
 21 22  1  0
 21 23  1  0
 23 24  2  0
 24 25  1  0
 25 26  2  0
 26 27  1  0
 19 28  1  0
 28 29  1  0
 29  2  1  0
 16  4  1  0
 29 17  2  0
 13  7  1  0
 26 20  1  0
  3 30  1  0
  5 31  1  0
  8 32  1  0
  9 33  1  0
 10 34  1  0
 13 35  1  0
 14 36  1  0
 15 37  1  0
 23 38  1  0
 24 39  1  0
 25 40  1  0
 28 41  1  0
M  END
$$$$
