@<TRIPOS>MOLECULE
*****
 41 45 0 0 0
SMALL
GASTEIGER

@<TRIPOS>ATOM
      1 O           1.0546   -0.4680   -3.9637 O.2     1  UNL1       -0.2656
      2 C           0.6388   -0.3334   -2.7931 C.ar    1  UNL1        0.2748
      3 N          -0.6836   -0.3173   -2.5432 N.ar    1  UNL1       -0.3203
      4 C          -1.1473   -0.1724   -1.2787 C.ar    1  UNL1        0.0519
      5 C          -2.4880   -0.1509   -0.9942 C.ar    1  UNL1       -0.0299
      6 C          -2.9870   -0.0028    0.2927 C.ar    1  UNL1       -0.0159
      7 C          -4.4159    0.0222    0.5670 C.ar    1  UNL1       -0.0164
      8 C          -5.2962    0.5442   -0.3557 C.ar    1  UNL1       -0.0539
      9 C          -6.6585    0.5964   -0.1580 C.ar    1  UNL1       -0.0598
     10 C          -7.1711    0.1049    1.0157 C.ar    1  UNL1       -0.0434
     11 C          -6.3349   -0.4193    1.9530 C.ar    1  UNL1        0.0416
     12 CL         -7.0324   -1.0444    3.4541 Cl      1  UNL1       -0.0835
     13 C          -4.9683   -0.4616    1.7333 C.ar    1  UNL1       -0.0357
     14 C          -2.0506    0.1258    1.3047 C.ar    1  UNL1       -0.0533
     15 C          -0.6846    0.1073    1.0391 C.ar    1  UNL1       -0.0499
     16 C          -0.2568   -0.0421   -0.2538 C.ar    1  UNL1        0.0260
     17 C           1.1059   -0.0562   -0.4902 C.ar    1  UNL1        0.1039
     18 N           2.1969    0.0477    0.2760 N.ar    1  UNL1       -0.2268
     19 C           3.3304   -0.0284   -0.4790 C.ar    1  UNL1        0.1436
     20 C           4.7017    0.0503    0.0328 C.ar    1  UNL1        0.0707
     21 C           5.8077   -0.0304   -0.7753 C.ar    1  UNL1        0.1354
     22 F           5.6736   -0.1946   -2.1325 F       1  UNL1       -0.2047
     23 C           7.0860    0.0520   -0.2338 C.ar    1  UNL1       -0.0257
     24 C           7.2592    0.2150    1.1140 C.ar    1  UNL1       -0.0576
     25 C           6.1599    0.2994    1.9478 C.ar    1  UNL1       -0.0425
     26 C           4.9037    0.2175    1.4094 C.ar    1  UNL1        0.0544
     27 CL          3.5330    0.3264    2.4930 Cl      1  UNL1       -0.0827
     28 N           2.9262   -0.1817   -1.7295 N.ar    1  UNL1       -0.3335
     29 C           1.5582   -0.2039   -1.7784 C.ar    1  UNL1        0.1322
     30 H          -1.4064   -0.4138   -3.2956 H       1  UNL1        0.1690
     31 H          -3.2166   -0.2509   -1.7767 H       1  UNL1        0.0644
     32 H          -4.9250    0.9451   -1.3028 H       1  UNL1        0.0624
     33 H          -7.3309    1.0095   -0.8917 H       1  UNL1        0.0618
     34 H          -8.2287    0.1317    1.1997 H       1  UNL1        0.0632
     35 H          -4.3583   -0.8882    2.5114 H       1  UNL1        0.0638
     36 H          -2.3545    0.2445    2.3290 H       1  UNL1        0.0624
     37 H           0.0343    0.2082    1.8374 H       1  UNL1        0.0625
     38 H           7.9222   -0.0207   -0.9377 H       1  UNL1        0.0646
     39 H           8.2639    0.2780    1.5223 H       1  UNL1        0.0619
     40 H           6.3301    0.4305    3.0248 H       1  UNL1        0.0632
     41 H           3.5092   -0.2757   -2.5768 H       1  UNL1        0.1675
@<TRIPOS>BOND
     1     1     2    2
     2     2     3   ar
     3     3     4   ar
     4     4     5   ar
     5     5     6   ar
     6     6     7    1
     7     7     8   ar
     8     8     9   ar
     9     9    10   ar
    10    10    11   ar
    11    11    12    1
    12    11    13   ar
    13     6    14   ar
    14    14    15   ar
    15    15    16   ar
    16    16    17   ar
    17    17    18   ar
    18    18    19   ar
    19    19    20    1
    20    20    21   ar
    21    21    22    1
    22    21    23   ar
    23    23    24   ar
    24    24    25   ar
    25    25    26   ar
    26    26    27    1
    27    19    28   ar
    28    28    29   ar
    29    29     2   ar
    30    16     4   ar
    31    29    17   ar
    32    13     7   ar
    33    26    20   ar
    34     3    30    1
    35     5    31    1
    36     8    32    1
    37     9    33    1
    38    10    34    1
    39    13    35    1
    40    14    36    1
    41    15    37    1
    42    23    38    1
    43    24    39    1
    44    25    40    1
    45    28    41    1
