
     RDKit          3D

 50 53  0  0  0  0  0  0  0  0999 V2000
    1.8385   -0.9126   -0.4349 C   0  0  0  0  0  0  0  0  0  0  0  0
    1.6311    0.4592   -0.0509 N   0  0  0  0  0  0  0  0  0  0  0  0
    0.4753    1.0717   -0.6279 C   0  0  2  0  0  0  0  0  0  0  0  0
   -0.3561    1.6565    0.4946 C   0  0  0  0  0  0  0  0  0  0  0  0
   -0.9559    0.4876    1.2869 C   0  0  0  0  0  0  0  0  0  0  0  0
   -1.9621   -0.1003    0.3487 C   0  0  0  0  0  0  0  0  0  0  0  0
   -3.2409   -0.5777    0.5271 C   0  0  0  0  0  0  0  0  0  0  0  0
   -3.9868   -0.6277    1.8054 C   0  0  0  0  0  0  0  0  0  0  0  0
   -4.4608    0.7265    2.1419 C   0  0  0  0  0  0  0  0  0  0  0  0
   -4.2045    1.6776    1.3785 O   0  0  0  0  0  0  0  0  0  0  0  0
   -5.1850    0.9587    3.2906 O   0  0  0  0  0  0  0  0  0  0  0  0
   -3.6729   -0.9915   -0.7091 C   0  0  0  0  0  0  0  0  0  0  0  0
   -4.8810   -1.5573   -1.1289 C   0  0  0  0  0  0  0  0  0  0  0  0
   -5.0721   -1.8912   -2.4494 C   0  0  0  0  0  0  0  0  0  0  0  0
   -4.0490   -1.6552   -3.3412 C   0  0  0  0  0  0  0  0  0  0  0  0
   -4.2234   -1.9819   -4.6573 F   0  0  0  0  0  0  0  0  0  0  0  0
   -2.8593   -1.0967   -2.9204 C   0  0  0  0  0  0  0  0  0  0  0  0
   -1.8770   -0.8812   -3.8334 F   0  0  0  0  0  0  0  0  0  0  0  0
   -2.6528   -0.7554   -1.5938 C   0  0  0  0  0  0  0  0  0  0  0  0
   -1.6107   -0.2071   -0.9216 N   0  0  0  0  0  0  0  0  0  0  0  0
   -0.3365    0.1909   -1.4964 C   0  0  0  0  0  0  0  0  0  0  0  0
    3.0327    1.3476   -0.5178 S   0  0  0  0  0  6  0  0  0  0  0  0
    2.8152    2.8104   -0.2374 O   0  0  0  0  0  0  0  0  0  0  0  0
    3.3075    1.2080   -2.0025 O   0  0  0  0  0  0  0  0  0  0  0  0
    4.4733    0.7635    0.2999 C   0  0  0  0  0  0  0  0  0  0  0  0
    4.8720    1.2761    1.5158 C   0  0  0  0  0  0  0  0  0  0  0  0
    6.0120    0.7796    2.1099 C   0  0  0  0  0  0  0  0  0  0  0  0
    6.7759   -0.2146    1.5364 C   0  0  0  0  0  0  0  0  0  0  0  0
    7.8958   -0.7171    2.0983 F   0  0  0  0  0  0  0  0  0  0  0  0
    6.3862   -0.7352    0.3190 C   0  0  0  0  0  0  0  0  0  0  0  0
    5.2469   -0.2366   -0.2713 C   0  0  0  0  0  0  0  0  0  0  0  0
    2.1731   -1.0037   -1.5068 H   0  0  0  0  0  0  0  0  0  0  0  0
    2.7449   -1.2567    0.1469 H   0  0  0  0  0  0  0  0  0  0  0  0
    1.0364   -1.5960   -0.1658 H   0  0  0  0  0  0  0  0  0  0  0  0
    0.8156    1.9566   -1.2216 H   0  0  0  0  0  0  0  0  0  0  0  0
   -1.1859    2.2290    0.0417 H   0  0  0  0  0  0  0  0  0  0  0  0
    0.2399    2.2543    1.1829 H   0  0  0  0  0  0  0  0  0  0  0  0
   -1.4014    0.8288    2.2196 H   0  0  0  0  0  0  0  0  0  0  0  0
   -0.1473   -0.2525    1.4302 H   0  0  0  0  0  0  0  0  0  0  0  0
   -4.8387   -1.3269    1.7696 H   0  0  0  0  0  0  0  0  0  0  0  0
   -3.2803   -0.9367    2.6018 H   0  0  0  0  0  0  0  0  0  0  0  0
   -5.7399    1.8100    3.4281 H   0  0  0  0  0  0  0  0  0  0  0  0
   -5.6572   -1.7256   -0.3987 H   0  0  0  0  0  0  0  0  0  0  0  0
   -6.0015   -2.3335   -2.8092 H   0  0  0  0  0  0  0  0  0  0  0  0
    0.1743   -0.7421   -1.8029 H   0  0  0  0  0  0  0  0  0  0  0  0
   -0.5438    0.7252   -2.4595 H   0  0  0  0  0  0  0  0  0  0  0  0
    4.2636    2.0563    1.9557 H   0  0  0  0  0  0  0  0  0  0  0  0
    6.3304    1.1772    3.0637 H   0  0  0  0  0  0  0  0  0  0  0  0
    6.9275   -1.5155   -0.1993 H   0  0  0  0  0  0  0  0  0  0  0  0
    4.9148   -0.6228   -1.2248 H   0  0  0  0  0  0  0  0  0  0  0  0
  1  2  1  0
  2  3  1  0
  3  4  1  0
  4  5  1  0
  5  6  1  0
  6  7  2  0
  7  8  1  0
  8  9  1  0
  9 10  2  0
  9 11  1  0
  7 12  1  0
 12 13  2  0
 13 14  1  0
 14 15  2  0
 15 16  1  0
 15 17  1  0
 17 18  1  0
 17 19  2  0
 19 20  1  0
 20 21  1  0
  2 22  1  0
 22 23  2  0
 22 24  2  0
 22 25  1  0
 25 26  2  0
 26 27  1  0
 27 28  2  0
 28 29  1  0
 28 30  1  0
 30 31  2  0
 21  3  1  0
 31 25  1  0
 20  6  1  0
 19 12  1  0
  1 32  1  0
  1 33  1  0
  1 34  1  0
  3 35  1  6
  4 36  1  0
  4 37  1  0
  5 38  1  0
  5 39  1  0
  8 40  1  0
  8 41  1  0
 11 42  1  0
 13 43  1  0
 14 44  1  0
 21 45  1  0
 21 46  1  0
 26 47  1  0
 27 48  1  0
 30 49  1  0
 31 50  1  0
M  END
$$$$
