@<TRIPOS>MOLECULE
*****
 50 53 0 0 0
SMALL
GASTEIGER

@<TRIPOS>ATOM
      1 C           1.8385   -0.9126   -0.4349 C.3     1  UNL1        0.0093
      2 N           1.6311    0.4592   -0.0509 N.3     1  UNL1       -0.1749
      3 C           0.4753    1.0717   -0.6279 C.3     1  UNL1        0.0498
      4 C          -0.3561    1.6565    0.4946 C.3     1  UNL1       -0.0287
      5 C          -0.9559    0.4876    1.2869 C.3     1  UNL1       -0.0105
      6 C          -1.9621   -0.1003    0.3487 C.ar    1  UNL1        0.0237
      7 C          -3.2409   -0.5777    0.5271 C.ar    1  UNL1       -0.0082
      8 C          -3.9868   -0.6277    1.8054 C.3     1  UNL1        0.0721
      9 C          -4.4608    0.7265    2.1419 C.2     1  UNL1        0.3091
     10 O          -4.2045    1.6776    1.3785 O.2     1  UNL1       -0.2507
     11 O          -5.1850    0.9587    3.2906 O.3     1  UNL1       -0.4804
     12 C          -3.6729   -0.9915   -0.7091 C.ar    1  UNL1        0.0068
     13 C          -4.8810   -1.5573   -1.1289 C.ar    1  UNL1       -0.0494
     14 C          -5.0721   -1.8912   -2.4494 C.ar    1  UNL1       -0.0229
     15 C          -4.0490   -1.6552   -3.3412 C.ar    1  UNL1        0.1605
     16 F          -4.2234   -1.9819   -4.6573 F       1  UNL1       -0.2024
     17 C          -2.8593   -1.0967   -2.9204 C.ar    1  UNL1        0.1823
     18 F          -1.8770   -0.8812   -3.8334 F       1  UNL1       -0.2003
     19 C          -2.6528   -0.7554   -1.5938 C.ar    1  UNL1        0.0881
     20 N          -1.6107   -0.2071   -0.9216 N.ar    1  UNL1       -0.3397
     21 C          -0.3365    0.1909   -1.4964 C.3     1  UNL1        0.0409
     22 S           3.0327    1.3476   -0.5178 S.O2    1  UNL1        0.0609
     23 O           2.8152    2.8104   -0.2374 O.2     1  UNL1       -0.1528
     24 O           3.3075    1.2080   -2.0025 O.2     1  UNL1       -0.1528
     25 C           4.4733    0.7635    0.2999 C.ar    1  UNL1        0.1056
     26 C           4.8720    1.2761    1.5158 C.ar    1  UNL1       -0.0326
     27 C           6.0120    0.7796    2.1099 C.ar    1  UNL1       -0.0246
     28 C           6.7759   -0.2146    1.5364 C.ar    1  UNL1        0.1235
     29 F           7.8958   -0.7171    2.0983 F       1  UNL1       -0.2055
     30 C           6.3862   -0.7352    0.3190 C.ar    1  UNL1       -0.0246
     31 C           5.2469   -0.2366   -0.2713 C.ar    1  UNL1       -0.0326
     32 H           2.1731   -1.0037   -1.5068 H       1  UNL1        0.0408
     33 H           2.7449   -1.2567    0.1469 H       1  UNL1        0.0408
     34 H           1.0364   -1.5960   -0.1658 H       1  UNL1        0.0408
     35 H           0.8156    1.9566   -1.2216 H       1  UNL1        0.0497
     36 H          -1.1859    2.2290    0.0417 H       1  UNL1        0.0285
     37 H           0.2399    2.2543    1.1829 H       1  UNL1        0.0285
     38 H          -1.4014    0.8288    2.2196 H       1  UNL1        0.0328
     39 H          -0.1473   -0.2525    1.4302 H       1  UNL1        0.0328
     40 H          -4.8387   -1.3269    1.7696 H       1  UNL1        0.0427
     41 H          -3.2803   -0.9367    2.6018 H       1  UNL1        0.0427
     42 H          -5.7399    1.8100    3.4281 H       1  UNL1        0.2951
     43 H          -5.6572   -1.7256   -0.3987 H       1  UNL1        0.0625
     44 H          -6.0015   -2.3335   -2.8092 H       1  UNL1        0.0647
     45 H           0.1743   -0.7421   -1.8029 H       1  UNL1        0.0508
     46 H          -0.5438    0.7252   -2.4595 H       1  UNL1        0.0508
     47 H           4.2636    2.0563    1.9557 H       1  UNL1        0.0638
     48 H           6.3304    1.1772    3.0637 H       1  UNL1        0.0647
     49 H           6.9275   -1.5155   -0.1993 H       1  UNL1        0.0647
     50 H           4.9148   -0.6228   -1.2248 H       1  UNL1        0.0638
@<TRIPOS>BOND
     1     1     2    1
     2     2     3    1
     3     3     4    1
     4     4     5    1
     5     5     6    1
     6     6     7   ar
     7     7     8    1
     8     8     9    1
     9     9    10    2
    10     9    11    1
    11     7    12   ar
    12    12    13   ar
    13    13    14   ar
    14    14    15   ar
    15    15    16    1
    16    15    17   ar
    17    17    18    1
    18    17    19   ar
    19    19    20   ar
    20    20    21    1
    21     2    22    1
    22    22    23    2
    23    22    24    2
    24    22    25    1
    25    25    26   ar
    26    26    27   ar
    27    27    28   ar
    28    28    29    1
    29    28    30   ar
    30    30    31   ar
    31    21     3    1
    32    31    25   ar
    33    20     6   ar
    34    19    12   ar
    35     1    32    1
    36     1    33    1
    37     1    34    1
    38     3    35    1
    39     4    36    1
    40     4    37    1
    41     5    38    1
    42     5    39    1
    43     8    40    1
    44     8    41    1
    45    11    42    1
    46    13    43    1
    47    14    44    1
    48    21    45    1
    49    21    46    1
    50    26    47    1
    51    27    48    1
    52    30    49    1
    53    31    50    1
