@<TRIPOS>MOLECULE
*****
 62 65 0 0 0
SMALL
GASTEIGER

@<TRIPOS>ATOM
      1 C          -6.7376   -2.4254   -1.7703 C.3     1  UNL1       -0.0614
      2 C          -6.8189   -2.3425   -0.2830 C.3     1  UNL1       -0.0080
      3 C          -6.2907   -1.0228    0.2597 C.3     1  UNL1        0.1956
      4 O          -4.9701   -0.7983   -0.0555 O.3     1  UNL1       -0.4776
      5 C          -3.9252   -0.6614    0.8364 C.ar    1  UNL1        0.1237
      6 C          -4.0496   -0.7287    2.1966 C.ar    1  UNL1       -0.0198
      7 C          -2.9769   -0.5889    3.0873 C.ar    1  UNL1       -0.0563
      8 C          -1.7480   -0.3742    2.5413 C.ar    1  UNL1       -0.0376
      9 C          -1.5525   -0.2950    1.1769 C.ar    1  UNL1        0.0503
     10 N          -0.2447   -0.0755    0.6903 N.ar    1  UNL1       -0.3123
     11 C           0.5194   -1.0146    0.1304 C.ar    1  UNL1        0.0327
     12 C           0.1499   -2.4160   -0.0897 C.3     1  UNL1       -0.0232
     13 C           1.7663   -0.4744   -0.2344 C.ar    1  UNL1        0.0508
     14 C           2.8373   -1.1491   -0.8936 C.2     1  UNL1        0.1954
     15 O           2.4793   -2.1081   -1.6869 O.2     1  UNL1       -0.2866
     16 C           4.2627   -0.9298   -0.8064 C.ar    1  UNL1        0.0226
     17 C           4.8809   -0.4086    0.3010 C.ar    1  UNL1       -0.0475
     18 C           6.2321   -0.2209    0.3197 C.ar    1  UNL1       -0.0193
     19 C           7.0727   -0.5363   -0.7581 C.ar    1  UNL1        0.1201
     20 O           8.4244   -0.3338   -0.6963 O.3     1  UNL1       -0.4951
     21 C           9.2367   -0.6632   -1.7948 C.3     1  UNL1        0.0788
     22 C           6.4113   -1.0570   -1.8517 C.ar    1  UNL1       -0.0193
     23 C           5.0554   -1.2568   -1.8996 C.ar    1  UNL1       -0.0475
     24 C           1.6927    0.8477    0.1428 C.ar    1  UNL1        0.0115
     25 C           2.5360    1.9409    0.0624 C.ar    1  UNL1       -0.0484
     26 C           2.1999    3.2078    0.5130 C.ar    1  UNL1       -0.0189
     27 C           0.9755    3.4221    1.0720 C.ar    1  UNL1        0.1320
     28 O           0.5564    4.6606    1.5495 O.3     1  UNL1       -0.4057
     29 C          -0.1079    5.5228    0.6438 C.3     1  UNL1        0.5752
     30 F           0.7497    5.7859   -0.4039 F       1  UNL1       -0.1328
     31 F          -0.4488    6.7286    1.2562 F       1  UNL1       -0.1328
     32 F          -1.2844    4.9400    0.1620 F       1  UNL1       -0.1328
     33 C           0.1108    2.3544    1.1657 C.ar    1  UNL1        0.0048
     34 C           0.4350    1.0815    0.7177 C.ar    1  UNL1        0.0582
     35 C          -2.6275   -0.4369    0.3433 C.ar    1  UNL1        0.0040
     36 C          -7.1394    0.1091   -0.2286 C.2     1  UNL1        0.3459
     37 O          -8.3646    0.0573   -0.0159 O.2     1  UNL1       -0.2468
     38 O          -6.6030    1.1876   -0.8953 O.3     1  UNL1       -0.4781
     39 H          -6.7719   -3.4925   -2.1204 H       1  UNL1        0.0231
     40 H          -5.7773   -2.0292   -2.1546 H       1  UNL1        0.0231
     41 H          -7.5706   -1.9071   -2.2868 H       1  UNL1        0.0231
     42 H          -6.1720   -3.1597    0.1442 H       1  UNL1        0.0304
     43 H          -7.8476   -2.4971    0.0939 H       1  UNL1        0.0304
     44 H          -6.4579   -1.0669    1.3515 H       1  UNL1        0.0851
     45 H          -5.0243   -0.9020    2.6538 H       1  UNL1        0.0654
     46 H          -3.0993   -0.6454    4.1606 H       1  UNL1        0.0619
     47 H          -0.8996   -0.2627    3.2069 H       1  UNL1        0.0638
     48 H           0.9994   -3.1334   -0.0125 H       1  UNL1        0.0292
     49 H          -0.3611   -2.6186   -1.0403 H       1  UNL1        0.0292
     50 H          -0.5740   -2.7476    0.7116 H       1  UNL1        0.0292
     51 H           4.3083   -0.1431    1.1701 H       1  UNL1        0.0626
     52 H           6.7618    0.1944    1.1893 H       1  UNL1        0.0654
     53 H           9.0529    0.1251   -2.5751 H       1  UNL1        0.0660
     54 H          10.3106   -0.6736   -1.4971 H       1  UNL1        0.0660
     55 H           8.9123   -1.6243   -2.2103 H       1  UNL1        0.0660
     56 H           7.0068   -1.3257   -2.7425 H       1  UNL1        0.0654
     57 H           4.5677   -1.6792   -2.7989 H       1  UNL1        0.0626
     58 H           3.5073    1.8353   -0.3887 H       1  UNL1        0.0625
     59 H           2.8903    4.0406    0.4324 H       1  UNL1        0.0654
     60 H          -0.8747    2.4743    1.6038 H       1  UNL1        0.0675
     61 H          -2.5326   -0.3829   -0.7530 H       1  UNL1        0.0675
     62 H          -7.0491    2.0929   -0.9414 H       1  UNL1        0.2952
@<TRIPOS>BOND
     1     1     2    1
     2     2     3    1
     3     3     4    1
     4     4     5    1
     5     5     6   ar
     6     6     7   ar
     7     7     8   ar
     8     8     9   ar
     9     9    10    1
    10    10    11   ar
    11    11    12    1
    12    11    13   ar
    13    13    14    1
    14    14    15    2
    15    14    16    1
    16    16    17   ar
    17    17    18   ar
    18    18    19   ar
    19    19    20    1
    20    20    21    1
    21    19    22   ar
    22    22    23   ar
    23    13    24   ar
    24    24    25   ar
    25    25    26   ar
    26    26    27   ar
    27    27    28    1
    28    28    29    1
    29    29    30    1
    30    29    31    1
    31    29    32    1
    32    27    33   ar
    33    33    34   ar
    34     9    35   ar
    35     3    36    1
    36    36    37    2
    37    36    38    1
    38    35     5   ar
    39    34    10   ar
    40    23    16   ar
    41    34    24   ar
    42     1    39    1
    43     1    40    1
    44     1    41    1
    45     2    42    1
    46     2    43    1
    47     3    44    1
    48     6    45    1
    49     7    46    1
    50     8    47    1
    51    12    48    1
    52    12    49    1
    53    12    50    1
    54    17    51    1
    55    18    52    1
    56    21    53    1
    57    21    54    1
    58    21    55    1
    59    22    56    1
    60    23    57    1
    61    25    58    1
    62    26    59    1
    63    33    60    1
    64    35    61    1
    65    38    62    1
