
     RDKit          3D

 27 28  0  0  0  0  0  0  0  0999 V2000
   -2.2168    0.2270    2.7636 N   0  0  0  0  0  0  0  0  0  0  0  0
   -1.6112    0.1661    1.4470 C   0  0  1  0  0  0  0  0  0  0  0  0
   -0.3101   -0.5707    1.5873 C   0  0  0  0  0  0  0  0  0  0  0  0
    0.3804   -0.6800    0.2721 C   0  0  0  0  0  0  0  0  0  0  0  0
    0.3887   -1.8635   -0.4388 C   0  0  0  0  0  0  0  0  0  0  0  0
    1.0673   -1.6860   -1.5629 N   0  0  0  0  0  0  0  0  0  0  0  0
    1.5012   -0.3980   -1.5916 C   0  0  0  0  0  0  0  0  0  0  0  0
    2.2494    0.3562   -2.5018 C   0  0  0  0  0  0  0  0  0  0  0  0
    2.5527    1.6809   -2.2713 C   0  0  0  0  0  0  0  0  0  0  0  0
    2.0937    2.2540   -1.1037 C   0  0  0  0  0  0  0  0  0  0  0  0
    1.3587    1.5747   -0.1731 C   0  0  0  0  0  0  0  0  0  0  0  0
    1.0838    0.2577   -0.4505 C   0  0  0  0  0  0  0  0  0  0  0  0
   -2.5703   -0.5326    0.5479 C   0  0  0  0  0  0  0  0  0  0  0  0
   -3.8108   -1.0024    1.0217 O   0  0  0  0  0  0  0  0  0  0  0  0
   -2.3556   -0.7535   -0.6737 O   0  0  0  0  0  0  0  0  0  0  0  0
   -1.4598    0.1849    3.4831 H   0  0  0  0  0  0  0  0  0  0  0  0
   -2.8110   -0.6251    2.8652 H   0  0  0  0  0  0  0  0  0  0  0  0
   -1.4301    1.2128    1.0957 H   0  0  0  0  0  0  0  0  0  0  0  0
    0.3266    0.0647    2.2600 H   0  0  0  0  0  0  0  0  0  0  0  0
   -0.4766   -1.5367    2.0571 H   0  0  0  0  0  0  0  0  0  0  0  0
   -0.0617   -2.7975   -0.1741 H   0  0  0  0  0  0  0  0  0  0  0  0
    1.2866   -2.3404   -2.3448 H   0  0  0  0  0  0  0  0  0  0  0  0
    2.5764   -0.1713   -3.4035 H   0  0  0  0  0  0  0  0  0  0  0  0
    3.1440    2.2010   -3.0340 H   0  0  0  0  0  0  0  0  0  0  0  0
    2.3477    3.2965   -0.9495 H   0  0  0  0  0  0  0  0  0  0  0  0
    1.0067    2.0406    0.7377 H   0  0  0  0  0  0  0  0  0  0  0  0
   -4.2499   -1.7701    0.5350 H   0  0  0  0  0  0  0  0  0  0  0  0
  1  2  1  0
  2  3  1  0
  3  4  1  0
  4  5  2  0
  5  6  1  0
  6  7  1  0
  7  8  2  0
  8  9  1  0
  9 10  2  0
 10 11  1  0
 11 12  2  0
  2 13  1  0
 13 14  1  0
 13 15  2  0
 12  4  1  0
 12  7  1  0
  1 16  1  0
  1 17  1  0
  2 18  1  6
  3 19  1  0
  3 20  1  0
  5 21  1  0
  6 22  1  0
  8 23  1  0
  9 24  1  0
 10 25  1  0
 11 26  1  0
 14 27  1  0
M  END
$$$$
