@<TRIPOS>MOLECULE
*****
 53 57 0 0 0
SMALL
GASTEIGER

@<TRIPOS>ATOM
      1 C          -1.7201    0.0928    1.8803 C.3     1  UNL1       -0.0112
      2 C          -1.9042    0.0006    0.3467 C.3     1  UNL1        0.1959
      3 C          -0.5440    0.1029   -0.2746 C.ar    1  UNL1        0.0420
      4 C           0.5809    0.0896    0.4989 C.ar    1  UNL1       -0.0301
      5 C           1.8680    0.1287   -0.0440 C.ar    1  UNL1        0.0330
      6 N           2.9933    0.0983    0.8139 N.pl3   1  UNL1       -0.2977
      7 C           4.1959   -0.5564    0.4701 C.ar    1  UNL1        0.1490
      8 N           4.1421   -1.9203    0.4114 N.ar    1  UNL1       -0.2380
      9 C           5.2226   -2.6582    0.1221 C.ar    1  UNL1        0.0304
     10 C           6.4608   -2.1029   -0.1367 C.ar    1  UNL1       -0.0342
     11 C           6.5353   -0.7272   -0.0828 C.ar    1  UNL1        0.0066
     12 C           7.7659   -0.1718   -0.3321 C.ar    1  UNL1       -0.0326
     13 C           7.8562    1.2062   -0.2732 C.ar    1  UNL1        0.0596
     14 CL          9.4082    1.9858   -0.5787 Cl      1  UNL1       -0.0820
     15 C           6.7205    1.9321    0.0276 C.ar    1  UNL1        0.0467
     16 N           5.5311    1.3643    0.2661 N.ar    1  UNL1       -0.2501
     17 C           5.4003    0.0250    0.2197 C.ar    1  UNL1        0.1109
     18 C           2.0231    0.1868   -1.4136 C.ar    1  UNL1       -0.0378
     19 C           0.8825    0.2027   -2.2267 C.ar    1  UNL1       -0.0243
     20 C          -0.3825    0.1603   -1.6396 C.ar    1  UNL1        0.1311
     21 F          -1.4331    0.1801   -2.4909 F       1  UNL1       -0.2050
     22 C          -2.4862   -1.3551    0.1173 C.3     1  UNL1        0.1183
     23 S          -4.1775   -1.3090   -0.3777 S.O2    1  UNL1       -0.0095
     24 O          -4.9881   -2.4296    0.2110 O.2     1  UNL1       -0.1731
     25 O          -4.3642   -1.3892   -1.8631 O.2     1  UNL1       -0.1731
     26 C          -4.8305    0.2608    0.1382 C.3     1  UNL1        0.1886
     27 C          -6.1519    0.4880   -0.5728 C.3     1  UNL1       -0.0164
     28 C          -6.8423   -0.0558    0.6613 C.3     1  UNL1       -0.0479
     29 C          -5.5570    0.2624    1.4324 C.3     1  UNL1       -0.0164
     30 C          -3.8836    1.3265   -0.1593 C.2     1  UNL1        0.3072
     31 N          -4.3640    2.6070   -0.5766 N.pl3   1  UNL1       -0.2488
     32 N          -2.6416    1.1327   -0.0454 N.2     1  UNL1       -0.0727
     33 H          -2.7123    0.1465    2.3705 H       1  UNL1        0.0279
     34 H          -1.1514    0.9675    2.1892 H       1  UNL1        0.0279
     35 H          -1.2324   -0.8266    2.2528 H       1  UNL1        0.0279
     36 H           0.5550    0.0483    1.5994 H       1  UNL1        0.0641
     37 H           2.9591    0.5857    1.7593 H       1  UNL1        0.1536
     38 H           5.1399   -3.7368    0.0877 H       1  UNL1        0.0830
     39 H           7.3353   -2.7055   -0.3698 H       1  UNL1        0.0639
     40 H           8.6504   -0.7546   -0.5668 H       1  UNL1        0.0639
     41 H           6.8417    3.0171    0.0681 H       1  UNL1        0.0844
     42 H           3.0287    0.2224   -1.8232 H       1  UNL1        0.0637
     43 H           1.0467    0.2504   -3.2861 H       1  UNL1        0.0647
     44 H          -1.8615   -1.9683   -0.5985 H       1  UNL1        0.0550
     45 H          -2.4741   -2.0143    1.0438 H       1  UNL1        0.0550
     46 H          -6.4189    1.5544   -0.7098 H       1  UNL1        0.0292
     47 H          -6.3397   -0.1831   -1.4472 H       1  UNL1        0.0292
     48 H          -7.6873    0.5532    1.0235 H       1  UNL1        0.0267
     49 H          -7.0175   -1.1627    0.6562 H       1  UNL1        0.0267
     50 H          -5.2980   -0.5763    2.1360 H       1  UNL1        0.0292
     51 H          -5.5646    1.2511    1.8951 H       1  UNL1        0.0292
     52 H          -4.2945    2.9917   -1.5262 H       1  UNL1        0.2881
     53 H          -4.8208    3.1818    0.1647 H       1  UNL1        0.2881
@<TRIPOS>BOND
     1     2     1    1
     2     2     3    1
     3     3     4   ar
     4     4     5   ar
     5     5     6    1
     6     6     7    1
     7     7     8   ar
     8     8     9   ar
     9     9    10   ar
    10    10    11   ar
    11    11    12   ar
    12    12    13   ar
    13    13    14    1
    14    13    15   ar
    15    15    16   ar
    16    16    17   ar
    17     5    18   ar
    18    18    19   ar
    19    19    20   ar
    20    20    21    1
    21     2    22    1
    22    22    23    1
    23    23    24    2
    24    23    25    2
    25    23    26    1
    26    26    27    1
    27    27    28    1
    28    28    29    1
    29    26    30    1
    30    30    31    1
    31    30    32    2
    32    32     2    1
    33    20     3   ar
    34    29    26    1
    35    17     7   ar
    36    17    11   ar
    37     1    33    1
    38     1    34    1
    39     1    35    1
    40     4    36    1
    41     6    37    1
    42     9    38    1
    43    10    39    1
    44    12    40    1
    45    15    41    1
    46    18    42    1
    47    19    43    1
    48    22    44    1
    49    22    45    1
    50    27    46    1
    51    27    47    1
    52    28    48    1
    53    28    49    1
    54    29    50    1
    55    29    51    1
    56    31    52    1
    57    31    53    1
