@<TRIPOS>MOLECULE
*****
 51 53 0 0 0
SMALL
GASTEIGER

@<TRIPOS>ATOM
      1 C          -6.1576   -1.6404    0.1646 C.3     1  UNL1        0.0134
      2 N          -5.9051   -0.3708    0.8042 N.ar    1  UNL1       -0.3298
      3 C          -6.5823    0.0705    1.8998 C.ar    1  UNL1        0.0244
      4 C          -6.0470    1.3194    2.1960 C.ar    1  UNL1        0.0462
      5 N          -5.0997    1.5687    1.2947 N.ar    1  UNL1       -0.2318
      6 C          -5.0076    0.5210    0.4266 C.ar    1  UNL1        0.1964
      7 C          -4.0645    0.4744   -0.6837 C.2     1  UNL1        0.2821
      8 O          -4.3264    1.2087   -1.7012 O.2     1  UNL1       -0.2666
      9 N          -2.9070   -0.3078   -0.7076 N.am    1  UNL1       -0.2950
     10 C          -2.0221   -0.2490   -1.8867 C.3     1  UNL1        0.0156
     11 C          -0.8457    0.6226   -1.3924 C.3     1  UNL1       -0.0302
     12 C          -0.4315    0.1142   -0.0342 C.3     1  UNL1       -0.0125
     13 C           1.0463    0.2221    0.1677 C.ar    1  UNL1       -0.0325
     14 C           1.9027   -0.5285   -0.6232 C.ar    1  UNL1       -0.0570
     15 C           3.2753   -0.4881   -0.5173 C.ar    1  UNL1       -0.0479
     16 C           3.8603    0.3320    0.4150 C.ar    1  UNL1        0.0536
     17 C           5.3080    0.4357    0.6237 C.2     1  UNL1        0.3066
     18 O           5.7126    1.1040    1.5878 O.2     1  UNL1       -0.2516
     19 N           6.1887   -0.2060   -0.2481 N.am    1  UNL1       -0.1709
     20 C           7.6056   -0.1597   -0.0842 C.2     1  UNL1        0.3751
     21 N           8.1780    0.4245    0.8665 N.pl3   1  UNL1       -0.1313
     22 N           8.4497   -0.8115   -1.0547 N.pl3   1  UNL1       -0.2906
     23 C           2.9995    1.0929    1.2152 C.ar    1  UNL1       -0.0363
     24 C           1.6270    1.0497    1.1066 C.ar    1  UNL1        0.0590
     25 C           0.7663    1.8729    2.0009 C.3     1  UNL1        0.4177
     26 F          -0.0655    1.0954    2.7813 F       1  UNL1       -0.1659
     27 F           0.1084    2.8543    1.3163 F       1  UNL1       -0.1659
     28 F           1.6315    2.5152    2.8971 F       1  UNL1       -0.1659
     29 C          -0.9425   -1.2706    0.2269 C.3     1  UNL1       -0.0302
     30 C          -2.4602   -1.2013    0.3364 C.3     1  UNL1        0.0156
     31 H          -5.4700   -1.8155   -0.6805 H       1  UNL1        0.0456
     32 H          -6.0953   -2.4856    0.9036 H       1  UNL1        0.0456
     33 H          -7.1899   -1.5981   -0.2760 H       1  UNL1        0.0456
     34 H          -7.3718   -0.4160    2.4508 H       1  UNL1        0.0825
     35 H          -6.3865    1.9324    3.0322 H       1  UNL1        0.0845
     36 H          -1.7065   -1.2528   -2.1573 H       1  UNL1        0.0465
     37 H          -2.4977    0.2354   -2.7387 H       1  UNL1        0.0465
     38 H          -1.2049    1.6461   -1.3697 H       1  UNL1        0.0286
     39 H          -0.0482    0.5002   -2.1503 H       1  UNL1        0.0286
     40 H          -0.9284    0.7857    0.7096 H       1  UNL1        0.0350
     41 H           1.4691   -1.1851   -1.3715 H       1  UNL1        0.0621
     42 H           3.8804   -1.1089   -1.1733 H       1  UNL1        0.0626
     43 H           5.7934   -0.7443   -1.0627 H       1  UNL1        0.2545
     44 H           7.8073    0.9335    1.6383 H       1  UNL1        0.3060
     45 H           8.1662   -1.7116   -1.4450 H       1  UNL1        0.2545
     46 H           9.3215   -0.3450   -1.3272 H       1  UNL1        0.2545
     47 H           3.4867    1.7448    1.9554 H       1  UNL1        0.0631
     48 H          -0.6389   -2.0068   -0.5179 H       1  UNL1        0.0286
     49 H          -0.5913   -1.6310    1.2099 H       1  UNL1        0.0286
     50 H          -2.7720   -0.9202    1.3394 H       1  UNL1        0.0465
     51 H          -2.8185   -2.2215    0.0697 H       1  UNL1        0.0465
@<TRIPOS>BOND
     1     1     2    1
     2     2     3   ar
     3     3     4   ar
     4     4     5   ar
     5     5     6   ar
     6     6     7    1
     7     7     8    2
     8     7     9   am
     9     9    10    1
    10    10    11    1
    11    11    12    1
    12    12    13    1
    13    13    14   ar
    14    14    15   ar
    15    15    16   ar
    16    16    17    1
    17    17    18    2
    18    17    19   am
    19    19    20    1
    20    20    21    2
    21    20    22    1
    22    16    23   ar
    23    23    24   ar
    24    24    25    1
    25    25    26    1
    26    25    27    1
    27    25    28    1
    28    12    29    1
    29    29    30    1
    30     6     2   ar
    31    30     9    1
    32    24    13   ar
    33     1    31    1
    34     1    32    1
    35     1    33    1
    36     3    34    1
    37     4    35    1
    38    10    36    1
    39    10    37    1
    40    11    38    1
    41    11    39    1
    42    12    40    1
    43    14    41    1
    44    15    42    1
    45    19    43    1
    46    21    44    1
    47    22    45    1
    48    22    46    1
    49    23    47    1
    50    29    48    1
    51    29    49    1
    52    30    50    1
    53    30    51    1
