@<TRIPOS>MOLECULE
*****
 63 69 0 0 0
SMALL
GASTEIGER

@<TRIPOS>ATOM
      1 N          -2.2053   -0.4496   -3.0919 N.pl3   1  UNL1       -0.3414
      2 C          -0.9242    0.0469   -3.4666 C.ar    1  UNL1        0.1424
      3 N          -0.6792    0.4282   -4.7397 N.ar    1  UNL1       -0.2371
      4 C           0.5328    0.8752   -5.1084 C.ar    1  UNL1        0.0463
      5 C           1.5476    0.9499   -4.1842 C.ar    1  UNL1        0.0297
      6 N           1.3416    0.5796   -2.9070 N.ar    1  UNL1       -0.2982
      7 C           0.1057    0.1292   -2.5494 C.ar    1  UNL1        0.1135
      8 C           0.1766   -0.1783   -1.2234 C.ar    1  UNL1        0.1002
      9 C          -0.8734   -0.7184   -0.3540 C.ar    1  UNL1        0.0046
     10 C          -0.6299   -1.8807    0.3870 C.ar    1  UNL1       -0.0518
     11 C          -1.6028   -2.3588    1.2263 C.ar    1  UNL1       -0.0519
     12 C          -2.8366   -1.7402    1.3823 C.ar    1  UNL1        0.0005
     13 C          -3.7882   -2.2483    2.2353 C.ar    1  UNL1       -0.0505
     14 C          -5.0216   -1.5832    2.3586 C.ar    1  UNL1       -0.0351
     15 C          -5.2398   -0.4534    1.6294 C.ar    1  UNL1        0.0717
     16 C          -6.5250    0.2615    1.7413 C.ar    1  UNL1        0.0004
     17 C          -6.7194    1.4023    0.9887 C.ar    1  UNL1       -0.0526
     18 C          -7.9069    2.0774    1.0835 C.ar    1  UNL1       -0.0611
     19 C          -8.9546    1.6870    1.9022 C.ar    1  UNL1       -0.0617
     20 C          -8.7299    0.5465    2.6394 C.ar    1  UNL1       -0.0611
     21 C          -7.5349   -0.1588    2.5635 C.ar    1  UNL1       -0.0526
     22 N          -4.2725    0.0016    0.8077 N.ar    1  UNL1       -0.2467
     23 C          -3.0905   -0.5942    0.6588 C.ar    1  UNL1        0.0723
     24 C          -2.1014   -0.1256   -0.1810 C.ar    1  UNL1       -0.0265
     25 N           1.4512    0.0899   -0.8106 N.ar    1  UNL1       -0.2309
     26 C           2.1589    0.5506   -1.8327 C.ar    1  UNL1        0.1181
     27 C           3.5900    0.9565   -1.7964 C.3     1  UNL1        0.0182
     28 C           3.8581    1.9596   -0.6930 C.3     1  UNL1       -0.0393
     29 C           5.0768    1.1227   -0.2741 C.3     1  UNL1       -0.0270
     30 C           5.0542    0.9665    1.2126 C.3     1  UNL1        0.0018
     31 N           6.1119    0.2192    1.7883 N.3     1  UNL1       -0.3020
     32 C           6.1492   -1.2009    1.5086 C.3     1  UNL1        0.0001
     33 C           7.6569   -1.1201    1.7426 C.3     1  UNL1       -0.0274
     34 C           7.4267    0.3159    1.2484 C.3     1  UNL1        0.0001
     35 C           4.4445   -0.0158   -1.0500 C.3     1  UNL1       -0.0393
     36 H          -2.9889    0.2373   -2.9639 H       1  UNL1        0.1438
     37 H          -2.4278   -1.4491   -2.9338 H       1  UNL1        0.1438
     38 H           0.7450    1.1858   -6.1259 H       1  UNL1        0.0845
     39 H           2.5460    1.3143   -4.4732 H       1  UNL1        0.0829
     40 H           0.3234   -2.3487    0.2593 H       1  UNL1        0.0624
     41 H          -1.4377   -3.2610    1.8139 H       1  UNL1        0.0624
     42 H          -3.5738   -3.1484    2.7959 H       1  UNL1        0.0625
     43 H          -5.7528   -2.0125    3.0429 H       1  UNL1        0.0639
     44 H          -5.9089    1.7498    0.3221 H       1  UNL1        0.0624
     45 H          -8.0273    2.9800    0.4703 H       1  UNL1        0.0618
     46 H          -9.8678    2.2652    1.9311 H       1  UNL1        0.0618
     47 H          -9.5315    0.2220    3.2852 H       1  UNL1        0.0618
     48 H          -7.4420   -1.0451    3.1781 H       1  UNL1        0.0624
     49 H          -2.3368    0.8041   -0.7214 H       1  UNL1        0.0645
     50 H           4.0371    1.2578   -2.7431 H       1  UNL1        0.0379
     51 H           3.0473    1.9545    0.0442 H       1  UNL1        0.0275
     52 H           4.1120    2.9461   -1.1133 H       1  UNL1        0.0275
     53 H           5.9662    1.5673   -0.7162 H       1  UNL1        0.0313
     54 H           5.0598    1.9825    1.7047 H       1  UNL1        0.0429
     55 H           4.0778    0.5101    1.5139 H       1  UNL1        0.0429
     56 H           5.9378   -1.4381    0.4659 H       1  UNL1        0.0427
     57 H           5.6098   -1.7755    2.2897 H       1  UNL1        0.0427
     58 H           7.9432   -1.1876    2.8058 H       1  UNL1        0.0290
     59 H           8.2695   -1.7317    1.0813 H       1  UNL1        0.0290
     60 H           8.0553    1.0007    1.8292 H       1  UNL1        0.0427
     61 H           7.5412    0.3258    0.1559 H       1  UNL1        0.0427
     62 H           5.1408   -0.6230   -1.6448 H       1  UNL1        0.0275
     63 H           3.8364   -0.6847   -0.3964 H       1  UNL1        0.0275
@<TRIPOS>BOND
     1     1     2    1
     2     2     3   ar
     3     3     4   ar
     4     4     5   ar
     5     5     6   ar
     6     6     7   ar
     7     7     8   ar
     8     8     9    1
     9     9    10   ar
    10    10    11   ar
    11    11    12   ar
    12    12    13   ar
    13    13    14   ar
    14    14    15   ar
    15    15    16    1
    16    16    17   ar
    17    17    18   ar
    18    18    19   ar
    19    19    20   ar
    20    20    21   ar
    21    15    22   ar
    22    22    23   ar
    23    23    24   ar
    24     8    25   ar
    25    25    26   ar
    26    26    27    1
    27    27    28    1
    28    28    29    1
    29    29    30    1
    30    30    31    1
    31    31    32    1
    32    32    33    1
    33    33    34    1
    34    29    35    1
    35     7     2   ar
    36    24     9   ar
    37    35    27    1
    38    26     6   ar
    39    34    31    1
    40    23    12   ar
    41    21    16   ar
    42     1    36    1
    43     1    37    1
    44     4    38    1
    45     5    39    1
    46    10    40    1
    47    11    41    1
    48    13    42    1
    49    14    43    1
    50    17    44    1
    51    18    45    1
    52    19    46    1
    53    20    47    1
    54    21    48    1
    55    24    49    1
    56    27    50    1
    57    28    51    1
    58    28    52    1
    59    29    53    1
    60    30    54    1
    61    30    55    1
    62    32    56    1
    63    32    57    1
    64    33    58    1
    65    33    59    1
    66    34    60    1
    67    34    61    1
    68    35    62    1
    69    35    63    1
