
     RDKit          3D

 63 69  0  0  0  0  0  0  0  0999 V2000
   -2.2053   -0.4496   -3.0919 N   0  0  0  0  0  0  0  0  0  0  0  0
   -0.9242    0.0469   -3.4666 C   0  0  0  0  0  0  0  0  0  0  0  0
   -0.6792    0.4282   -4.7397 N   0  0  0  0  0  0  0  0  0  0  0  0
    0.5328    0.8752   -5.1084 C   0  0  0  0  0  0  0  0  0  0  0  0
    1.5476    0.9499   -4.1842 C   0  0  0  0  0  0  0  0  0  0  0  0
    1.3416    0.5796   -2.9070 N   0  0  0  0  0  0  0  0  0  0  0  0
    0.1057    0.1292   -2.5494 C   0  0  0  0  0  0  0  0  0  0  0  0
    0.1766   -0.1783   -1.2234 C   0  0  0  0  0  0  0  0  0  0  0  0
   -0.8734   -0.7184   -0.3540 C   0  0  0  0  0  0  0  0  0  0  0  0
   -0.6299   -1.8807    0.3870 C   0  0  0  0  0  0  0  0  0  0  0  0
   -1.6028   -2.3588    1.2263 C   0  0  0  0  0  0  0  0  0  0  0  0
   -2.8366   -1.7402    1.3823 C   0  0  0  0  0  0  0  0  0  0  0  0
   -3.7882   -2.2483    2.2353 C   0  0  0  0  0  0  0  0  0  0  0  0
   -5.0216   -1.5832    2.3586 C   0  0  0  0  0  0  0  0  0  0  0  0
   -5.2398   -0.4534    1.6294 C   0  0  0  0  0  0  0  0  0  0  0  0
   -6.5250    0.2615    1.7413 C   0  0  0  0  0  0  0  0  0  0  0  0
   -6.7194    1.4023    0.9887 C   0  0  0  0  0  0  0  0  0  0  0  0
   -7.9069    2.0774    1.0835 C   0  0  0  0  0  0  0  0  0  0  0  0
   -8.9546    1.6870    1.9022 C   0  0  0  0  0  0  0  0  0  0  0  0
   -8.7299    0.5465    2.6394 C   0  0  0  0  0  0  0  0  0  0  0  0
   -7.5349   -0.1588    2.5635 C   0  0  0  0  0  0  0  0  0  0  0  0
   -4.2725    0.0016    0.8077 N   0  0  0  0  0  0  0  0  0  0  0  0
   -3.0905   -0.5942    0.6588 C   0  0  0  0  0  0  0  0  0  0  0  0
   -2.1014   -0.1256   -0.1810 C   0  0  0  0  0  0  0  0  0  0  0  0
    1.4512    0.0899   -0.8106 N   0  0  0  0  0  0  0  0  0  0  0  0
    2.1589    0.5506   -1.8327 C   0  0  0  0  0  0  0  0  0  0  0  0
    3.5900    0.9565   -1.7964 C   0  0  1  0  0  0  0  0  0  0  0  0
    3.8581    1.9596   -0.6930 C   0  0  0  0  0  0  0  0  0  0  0  0
    5.0768    1.1227   -0.2741 C   0  0  1  0  0  0  0  0  0  0  0  0
    5.0542    0.9665    1.2126 C   0  0  0  0  0  0  0  0  0  0  0  0
    6.1119    0.2192    1.7883 N   0  0  0  0  0  0  0  0  0  0  0  0
    6.1492   -1.2009    1.5086 C   0  0  0  0  0  0  0  0  0  0  0  0
    7.6569   -1.1201    1.7426 C   0  0  0  0  0  0  0  0  0  0  0  0
    7.4267    0.3159    1.2484 C   0  0  0  0  0  0  0  0  0  0  0  0
    4.4445   -0.0158   -1.0500 C   0  0  0  0  0  0  0  0  0  0  0  0
   -2.9889    0.2373   -2.9639 H   0  0  0  0  0  0  0  0  0  0  0  0
   -2.4278   -1.4491   -2.9338 H   0  0  0  0  0  0  0  0  0  0  0  0
    0.7450    1.1858   -6.1259 H   0  0  0  0  0  0  0  0  0  0  0  0
    2.5460    1.3143   -4.4732 H   0  0  0  0  0  0  0  0  0  0  0  0
    0.3234   -2.3487    0.2593 H   0  0  0  0  0  0  0  0  0  0  0  0
   -1.4377   -3.2610    1.8139 H   0  0  0  0  0  0  0  0  0  0  0  0
   -3.5738   -3.1484    2.7959 H   0  0  0  0  0  0  0  0  0  0  0  0
   -5.7528   -2.0125    3.0429 H   0  0  0  0  0  0  0  0  0  0  0  0
   -5.9089    1.7498    0.3221 H   0  0  0  0  0  0  0  0  0  0  0  0
   -8.0273    2.9800    0.4703 H   0  0  0  0  0  0  0  0  0  0  0  0
   -9.8678    2.2652    1.9311 H   0  0  0  0  0  0  0  0  0  0  0  0
   -9.5315    0.2220    3.2852 H   0  0  0  0  0  0  0  0  0  0  0  0
   -7.4420   -1.0451    3.1781 H   0  0  0  0  0  0  0  0  0  0  0  0
   -2.3368    0.8041   -0.7214 H   0  0  0  0  0  0  0  0  0  0  0  0
    4.0371    1.2578   -2.7431 H   0  0  0  0  0  0  0  0  0  0  0  0
    3.0473    1.9545    0.0442 H   0  0  0  0  0  0  0  0  0  0  0  0
    4.1120    2.9461   -1.1133 H   0  0  0  0  0  0  0  0  0  0  0  0
    5.9662    1.5673   -0.7162 H   0  0  0  0  0  0  0  0  0  0  0  0
    5.0598    1.9825    1.7047 H   0  0  0  0  0  0  0  0  0  0  0  0
    4.0778    0.5101    1.5139 H   0  0  0  0  0  0  0  0  0  0  0  0
    5.9378   -1.4381    0.4659 H   0  0  0  0  0  0  0  0  0  0  0  0
    5.6098   -1.7755    2.2897 H   0  0  0  0  0  0  0  0  0  0  0  0
    7.9432   -1.1876    2.8058 H   0  0  0  0  0  0  0  0  0  0  0  0
    8.2695   -1.7317    1.0813 H   0  0  0  0  0  0  0  0  0  0  0  0
    8.0553    1.0007    1.8292 H   0  0  0  0  0  0  0  0  0  0  0  0
    7.5412    0.3258    0.1559 H   0  0  0  0  0  0  0  0  0  0  0  0
    5.1408   -0.6230   -1.6448 H   0  0  0  0  0  0  0  0  0  0  0  0
    3.8364   -0.6847   -0.3964 H   0  0  0  0  0  0  0  0  0  0  0  0
  1  2  1  0
  2  3  2  0
  3  4  1  0
  4  5  2  0
  5  6  1  0
  6  7  1  0
  7  8  2  0
  8  9  1  0
  9 10  2  0
 10 11  1  0
 11 12  2  0
 12 13  1  0
 13 14  2  0
 14 15  1  0
 15 16  1  0
 16 17  2  0
 17 18  1  0
 18 19  2  0
 19 20  1  0
 20 21  2  0
 15 22  2  0
 22 23  1  0
 23 24  2  0
  8 25  1  0
 25 26  2  0
 26 27  1  0
 27 28  1  0
 28 29  1  0
 29 30  1  0
 30 31  1  0
 31 32  1  0
 32 33  1  0
 33 34  1  0
 29 35  1  0
  7  2  1  0
 24  9  1  0
 35 27  1  0
 26  6  1  0
 34 31  1  0
 23 12  1  0
 21 16  1  0
  1 36  1  0
  1 37  1  0
  4 38  1  0
  5 39  1  0
 10 40  1  0
 11 41  1  0
 13 42  1  0
 14 43  1  0
 17 44  1  0
 18 45  1  0
 19 46  1  0
 20 47  1  0
 21 48  1  0
 24 49  1  0
 27 50  1  6
 28 51  1  0
 28 52  1  0
 29 53  1  6
 30 54  1  0
 30 55  1  0
 32 56  1  0
 32 57  1  0
 33 58  1  0
 33 59  1  0
 34 60  1  0
 34 61  1  0
 35 62  1  0
 35 63  1  0
M  END
$$$$
