
     RDKit          3D

 54 59  0  0  0  0  0  0  0  0999 V2000
   -7.0814   -0.0275   -3.2652 C   0  0  0  0  0  0  0  0  0  0  0  0
   -6.0609   -0.8712   -2.8716 C   0  0  0  0  0  0  0  0  0  0  0  0
   -5.5176   -0.7578   -1.6119 C   0  0  0  0  0  0  0  0  0  0  0  0
   -5.9786    0.2016   -0.7103 C   0  0  0  0  0  0  0  0  0  0  0  0
   -5.4256    0.3044    0.5488 C   0  0  0  0  0  0  0  0  0  0  0  0
   -4.3458   -0.5973    0.9478 C   0  0  0  0  0  0  0  0  0  0  0  0
   -4.4281   -1.8350    1.5588 C   0  0  0  0  0  0  0  0  0  0  0  0
   -3.1643   -2.2560    1.7143 N   0  0  0  0  0  0  0  0  0  0  0  0
   -2.3106   -1.3638    1.2416 N   0  0  0  0  0  0  0  0  0  0  0  0
   -0.9501   -1.3830    1.1960 C   0  0  0  0  0  0  0  0  0  0  0  0
   -0.2635   -0.3200    0.6463 C   0  0  0  0  0  0  0  0  0  0  0  0
    1.1988   -0.3059    0.5807 C   0  0  0  0  0  0  0  0  0  0  0  0
    1.8014    0.3539   -0.4636 C   0  0  0  0  0  0  0  0  0  0  0  0
    3.1763    0.3856   -0.5536 C   0  0  0  0  0  0  0  0  0  0  0  0
    3.9691   -0.2338    0.3867 C   0  0  0  0  0  0  0  0  0  0  0  0
    5.4314   -0.2099    0.3064 C   0  0  0  0  0  0  0  0  0  0  0  0
    5.8475   -0.8089   -1.0194 C   0  0  0  0  0  0  0  0  0  0  0  0
    7.3200   -0.6281   -1.2968 C   0  0  0  0  0  0  0  0  0  0  0  0
    7.7803    0.7024   -1.0128 N   0  0  0  0  0  0  0  0  0  0  0  0
    7.4547    1.1472    0.3144 C   0  0  0  0  0  0  0  0  0  0  0  0
    5.9462    1.2216    0.4238 C   0  0  0  0  0  0  0  0  0  0  0  0
    3.3289   -0.8857    1.4196 C   0  0  0  0  0  0  0  0  0  0  0  0
    1.9596   -0.9354    1.5375 C   0  0  0  0  0  0  0  0  0  0  0  0
   -0.9901    0.7441    0.1533 C   0  0  0  0  0  0  0  0  0  0  0  0
   -2.3379    0.7296    0.2149 N   0  0  0  0  0  0  0  0  0  0  0  0
   -3.0046   -0.3175    0.7560 C   0  0  0  0  0  0  0  0  0  0  0  0
   -5.9227    1.2706    1.3939 C   0  0  0  0  0  0  0  0  0  0  0  0
   -6.9405    2.0852    0.9509 C   0  0  0  0  0  0  0  0  0  0  0  0
   -7.4532    1.9569   -0.2779 N   0  0  0  0  0  0  0  0  0  0  0  0
   -6.9976    1.0249   -1.1393 C   0  0  0  0  0  0  0  0  0  0  0  0
   -7.5474    0.9224   -2.3912 C   0  0  0  0  0  0  0  0  0  0  0  0
   -7.5389   -0.0792   -4.2441 H   0  0  0  0  0  0  0  0  0  0  0  0
   -5.6832   -1.6332   -3.5656 H   0  0  0  0  0  0  0  0  0  0  0  0
   -4.7055   -1.4200   -1.2814 H   0  0  0  0  0  0  0  0  0  0  0  0
   -5.3570   -2.3280    1.8385 H   0  0  0  0  0  0  0  0  0  0  0  0
   -0.3880   -2.2155    1.5820 H   0  0  0  0  0  0  0  0  0  0  0  0
    1.1770    0.8420   -1.2044 H   0  0  0  0  0  0  0  0  0  0  0  0
    3.6553    0.9095   -1.3827 H   0  0  0  0  0  0  0  0  0  0  0  0
    5.8597   -0.7627    1.1578 H   0  0  0  0  0  0  0  0  0  0  0  0
    5.2089   -0.4351   -1.8168 H   0  0  0  0  0  0  0  0  0  0  0  0
    5.6616   -1.9109   -0.9276 H   0  0  0  0  0  0  0  0  0  0  0  0
    7.9368   -1.3850   -0.7537 H   0  0  0  0  0  0  0  0  0  0  0  0
    7.4811   -0.8269   -2.3768 H   0  0  0  0  0  0  0  0  0  0  0  0
    7.5943    1.3858   -1.7545 H   0  0  0  0  0  0  0  0  0  0  0  0
    7.8175    0.3999    1.0406 H   0  0  0  0  0  0  0  0  0  0  0  0
    7.9257    2.1407    0.4600 H   0  0  0  0  0  0  0  0  0  0  0  0
    5.6052    1.6369    1.3836 H   0  0  0  0  0  0  0  0  0  0  0  0
    5.5503    1.8482   -0.4070 H   0  0  0  0  0  0  0  0  0  0  0  0
    3.8936   -1.4005    2.2039 H   0  0  0  0  0  0  0  0  0  0  0  0
    1.4626   -1.4585    2.3659 H   0  0  0  0  0  0  0  0  0  0  0  0
   -0.5043    1.6082   -0.2906 H   0  0  0  0  0  0  0  0  0  0  0  0
   -5.4836    1.3497    2.3889 H   0  0  0  0  0  0  0  0  0  0  0  0
   -7.3186    2.8428    1.6364 H   0  0  0  0  0  0  0  0  0  0  0  0
   -8.3446    1.5783   -2.7046 H   0  0  0  0  0  0  0  0  0  0  0  0
  1  2  2  0
  2  3  1  0
  3  4  2  0
  4  5  1  0
  5  6  1  0
  6  7  1  0
  7  8  2  0
  8  9  1  0
  9 10  1  0
 10 11  2  0
 11 12  1  0
 12 13  2  0
 13 14  1  0
 14 15  2  0
 15 16  1  0
 16 17  1  0
 17 18  1  0
 18 19  1  0
 19 20  1  0
 20 21  1  0
 15 22  1  0
 22 23  2  0
 11 24  1  0
 24 25  2  0
 25 26  1  0
  5 27  2  0
 27 28  1  0
 28 29  2  0
 29 30  1  0
 30 31  2  0
 31  1  1  0
 30  4  1  0
 26  6  2  0
 26  9  1  0
 23 12  1  0
 21 16  1  0
  1 32  1  0
  2 33  1  0
  3 34  1  0
  7 35  1  0
 10 36  1  0
 13 37  1  0
 14 38  1  0
 16 39  1  0
 17 40  1  0
 17 41  1  0
 18 42  1  0
 18 43  1  0
 19 44  1  0
 20 45  1  0
 20 46  1  0
 21 47  1  0
 21 48  1  0
 22 49  1  0
 23 50  1  0
 24 51  1  0
 27 52  1  0
 28 53  1  0
 31 54  1  0
M  END
$$$$
