@<TRIPOS>MOLECULE
*****
 54 59 0 0 0
SMALL
GASTEIGER

@<TRIPOS>ATOM
      1 C          -7.0814   -0.0275   -3.2652 C.ar    1  UNL1       -0.0597
      2 C          -6.0609   -0.8712   -2.8716 C.ar    1  UNL1       -0.0611
      3 C          -5.5176   -0.7578   -1.6119 C.ar    1  UNL1       -0.0520
      4 C          -5.9786    0.2016   -0.7103 C.ar    1  UNL1        0.0082
      5 C          -5.4256    0.3044    0.5488 C.ar    1  UNL1       -0.0022
      6 C          -4.3458   -0.5973    0.9478 C.ar    1  UNL1        0.0467
      7 C          -4.4281   -1.8350    1.5588 C.ar    1  UNL1        0.0597
      8 N          -3.1643   -2.2560    1.7143 N.ar    1  UNL1       -0.1727
      9 N          -2.3106   -1.3638    1.2416 N.ar    1  UNL1       -0.2206
     10 C          -0.9501   -1.3830    1.1960 C.ar    1  UNL1        0.0406
     11 C          -0.2635   -0.3200    0.6463 C.ar    1  UNL1        0.0184
     12 C           1.1988   -0.3059    0.5807 C.ar    1  UNL1       -0.0150
     13 C           1.8014    0.3539   -0.4636 C.ar    1  UNL1       -0.0537
     14 C           3.1763    0.3856   -0.5536 C.ar    1  UNL1       -0.0577
     15 C           3.9691   -0.2338    0.3867 C.ar    1  UNL1       -0.0442
     16 C           5.4314   -0.2099    0.3064 C.3     1  UNL1       -0.0136
     17 C           5.8475   -0.8089   -1.0194 C.3     1  UNL1       -0.0336
     18 C           7.3200   -0.6281   -1.2968 C.3     1  UNL1       -0.0036
     19 N           7.7803    0.7024   -1.0128 N.3     1  UNL1       -0.3159
     20 C           7.4547    1.1472    0.3144 C.3     1  UNL1       -0.0036
     21 C           5.9462    1.2216    0.4238 C.3     1  UNL1       -0.0336
     22 C           3.3289   -0.8857    1.4196 C.ar    1  UNL1       -0.0577
     23 C           1.9596   -0.9354    1.5375 C.ar    1  UNL1       -0.0537
     24 C          -0.9901    0.7441    0.1533 C.ar    1  UNL1        0.0391
     25 N          -2.3379    0.7296    0.2149 N.ar    1  UNL1       -0.2350
     26 C          -3.0046   -0.3175    0.7560 C.ar    1  UNL1        0.1632
     27 C          -5.9227    1.2706    1.3939 C.ar    1  UNL1       -0.0351
     28 C          -6.9405    2.0852    0.9509 C.ar    1  UNL1        0.0288
     29 N          -7.4532    1.9569   -0.2779 N.ar    1  UNL1       -0.2549
     30 C          -6.9976    1.0249   -1.1393 C.ar    1  UNL1        0.0715
     31 C          -7.5474    0.9224   -2.3912 C.ar    1  UNL1       -0.0357
     32 H          -7.5389   -0.0792   -4.2441 H       1  UNL1        0.0618
     33 H          -5.6832   -1.6332   -3.5656 H       1  UNL1        0.0618
     34 H          -4.7055   -1.4200   -1.2814 H       1  UNL1        0.0624
     35 H          -5.3570   -2.3280    1.8385 H       1  UNL1        0.0855
     36 H          -0.3880   -2.2155    1.5820 H       1  UNL1        0.0837
     37 H           1.1770    0.8420   -1.2044 H       1  UNL1        0.0624
     38 H           3.6553    0.9095   -1.3827 H       1  UNL1        0.0621
     39 H           5.8597   -0.7627    1.1578 H       1  UNL1        0.0350
     40 H           5.2089   -0.4351   -1.8168 H       1  UNL1        0.0283
     41 H           5.6616   -1.9109   -0.9276 H       1  UNL1        0.0283
     42 H           7.9368   -1.3850   -0.7537 H       1  UNL1        0.0424
     43 H           7.4811   -0.8269   -2.3768 H       1  UNL1        0.0424
     44 H           7.5943    1.3858   -1.7545 H       1  UNL1        0.1219
     45 H           7.8175    0.3999    1.0406 H       1  UNL1        0.0424
     46 H           7.9257    2.1407    0.4600 H       1  UNL1        0.0424
     47 H           5.6052    1.6369    1.3836 H       1  UNL1        0.0283
     48 H           5.5503    1.8482   -0.4070 H       1  UNL1        0.0283
     49 H           3.8936   -1.4005    2.2039 H       1  UNL1        0.0621
     50 H           1.4626   -1.4585    2.3659 H       1  UNL1        0.0624
     51 H          -0.5043    1.6082   -0.2906 H       1  UNL1        0.0837
     52 H          -5.4836    1.3497    2.3889 H       1  UNL1        0.0639
     53 H          -7.3186    2.8428    1.6364 H       1  UNL1        0.0830
     54 H          -8.3446    1.5783   -2.7046 H       1  UNL1        0.0639
@<TRIPOS>BOND
     1     1     2   ar
     2     2     3   ar
     3     3     4   ar
     4     4     5   ar
     5     5     6    1
     6     6     7   ar
     7     7     8   ar
     8     8     9   ar
     9     9    10   ar
    10    10    11   ar
    11    11    12    1
    12    12    13   ar
    13    13    14   ar
    14    14    15   ar
    15    15    16    1
    16    16    17    1
    17    17    18    1
    18    18    19    1
    19    19    20    1
    20    20    21    1
    21    15    22   ar
    22    22    23   ar
    23    11    24   ar
    24    24    25   ar
    25    25    26   ar
    26     5    27   ar
    27    27    28   ar
    28    28    29   ar
    29    29    30   ar
    30    30    31   ar
    31    31     1   ar
    32    30     4   ar
    33    26     6   ar
    34    26     9   ar
    35    23    12   ar
    36    21    16    1
    37     1    32    1
    38     2    33    1
    39     3    34    1
    40     7    35    1
    41    10    36    1
    42    13    37    1
    43    14    38    1
    44    16    39    1
    45    17    40    1
    46    17    41    1
    47    18    42    1
    48    18    43    1
    49    19    44    1
    50    20    45    1
    51    20    46    1
    52    21    47    1
    53    21    48    1
    54    22    49    1
    55    23    50    1
    56    24    51    1
    57    27    52    1
    58    28    53    1
    59    31    54    1
