@<TRIPOS>MOLECULE
*****
 60 63 0 0 0
SMALL
GASTEIGER

@<TRIPOS>ATOM
      1 C           4.2337   -0.7294    0.2752 C.3     1  UNL1        0.0600
      2 C           5.4183   -1.4724    0.7905 C.3     1  UNL1        0.0650
      3 O           6.1296   -0.7338    1.7560 O.3     1  UNL1       -0.3930
      4 C           3.2162   -0.3601    1.3015 C.3     1  UNL1       -0.0119
      5 C           2.5887   -1.4924    2.0407 C.3     1  UNL1        0.0252
      6 N           1.8828   -2.4119    1.1688 N.ar    1  UNL1       -0.3465
      7 C           2.3664   -3.5071    0.5577 C.ar    1  UNL1        0.0057
      8 C           1.4058   -4.1476   -0.1992 C.ar    1  UNL1       -0.0364
      9 C           0.2746   -3.3933   -0.0346 C.ar    1  UNL1       -0.0000
     10 C           0.5681   -2.3356    0.7999 C.ar    1  UNL1        0.0508
     11 C          -0.3884   -1.4094    1.1408 C.ar    1  UNL1       -0.0164
     12 C          -1.6884   -1.4644    0.6846 C.ar    1  UNL1        0.0354
     13 N          -2.6262   -0.4812    1.0714 N.am    1  UNL1       -0.2854
     14 C          -3.9852   -0.3393    0.7340 C.2     1  UNL1        0.2175
     15 O          -4.4732   -1.2015   -0.0262 O.2     1  UNL1       -0.2755
     16 C          -4.7167    0.7917    1.2901 C.3     1  UNL1        0.0282
     17 C          -6.1398    0.9332    0.8975 C.3     1  UNL1       -0.0194
     18 C          -6.4224    1.1040   -0.5242 C.ar    1  UNL1       -0.0469
     19 C          -6.7620    0.1952   -1.5024 C.ar    1  UNL1       -0.0586
     20 C          -6.9782    0.5212   -2.8126 C.ar    1  UNL1       -0.0615
     21 C          -6.8635    1.8195   -3.2318 C.ar    1  UNL1       -0.0617
     22 C          -6.5273    2.7906   -2.3142 C.ar    1  UNL1       -0.0615
     23 C          -6.3204    2.4132   -1.0130 C.ar    1  UNL1       -0.0586
     24 C          -1.9279   -2.5365   -0.1426 C.ar    1  UNL1       -0.0398
     25 C          -1.0045   -3.4893   -0.5128 C.ar    1  UNL1       -0.0508
     26 N           4.7484    0.5386   -0.2649 N.ar    1  UNL1       -0.3308
     27 C           5.7808    0.5394   -1.1342 C.ar    1  UNL1        0.0971
     28 N           6.0727    1.8065   -1.4867 N.ar    1  UNL1       -0.2311
     29 C           5.2235    2.6253   -0.8407 C.ar    1  UNL1        0.1428
     30 C           4.3900    1.8278   -0.0717 C.ar    1  UNL1        0.0368
     31 C           5.0795    4.0892   -0.8427 C.2     1  UNL1        0.2613
     32 N           5.9790    4.8100   -1.6610 N.am    1  UNL1       -0.3240
     33 O           4.2591    4.7717   -0.2093 O.2     1  UNL1       -0.2687
     34 H           3.8186   -1.2697   -0.5843 H       1  UNL1        0.0551
     35 H           5.2408   -2.5034    1.1171 H       1  UNL1        0.0578
     36 H           6.1320   -1.5569   -0.0689 H       1  UNL1        0.0578
     37 H           5.6078   -0.5788    2.5753 H       1  UNL1        0.2095
     38 H           3.5636    0.4202    2.0045 H       1  UNL1        0.0303
     39 H           2.3758    0.1415    0.7359 H       1  UNL1        0.0303
     40 H           1.8349   -1.0437    2.7222 H       1  UNL1        0.0492
     41 H           3.2922   -2.0241    2.7182 H       1  UNL1        0.0492
     42 H           3.3719   -3.9025    0.6047 H       1  UNL1        0.0809
     43 H           1.5159   -5.0480   -0.7940 H       1  UNL1        0.0639
     44 H          -0.0876   -0.6028    1.8020 H       1  UNL1        0.0657
     45 H          -2.2427    0.2685    1.7194 H       1  UNL1        0.1548
     46 H          -4.2124    1.7715    1.1243 H       1  UNL1        0.0362
     47 H          -4.7107    0.6882    2.4182 H       1  UNL1        0.0362
     48 H          -6.5279    1.8460    1.4424 H       1  UNL1        0.0318
     49 H          -6.7789    0.1000    1.2798 H       1  UNL1        0.0318
     50 H          -6.8635   -0.8230   -1.1626 H       1  UNL1        0.0620
     51 H          -7.2407   -0.2734   -3.5013 H       1  UNL1        0.0618
     52 H          -7.0272    2.1128   -4.2591 H       1  UNL1        0.0618
     53 H          -6.4387    3.8070   -2.6477 H       1  UNL1        0.0618
     54 H          -6.0584    3.2388   -0.3499 H       1  UNL1        0.0620
     55 H          -2.9017   -2.6947   -0.5662 H       1  UNL1        0.0636
     56 H          -1.2275   -4.3072   -1.1569 H       1  UNL1        0.0625
     57 H           6.3979   -0.2147   -1.5903 H       1  UNL1        0.1029
     58 H           3.5850    2.0817    0.5847 H       1  UNL1        0.0833
     59 H           5.9792    4.8587   -2.7187 H       1  UNL1        0.1453
     60 H           6.8093    5.4363   -1.5697 H       1  UNL1        0.1453
@<TRIPOS>BOND
     1     1     2    1
     2     2     3    1
     3     1     4    1
     4     4     5    1
     5     5     6    1
     6     6     7   ar
     7     7     8   ar
     8     8     9   ar
     9     9    10   ar
    10    10    11   ar
    11    11    12   ar
    12    12    13    1
    13    13    14   am
    14    14    15    2
    15    14    16    1
    16    16    17    1
    17    17    18    1
    18    18    19   ar
    19    19    20   ar
    20    20    21   ar
    21    21    22   ar
    22    22    23   ar
    23    12    24   ar
    24    24    25   ar
    25     1    26    1
    26    26    27   ar
    27    27    28   ar
    28    28    29   ar
    29    29    30   ar
    30    29    31    1
    31    31    32   am
    32    31    33    2
    33    10     6   ar
    34    23    18   ar
    35    30    26   ar
    36    25     9   ar
    37     1    34    1
    38     2    35    1
    39     2    36    1
    40     3    37    1
    41     4    38    1
    42     4    39    1
    43     5    40    1
    44     5    41    1
    45     7    42    1
    46     8    43    1
    47    11    44    1
    48    13    45    1
    49    16    46    1
    50    16    47    1
    51    17    48    1
    52    17    49    1
    53    19    50    1
    54    20    51    1
    55    21    52    1
    56    22    53    1
    57    23    54    1
    58    24    55    1
    59    25    56    1
    60    27    57    1
    61    30    58    1
    62    32    59    1
    63    32    60    1
