
     RDKit          3D

 60 63  0  0  0  0  0  0  0  0999 V2000
    4.2337   -0.7294    0.2752 C   0  0  1  0  0  0  0  0  0  0  0  0
    5.4183   -1.4724    0.7905 C   0  0  0  0  0  0  0  0  0  0  0  0
    6.1296   -0.7338    1.7560 O   0  0  0  0  0  0  0  0  0  0  0  0
    3.2162   -0.3601    1.3015 C   0  0  0  0  0  0  0  0  0  0  0  0
    2.5887   -1.4924    2.0407 C   0  0  0  0  0  0  0  0  0  0  0  0
    1.8828   -2.4119    1.1688 N   0  0  0  0  0  0  0  0  0  0  0  0
    2.3664   -3.5071    0.5577 C   0  0  0  0  0  0  0  0  0  0  0  0
    1.4058   -4.1476   -0.1992 C   0  0  0  0  0  0  0  0  0  0  0  0
    0.2746   -3.3933   -0.0346 C   0  0  0  0  0  0  0  0  0  0  0  0
    0.5681   -2.3356    0.7999 C   0  0  0  0  0  0  0  0  0  0  0  0
   -0.3884   -1.4094    1.1408 C   0  0  0  0  0  0  0  0  0  0  0  0
   -1.6884   -1.4644    0.6846 C   0  0  0  0  0  0  0  0  0  0  0  0
   -2.6262   -0.4812    1.0714 N   0  0  0  0  0  0  0  0  0  0  0  0
   -3.9852   -0.3393    0.7340 C   0  0  0  0  0  0  0  0  0  0  0  0
   -4.4732   -1.2015   -0.0262 O   0  0  0  0  0  0  0  0  0  0  0  0
   -4.7167    0.7917    1.2901 C   0  0  0  0  0  0  0  0  0  0  0  0
   -6.1398    0.9332    0.8975 C   0  0  0  0  0  0  0  0  0  0  0  0
   -6.4224    1.1040   -0.5242 C   0  0  0  0  0  0  0  0  0  0  0  0
   -6.7620    0.1952   -1.5024 C   0  0  0  0  0  0  0  0  0  0  0  0
   -6.9782    0.5212   -2.8126 C   0  0  0  0  0  0  0  0  0  0  0  0
   -6.8635    1.8195   -3.2318 C   0  0  0  0  0  0  0  0  0  0  0  0
   -6.5273    2.7906   -2.3142 C   0  0  0  0  0  0  0  0  0  0  0  0
   -6.3204    2.4132   -1.0130 C   0  0  0  0  0  0  0  0  0  0  0  0
   -1.9279   -2.5365   -0.1426 C   0  0  0  0  0  0  0  0  0  0  0  0
   -1.0045   -3.4893   -0.5128 C   0  0  0  0  0  0  0  0  0  0  0  0
    4.7484    0.5386   -0.2649 N   0  0  0  0  0  0  0  0  0  0  0  0
    5.7808    0.5394   -1.1342 C   0  0  0  0  0  0  0  0  0  0  0  0
    6.0727    1.8065   -1.4867 N   0  0  0  0  0  0  0  0  0  0  0  0
    5.2235    2.6253   -0.8407 C   0  0  0  0  0  0  0  0  0  0  0  0
    4.3900    1.8278   -0.0717 C   0  0  0  0  0  0  0  0  0  0  0  0
    5.0795    4.0892   -0.8427 C   0  0  0  0  0  0  0  0  0  0  0  0
    5.9790    4.8100   -1.6610 N   0  0  0  0  0  0  0  0  0  0  0  0
    4.2591    4.7717   -0.2093 O   0  0  0  0  0  0  0  0  0  0  0  0
    3.8186   -1.2697   -0.5843 H   0  0  0  0  0  0  0  0  0  0  0  0
    5.2408   -2.5034    1.1171 H   0  0  0  0  0  0  0  0  0  0  0  0
    6.1320   -1.5569   -0.0689 H   0  0  0  0  0  0  0  0  0  0  0  0
    5.6078   -0.5788    2.5753 H   0  0  0  0  0  0  0  0  0  0  0  0
    3.5636    0.4202    2.0045 H   0  0  0  0  0  0  0  0  0  0  0  0
    2.3758    0.1415    0.7359 H   0  0  0  0  0  0  0  0  0  0  0  0
    1.8349   -1.0437    2.7222 H   0  0  0  0  0  0  0  0  0  0  0  0
    3.2922   -2.0241    2.7182 H   0  0  0  0  0  0  0  0  0  0  0  0
    3.3719   -3.9025    0.6047 H   0  0  0  0  0  0  0  0  0  0  0  0
    1.5159   -5.0480   -0.7940 H   0  0  0  0  0  0  0  0  0  0  0  0
   -0.0876   -0.6028    1.8020 H   0  0  0  0  0  0  0  0  0  0  0  0
   -2.2427    0.2685    1.7194 H   0  0  0  0  0  0  0  0  0  0  0  0
   -4.2124    1.7715    1.1243 H   0  0  0  0  0  0  0  0  0  0  0  0
   -4.7107    0.6882    2.4182 H   0  0  0  0  0  0  0  0  0  0  0  0
   -6.5279    1.8460    1.4424 H   0  0  0  0  0  0  0  0  0  0  0  0
   -6.7789    0.1000    1.2798 H   0  0  0  0  0  0  0  0  0  0  0  0
   -6.8635   -0.8230   -1.1626 H   0  0  0  0  0  0  0  0  0  0  0  0
   -7.2407   -0.2734   -3.5013 H   0  0  0  0  0  0  0  0  0  0  0  0
   -7.0272    2.1128   -4.2591 H   0  0  0  0  0  0  0  0  0  0  0  0
   -6.4387    3.8070   -2.6477 H   0  0  0  0  0  0  0  0  0  0  0  0
   -6.0584    3.2388   -0.3499 H   0  0  0  0  0  0  0  0  0  0  0  0
   -2.9017   -2.6947   -0.5662 H   0  0  0  0  0  0  0  0  0  0  0  0
   -1.2275   -4.3072   -1.1569 H   0  0  0  0  0  0  0  0  0  0  0  0
    6.3979   -0.2147   -1.5903 H   0  0  0  0  0  0  0  0  0  0  0  0
    3.5850    2.0817    0.5847 H   0  0  0  0  0  0  0  0  0  0  0  0
    5.9792    4.8587   -2.7187 H   0  0  0  0  0  0  0  0  0  0  0  0
    6.8093    5.4363   -1.5697 H   0  0  0  0  0  0  0  0  0  0  0  0
  1  2  1  0
  2  3  1  0
  1  4  1  0
  4  5  1  0
  5  6  1  0
  6  7  1  0
  7  8  2  0
  8  9  1  0
  9 10  2  0
 10 11  1  0
 11 12  2  0
 12 13  1  0
 13 14  1  0
 14 15  2  0
 14 16  1  0
 16 17  1  0
 17 18  1  0
 18 19  2  0
 19 20  1  0
 20 21  2  0
 21 22  1  0
 22 23  2  0
 12 24  1  0
 24 25  2  0
  1 26  1  0
 26 27  1  0
 27 28  2  0
 28 29  1  0
 29 30  2  0
 29 31  1  0
 31 32  1  0
 31 33  2  0
 10  6  1  0
 23 18  1  0
 30 26  1  0
 25  9  1  0
  1 34  1  6
  2 35  1  0
  2 36  1  0
  3 37  1  0
  4 38  1  0
  4 39  1  0
  5 40  1  0
  5 41  1  0
  7 42  1  0
  8 43  1  0
 11 44  1  0
 13 45  1  0
 16 46  1  0
 16 47  1  0
 17 48  1  0
 17 49  1  0
 19 50  1  0
 20 51  1  0
 21 52  1  0
 22 53  1  0
 23 54  1  0
 24 55  1  0
 25 56  1  0
 27 57  1  0
 30 58  1  0
 32 59  1  0
 32 60  1  0
M  END
$$$$
