
     RDKit          3D

108113  0  0  0  0  0  0  0  0999 V2000
   -4.9382   -5.0999    0.4464 C   0  0  0  0  0  0  0  0  0  0  0  0
   -4.0894   -4.0359    0.2424 O   0  0  0  0  0  0  0  0  0  0  0  0
   -3.3599   -3.6695    1.3265 C   0  0  1  0  0  0  0  0  0  0  0  0
   -1.8768   -3.6300    1.1114 C   0  0  0  0  0  0  0  0  0  0  0  0
   -1.0319   -3.4834    0.1127 C   0  0  0  0  0  0  0  0  0  0  0  0
    0.2918   -3.4542   -0.0164 O   0  0  0  0  0  0  0  0  0  0  0  0
    1.3450   -4.2826   -0.1953 C   0  0  1  0  0  0  0  0  0  0  0  0
    1.2629   -5.5624    0.5484 C   0  0  0  0  0  0  0  0  0  0  0  0
    1.6572   -4.5419   -1.5793 O   0  0  0  0  0  0  0  0  0  0  0  0
    1.9116   -3.2452   -2.1063 C   0  0  0  0  0  0  0  0  0  0  0  0
    1.6801   -2.6007   -3.2894 C   0  0  0  0  0  0  0  0  0  0  0  0
    1.0130   -3.2931   -4.4092 C   0  0  0  0  0  0  0  0  0  0  0  0
    2.0714   -1.2980   -3.4506 C   0  0  0  0  0  0  0  0  0  0  0  0
    1.8903   -0.5492   -4.5955 O   0  0  0  0  0  0  0  0  0  0  0  0
    2.6985   -0.7213   -2.3389 C   0  0  0  0  0  0  0  0  0  0  0  0
    3.1162    0.6232   -2.3830 C   0  0  0  0  0  0  0  0  0  0  0  0
    2.8749    1.2686   -3.6030 O   0  0  0  0  0  0  0  0  0  0  0  0
    3.7313    1.3209   -1.3331 C   0  0  0  0  0  0  0  0  0  0  0  0
    3.8939    2.6158   -1.8874 N   0  0  0  0  0  0  0  0  0  0  0  0
    3.0455    3.7207   -2.0599 C   0  0  0  0  0  0  0  0  0  0  0  0
    2.2121    3.0114   -1.5285 O   0  0  0  0  0  0  0  0  0  0  0  0
    2.2541    4.9006   -2.2791 C   0  0  0  0  0  0  0  0  0  0  0  0
    3.3509    5.6356   -2.9115 C   0  0  0  0  0  0  0  0  0  0  0  0
    1.0307    5.3481   -2.0785 C   0  0  0  0  0  0  0  0  0  0  0  0
    0.1174    4.4402   -1.4385 C   0  0  0  0  0  0  0  0  0  0  0  0
   -0.6305    3.5462   -0.8536 C   0  0  0  0  0  0  0  0  0  0  0  0
   -2.0513    3.4311   -0.3855 C   0  0  2  0  0  0  0  0  0  0  0  0
   -2.6991    4.8040   -0.6753 C   0  0  0  0  0  0  0  0  0  0  0  0
   -2.2017    3.2052    1.0589 C   0  0  2  0  0  0  0  0  0  0  0  0
   -1.5749    4.3459    1.6541 O   0  0  0  0  0  0  0  0  0  0  0  0
   -1.7093    1.9683    1.6857 C   0  0  1  0  0  0  0  0  0  0  0  0
   -1.9438    1.9741    3.2088 C   0  0  0  0  0  0  0  0  0  0  0  0
   -2.0236    0.6472    1.1591 C   0  0  1  0  0  0  0  0  0  0  0  0
   -1.3433   -0.3139    1.8928 O   0  0  0  0  0  0  0  0  0  0  0  0
   -3.4138    0.1727    0.9643 C   0  0  1  0  0  0  0  0  0  0  0  0
   -4.3086    0.8429    0.0271 C   0  0  0  0  0  0  0  0  0  0  0  0
   -3.3676   -1.3206    0.6774 C   0  0  2  0  0  0  0  0  0  0  0  0
   -4.5770   -1.5096   -0.1531 O   0  0  0  0  0  0  0  0  0  0  0  0
   -4.4313   -1.9121   -1.4715 C   0  0  0  0  0  0  0  0  0  0  0  0
   -5.6236   -2.1144   -2.3461 C   0  0  0  0  0  0  0  0  0  0  0  0
   -3.3611   -2.1517   -2.0938 O   0  0  0  0  0  0  0  0  0  0  0  0
   -3.6818   -2.2288    1.8172 C   0  0  2  0  0  0  0  0  0  0  0  0
   -3.0368   -2.0672    3.1349 C   0  0  0  0  0  0  0  0  0  0  0  0
    3.9585    0.6539   -0.1591 C   0  0  0  0  0  0  0  0  0  0  0  0
    3.5507   -0.6506   -0.1243 C   0  0  0  0  0  0  0  0  0  0  0  0
    3.9035   -1.0394    1.1084 N   0  0  0  0  0  0  0  0  0  0  0  0
    4.4881   -0.0822    1.8151 C   0  0  0  0  0  0  0  0  0  0  0  0
    5.0143   -0.0324    3.0902 C   0  0  0  0  0  0  0  0  0  0  0  0
    5.5924    1.1347    3.5677 C   0  0  0  0  0  0  0  0  0  0  0  0
    6.2083    1.3029    4.9187 C   0  0  0  0  0  0  0  0  0  0  0  0
    5.6036    2.2087    2.7079 C   0  0  0  0  0  0  0  0  0  0  0  0
    5.0778    2.1486    1.4422 C   0  0  0  0  0  0  0  0  0  0  0  0
    4.5198    0.9813    1.0124 N   0  0  0  0  0  0  0  0  0  0  0  0
    2.9440   -1.3521   -1.1355 C   0  0  0  0  0  0  0  0  0  0  0  0
    2.5475   -2.6443   -1.0056 C   0  0  0  0  0  0  0  0  0  0  0  0
    2.6637   -3.5823    0.1400 C   0  0  0  0  0  0  0  0  0  0  0  0
    3.5585   -3.6836    1.0100 O   0  0  0  0  0  0  0  0  0  0  0  0
   -4.4115   -6.0329    0.7601 H   0  0  0  0  0  0  0  0  0  0  0  0
   -5.7350   -4.8864    1.2075 H   0  0  0  0  0  0  0  0  0  0  0  0
   -5.4398   -5.3263   -0.5332 H   0  0  0  0  0  0  0  0  0  0  0  0
   -3.5866   -4.3193    2.1906 H   0  0  0  0  0  0  0  0  0  0  0  0
   -1.2520   -3.7651    2.0020 H   0  0  0  0  0  0  0  0  0  0  0  0
   -1.1725   -3.3384   -0.9472 H   0  0  0  0  0  0  0  0  0  0  0  0
    1.1448   -5.3544    1.6390 H   0  0  0  0  0  0  0  0  0  0  0  0
    2.1733   -6.1841    0.3483 H   0  0  0  0  0  0  0  0  0  0  0  0
    0.3411   -6.1007    0.1980 H   0  0  0  0  0  0  0  0  0  0  0  0
    1.6819   -3.2479   -5.3138 H   0  0  0  0  0  0  0  0  0  0  0  0
    0.1276   -2.6932   -4.6945 H   0  0  0  0  0  0  0  0  0  0  0  0
    0.7809   -4.3458   -4.1978 H   0  0  0  0  0  0  0  0  0  0  0  0
    2.5102   -0.7511   -5.3721 H   0  0  0  0  0  0  0  0  0  0  0  0
    3.6210    1.4934   -4.2589 H   0  0  0  0  0  0  0  0  0  0  0  0
    4.8350    2.7505   -2.2665 H   0  0  0  0  0  0  0  0  0  0  0  0
    3.0170    6.7242   -3.0232 H   0  0  0  0  0  0  0  0  0  0  0  0
    3.5831    5.2792   -3.9458 H   0  0  0  0  0  0  0  0  0  0  0  0
    4.2977    5.7258   -2.3673 H   0  0  0  0  0  0  0  0  0  0  0  0
    1.0130    6.3409   -2.4655 H   0  0  0  0  0  0  0  0  0  0  0  0
   -0.6598    5.2014   -1.5250 H   0  0  0  0  0  0  0  0  0  0  0  0
   -0.2482    2.5480   -0.5568 H   0  0  0  0  0  0  0  0  0  0  0  0
   -2.5277    2.7636   -1.0934 H   0  0  0  0  0  0  0  0  0  0  0  0
   -2.9193    4.9010   -1.7374 H   0  0  0  0  0  0  0  0  0  0  0  0
   -2.1235    5.6039   -0.2067 H   0  0  0  0  0  0  0  0  0  0  0  0
   -3.6580    4.7563   -0.0974 H   0  0  0  0  0  0  0  0  0  0  0  0
   -3.2638    3.3767    1.3955 H   0  0  0  0  0  0  0  0  0  0  0  0
   -0.6931    3.9948    1.9642 H   0  0  0  0  0  0  0  0  0  0  0  0
   -0.5751    2.0445    1.6211 H   0  0  0  0  0  0  0  0  0  0  0  0
   -1.0371    1.7066    3.7847 H   0  0  0  0  0  0  0  0  0  0  0  0
   -2.7400    1.2694    3.5083 H   0  0  0  0  0  0  0  0  0  0  0  0
   -2.1698    3.0213    3.5460 H   0  0  0  0  0  0  0  0  0  0  0  0
   -1.4444    0.5749    0.1517 H   0  0  0  0  0  0  0  0  0  0  0  0
   -0.8857    0.0495    2.6848 H   0  0  0  0  0  0  0  0  0  0  0  0
   -3.9623    0.2043    1.9730 H   0  0  0  0  0  0  0  0  0  0  0  0
   -3.8641    0.7617   -1.0075 H   0  0  0  0  0  0  0  0  0  0  0  0
   -5.2606    0.2650   -0.0535 H   0  0  0  0  0  0  0  0  0  0  0  0
   -4.5953    1.8697    0.1608 H   0  0  0  0  0  0  0  0  0  0  0  0
   -2.5037   -1.5801    0.0546 H   0  0  0  0  0  0  0  0  0  0  0  0
   -5.5205   -3.0197   -2.9762 H   0  0  0  0  0  0  0  0  0  0  0  0
   -6.5267   -2.2639   -1.7253 H   0  0  0  0  0  0  0  0  0  0  0  0
   -5.7896   -1.1877   -2.9491 H   0  0  0  0  0  0  0  0  0  0  0  0
   -4.8143   -2.1998    1.9948 H   0  0  0  0  0  0  0  0  0  0  0  0
   -3.6040   -2.7160    3.9229 H   0  0  0  0  0  0  0  0  0  0  0  0
   -3.2275   -1.0499    3.5879 H   0  0  0  0  0  0  0  0  0  0  0  0
   -2.0201   -2.4145    3.2710 H   0  0  0  0  0  0  0  0  0  0  0  0
    5.0046   -0.8721    3.7644 H   0  0  0  0  0  0  0  0  0  0  0  0
    5.7962    2.2308    5.3613 H   0  0  0  0  0  0  0  0  0  0  0  0
    6.0177    0.4359    5.5660 H   0  0  0  0  0  0  0  0  0  0  0  0
    7.3253    1.4866    4.8255 H   0  0  0  0  0  0  0  0  0  0  0  0
    6.0452    3.1392    3.0398 H   0  0  0  0  0  0  0  0  0  0  0  0
    5.1118    3.0297    0.7959 H   0  0  0  0  0  0  0  0  0  0  0  0
  1  2  1  0
  2  3  1  0
  3  4  1  0
  4  5  2  0
  5  6  1  0
  6  7  1  0
  7  8  1  1
  7  9  1  0
  9 10  1  0
 10 11  2  0
 11 12  1  0
 11 13  1  0
 13 14  1  0
 13 15  2  0
 15 16  1  0
 16 17  1  0
 16 18  2  0
 18 19  1  0
 19 20  1  0
 20 21  2  0
 20 22  1  0
 22 23  1  0
 22 24  2  0
 24 25  1  0
 25 26  2  0
 26 27  1  0
 27 28  1  0
 27 29  1  0
 29 30  1  0
 29 31  1  0
 31 32  1  0
 31 33  1  0
 33 34  1  0
 33 35  1  0
 35 36  1  0
 35 37  1  0
 37 38  1  0
 38 39  1  0
 39 40  1  0
 39 41  2  0
 37 42  1  0
 42 43  1  0
 18 44  1  0
 44 45  2  0
 45 46  1  0
 46 47  2  0
 47 48  1  0
 48 49  2  0
 49 50  1  0
 49 51  1  0
 51 52  2  0
 52 53  1  0
 45 54  1  0
 54 55  2  0
 55 56  1  0
 56 57  2  0
 42  3  1  0
 53 44  1  0
 56  7  1  0
 55 10  1  0
 54 15  1  0
 53 47  1  0
  1 58  1  0
  1 59  1  0
  1 60  1  0
  3 61  1  1
  4 62  1  0
  5 63  1  0
  8 64  1  0
  8 65  1  0
  8 66  1  0
 12 67  1  0
 12 68  1  0
 12 69  1  0
 14 70  1  0
 17 71  1  0
 19 72  1  0
 23 73  1  0
 23 74  1  0
 23 75  1  0
 24 76  1  0
 25 77  1  0
 26 78  1  0
 27 79  1  6
 28 80  1  0
 28 81  1  0
 28 82  1  0
 29 83  1  6
 30 84  1  0
 31 85  1  1
 32 86  1  0
 32 87  1  0
 32 88  1  0
 33 89  1  6
 34 90  1  0
 35 91  1  1
 36 92  1  0
 36 93  1  0
 36 94  1  0
 37 95  1  6
 40 96  1  0
 40 97  1  0
 40 98  1  0
 42 99  1  1
 43100  1  0
 43101  1  0
 43102  1  0
 48103  1  0
 50104  1  0
 50105  1  0
 50106  1  0
 51107  1  0
 52108  1  0
M  END
$$$$
