@<TRIPOS>MOLECULE
*****
 46 48 0 0 0
SMALL
GASTEIGER

@<TRIPOS>ATOM
      1 C           3.7076   -0.3311   -1.3803 C.3     1  UNL1        0.0813
      2 C           4.3082    1.0415   -1.4032 C.3     1  UNL1       -0.0262
      3 C           4.4854    1.3525    0.0627 C.3     1  UNL1       -0.0351
      4 C           3.6137    0.3649    0.7742 C.3     1  UNL1        0.0155
      5 N           2.7833   -0.2500   -0.2603 N.am    1  UNL1       -0.2903
      6 C           1.4404   -0.6537   -0.1806 C.2     1  UNL1        0.2368
      7 O           0.9227   -1.1694   -1.2182 O.2     1  UNL1       -0.2735
      8 C           0.7199   -0.4580    1.0855 C.3     1  UNL1        0.1055
      9 C           1.2131   -1.4254    2.1638 C.3     1  UNL1       -0.0242
     10 C           0.5877   -2.7261    1.7094 C.3     1  UNL1       -0.0349
     11 C          -0.6089   -2.3815    0.8580 C.3     1  UNL1        0.0187
     12 N          -0.6682   -0.9365    0.9865 N.am    1  UNL1       -0.2559
     13 C          -1.9000   -0.2215    1.0018 C.2     1  UNL1        0.4038
     14 O          -2.7692   -1.1144    0.8862 O.2     1  UNL1       -0.2262
     15 O          -2.0441    1.1216    1.1177 O.3     1  UNL1       -0.4455
     16 C          -3.3071    1.7295    1.1206 C.3     1  UNL1        0.1191
     17 C          -4.0650    1.4854   -0.1159 C.ar    1  UNL1       -0.0103
     18 C          -4.9976    0.5354   -0.4317 C.ar    1  UNL1       -0.0554
     19 C          -5.5903    0.4584   -1.6550 C.ar    1  UNL1       -0.0614
     20 C          -5.2864    1.3437   -2.6682 C.ar    1  UNL1       -0.0617
     21 C          -4.3602    2.3112   -2.3997 C.ar    1  UNL1       -0.0614
     22 C          -3.7768    2.3658   -1.1553 C.ar    1  UNL1       -0.0554
     23 C           4.7032   -1.4140   -1.1512 C.2     1  UNL1        0.1406
     24 O           5.5759   -2.2618   -1.0964 O.2     1  UNL1       -0.2991
     25 H           3.1251   -0.5228   -2.3072 H       1  UNL1        0.0576
     26 H           3.5395    1.7279   -1.8153 H       1  UNL1        0.0288
     27 H           5.2523    1.0678   -1.9678 H       1  UNL1        0.0288
     28 H           5.5654    1.2566    0.3106 H       1  UNL1        0.0281
     29 H           4.1315    2.3938    0.2956 H       1  UNL1        0.0281
     30 H           4.2232   -0.4200    1.2429 H       1  UNL1        0.0465
     31 H           2.9034    0.8568    1.4741 H       1  UNL1        0.0465
     32 H           0.7809    0.5628    1.4790 H       1  UNL1        0.0598
     33 H           2.2986   -1.5112    2.1917 H       1  UNL1        0.0288
     34 H           0.8244   -1.0936    3.1383 H       1  UNL1        0.0288
     35 H           1.3579   -3.2821    1.1545 H       1  UNL1        0.0281
     36 H           0.2361   -3.3164    2.5839 H       1  UNL1        0.0281
     37 H          -1.5265   -2.8683    1.2496 H       1  UNL1        0.0466
     38 H          -0.4881   -2.7279   -0.1820 H       1  UNL1        0.0466
     39 H          -3.1534    2.8097    1.2630 H       1  UNL1        0.0749
     40 H          -3.8971    1.3509    1.9919 H       1  UNL1        0.0749
     41 H          -5.2322   -0.1456    0.3762 H       1  UNL1        0.0621
     42 H          -6.3141   -0.3384   -1.7859 H       1  UNL1        0.0618
     43 H          -5.7708    1.2598   -3.6273 H       1  UNL1        0.0618
     44 H          -4.1288    2.9971   -3.1937 H       1  UNL1        0.0618
     45 H          -3.0539    3.1774   -1.0550 H       1  UNL1        0.0621
     46 H           4.6393   -2.0007   -0.2199 H       1  UNL1        0.1046
@<TRIPOS>BOND
     1     1     2    1
     2     2     3    1
     3     3     4    1
     4     4     5    1
     5     5     6   am
     6     6     7    2
     7     6     8    1
     8     8     9    1
     9     9    10    1
    10    10    11    1
    11    11    12    1
    12    12    13   am
    13    13    14    2
    14    13    15    1
    15    15    16    1
    16    16    17    1
    17    17    18   ar
    18    18    19   ar
    19    19    20   ar
    20    20    21   ar
    21    21    22   ar
    22     1    23    1
    23    23    24    2
    24     5     1    1
    25    12     8    1
    26    22    17   ar
    27     1    25    1
    28     2    26    1
    29     2    27    1
    30     3    28    1
    31     3    29    1
    32     4    30    1
    33     4    31    1
    34     8    32    1
    35     9    33    1
    36     9    34    1
    37    10    35    1
    38    10    36    1
    39    11    37    1
    40    11    38    1
    41    16    39    1
    42    16    40    1
    43    18    41    1
    44    19    42    1
    45    20    43    1
    46    21    44    1
    47    22    45    1
    48    23    46    1
