
     RDKit          3D

 52 55  0  0  0  0  0  0  0  0999 V2000
    5.6331    0.2971   -1.4900 O   0  0  0  0  0  0  0  0  0  0  0  0
    6.0930    0.1963   -0.1904 C   0  0  0  0  0  0  0  0  0  0  0  0
    5.3938    1.0996    0.7948 C   0  0  0  0  0  0  0  0  0  0  0  0
    3.9952    0.8912    0.9384 N   0  0  0  0  0  0  0  0  0  0  0  0
    3.2842    1.2799   -0.2390 C   0  0  0  0  0  0  0  0  0  0  0  0
    2.4783    0.1232   -0.8018 C   0  0  0  0  0  0  0  0  0  0  0  0
    1.5486   -0.3123    0.1620 N   0  0  0  0  0  0  0  0  0  0  0  0
    0.6256   -1.3299   -0.2122 C   0  0  0  0  0  0  0  0  0  0  0  0
   -0.4543   -0.9475   -1.1759 C   0  0  0  0  0  0  0  0  0  0  0  0
   -1.3855    0.0794   -0.7505 C   0  0  0  0  0  0  0  0  0  0  0  0
   -2.6620    0.1116   -0.4544 C   0  0  0  0  0  0  0  0  0  0  0  0
   -3.3307    1.3292   -0.0637 C   0  0  0  0  0  0  0  0  0  0  0  0
   -2.6173    2.4956    0.1029 C   0  0  0  0  0  0  0  0  0  0  0  0
   -3.1354    3.6990    0.5100 C   0  0  0  0  0  0  0  0  0  0  0  0
   -4.4925    3.7569    0.7796 C   0  0  0  0  0  0  0  0  0  0  0  0
   -5.2420    2.6279    0.6295 C   0  0  0  0  0  0  0  0  0  0  0  0
   -4.6515    1.4775    0.2219 C   0  0  0  0  0  0  0  0  0  0  0  0
   -5.7677    0.0990    0.0324 S   0  0  0  0  0  0  0  0  0  0  0  0
   -4.7495   -1.2995   -0.3617 C   0  0  0  0  0  0  0  0  0  0  0  0
   -3.4164   -1.1021   -0.5650 C   0  0  0  0  0  0  0  0  0  0  0  0
   -2.7617   -2.2653   -0.8253 C   0  0  0  0  0  0  0  0  0  0  0  0
   -3.3405   -3.5392   -0.8934 C   0  0  0  0  0  0  0  0  0  0  0  0
   -2.5902   -5.1016   -1.2307 Cl  0  0  0  0  0  0  0  0  0  0  0  0
   -4.7029   -3.6241   -0.6730 C   0  0  0  0  0  0  0  0  0  0  0  0
   -5.4416   -2.4648   -0.3950 C   0  0  0  0  0  0  0  0  0  0  0  0
    2.1490   -0.5476    1.4264 C   0  0  0  0  0  0  0  0  0  0  0  0
    3.6450   -0.4162    1.4076 C   0  0  0  0  0  0  0  0  0  0  0  0
    6.4074    0.2982   -2.1176 H   0  0  0  0  0  0  0  0  0  0  0  0
    7.1713    0.5242   -0.1716 H   0  0  0  0  0  0  0  0  0  0  0  0
    6.0705   -0.8564    0.1772 H   0  0  0  0  0  0  0  0  0  0  0  0
    5.6689    2.1355    0.5154 H   0  0  0  0  0  0  0  0  0  0  0  0
    5.8908    0.9146    1.7811 H   0  0  0  0  0  0  0  0  0  0  0  0
    2.5042    2.0296    0.0943 H   0  0  0  0  0  0  0  0  0  0  0  0
    3.9237    1.7538   -1.0171 H   0  0  0  0  0  0  0  0  0  0  0  0
    3.1700   -0.7448   -1.0459 H   0  0  0  0  0  0  0  0  0  0  0  0
    2.0839    0.4244   -1.7899 H   0  0  0  0  0  0  0  0  0  0  0  0
    1.1935   -2.1829   -0.6674 H   0  0  0  0  0  0  0  0  0  0  0  0
    0.2223   -1.7375    0.7570 H   0  0  0  0  0  0  0  0  0  0  0  0
   -0.6494   -1.5928   -2.0430 H   0  0  0  0  0  0  0  0  0  0  0  0
    0.2314   -0.2504   -1.8813 H   0  0  0  0  0  0  0  0  0  0  0  0
   -0.8886    1.0315   -0.6413 H   0  0  0  0  0  0  0  0  0  0  0  0
   -1.5537    2.5966   -0.0677 H   0  0  0  0  0  0  0  0  0  0  0  0
   -2.5947    4.6184    0.6461 H   0  0  0  0  0  0  0  0  0  0  0  0
   -4.9455    4.6762    1.1053 H   0  0  0  0  0  0  0  0  0  0  0  0
   -6.2940    2.7126    0.8499 H   0  0  0  0  0  0  0  0  0  0  0  0
   -1.7665   -2.5351   -0.9552 H   0  0  0  0  0  0  0  0  0  0  0  0
   -5.2526   -4.5662   -0.7076 H   0  0  0  0  0  0  0  0  0  0  0  0
   -6.4976   -2.5764   -0.2270 H   0  0  0  0  0  0  0  0  0  0  0  0
    1.6858    0.0575    2.2388 H   0  0  0  0  0  0  0  0  0  0  0  0
    1.9219   -1.6139    1.6945 H   0  0  0  0  0  0  0  0  0  0  0  0
    4.0711   -0.5394    2.4424 H   0  0  0  0  0  0  0  0  0  0  0  0
    4.1219   -1.1904    0.7812 H   0  0  0  0  0  0  0  0  0  0  0  0
  1  2  1  0
  2  3  1  0
  3  4  1  0
  4  5  1  0
  5  6  1  0
  6  7  1  0
  7  8  1  0
  8  9  1  0
  9 10  1  0
 10 11  2  0
 11 12  1  0
 12 13  2  0
 13 14  1  0
 14 15  2  0
 15 16  1  0
 16 17  2  0
 17 18  1  0
 18 19  1  0
 19 20  2  0
 20 21  1  0
 21 22  2  0
 22 23  1  0
 22 24  1  0
 24 25  2  0
  7 26  1  0
 26 27  1  0
 27  4  1  0
 20 11  1  0
 17 12  1  0
 25 19  1  0
  1 28  1  0
  2 29  1  0
  2 30  1  0
  3 31  1  0
  3 32  1  0
  5 33  1  0
  5 34  1  0
  6 35  1  0
  6 36  1  0
  8 37  1  0
  8 38  1  0
  9 39  1  0
  9 40  1  0
 10 41  1  0
 13 42  1  0
 14 43  1  0
 15 44  1  0
 16 45  1  0
 21 46  1  0
 24 47  1  0
 25 48  1  0
 26 49  1  0
 26 50  1  0
 27 51  1  0
 27 52  1  0
M  END
$$$$
