@<TRIPOS>MOLECULE
*****
 52 55 0 0 0
SMALL
GASTEIGER

@<TRIPOS>ATOM
      1 O           5.6331    0.2971   -1.4900 O.3     1  UNL1       -0.3937
      2 C           6.0930    0.1963   -0.1904 C.3     1  UNL1        0.0569
      3 C           5.3938    1.0996    0.7948 C.3     1  UNL1        0.0222
      4 N           3.9952    0.8912    0.9384 N.3     1  UNL1       -0.2977
      5 C           3.2842    1.2799   -0.2390 C.3     1  UNL1        0.0118
      6 C           2.4783    0.1232   -0.8018 C.3     1  UNL1        0.0117
      7 N           1.5486   -0.3123    0.1620 N.3     1  UNL1       -0.2996
      8 C           0.6256   -1.3299   -0.2122 C.3     1  UNL1        0.0024
      9 C          -0.4543   -0.9475   -1.1759 C.3     1  UNL1       -0.0211
     10 C          -1.3855    0.0794   -0.7505 C.2     1  UNL1       -0.0745
     11 C          -2.6620    0.1116   -0.4544 C.2     1  UNL1       -0.0125
     12 C          -3.3307    1.3292   -0.0637 C.ar    1  UNL1       -0.0039
     13 C          -2.6173    2.4956    0.1029 C.ar    1  UNL1       -0.0530
     14 C          -3.1354    3.6990    0.5100 C.ar    1  UNL1       -0.0611
     15 C          -4.4925    3.7569    0.7796 C.ar    1  UNL1       -0.0607
     16 C          -5.2420    2.6279    0.6295 C.ar    1  UNL1       -0.0474
     17 C          -4.6515    1.4775    0.2219 C.ar    1  UNL1        0.0205
     18 S          -5.7677    0.0990    0.0324 S.3     1  UNL1       -0.0882
     19 C          -4.7495   -1.2995   -0.3617 C.ar    1  UNL1        0.0205
     20 C          -3.4164   -1.1021   -0.5650 C.ar    1  UNL1       -0.0025
     21 C          -2.7617   -2.2653   -0.8253 C.ar    1  UNL1       -0.0346
     22 C          -3.3405   -3.5392   -0.8934 C.ar    1  UNL1        0.0416
     23 CL         -2.5902   -5.1016   -1.2307 Cl      1  UNL1       -0.0835
     24 C          -4.7029   -3.6241   -0.6730 C.ar    1  UNL1       -0.0423
     25 C          -5.4416   -2.4648   -0.3950 C.ar    1  UNL1       -0.0460
     26 C           2.1490   -0.5476    1.4264 C.3     1  UNL1        0.0117
     27 C           3.6450   -0.4162    1.4076 C.3     1  UNL1        0.0118
     28 H           6.4074    0.2982   -2.1176 H       1  UNL1        0.2095
     29 H           7.1713    0.5242   -0.1716 H       1  UNL1        0.0570
     30 H           6.0705   -0.8564    0.1772 H       1  UNL1        0.0570
     31 H           5.6689    2.1355    0.5154 H       1  UNL1        0.0449
     32 H           5.8908    0.9146    1.7811 H       1  UNL1        0.0449
     33 H           2.5042    2.0296    0.0943 H       1  UNL1        0.0439
     34 H           3.9237    1.7538   -1.0171 H       1  UNL1        0.0439
     35 H           3.1700   -0.7448   -1.0459 H       1  UNL1        0.0439
     36 H           2.0839    0.4244   -1.7899 H       1  UNL1        0.0439
     37 H           1.1935   -2.1829   -0.6674 H       1  UNL1        0.0429
     38 H           0.2223   -1.7375    0.7570 H       1  UNL1        0.0429
     39 H          -0.6494   -1.5928   -2.0430 H       1  UNL1        0.0320
     40 H           0.2314   -0.2504   -1.8813 H       1  UNL1        0.0320
     41 H          -0.8886    1.0315   -0.6413 H       1  UNL1        0.0579
     42 H          -1.5537    2.5966   -0.0677 H       1  UNL1        0.0624
     43 H          -2.5947    4.6184    0.6461 H       1  UNL1        0.0618
     44 H          -4.9455    4.6762    1.1053 H       1  UNL1        0.0618
     45 H          -6.2940    2.7126    0.8499 H       1  UNL1        0.0629
     46 H          -1.7665   -2.5351   -0.9552 H       1  UNL1        0.0638
     47 H          -5.2526   -4.5662   -0.7076 H       1  UNL1        0.0632
     48 H          -6.4976   -2.5764   -0.2270 H       1  UNL1        0.0629
     49 H           1.6858    0.0575    2.2388 H       1  UNL1        0.0439
     50 H           1.9219   -1.6139    1.6945 H       1  UNL1        0.0439
     51 H           4.0711   -0.5394    2.4424 H       1  UNL1        0.0439
     52 H           4.1219   -1.1904    0.7812 H       1  UNL1        0.0439
@<TRIPOS>BOND
     1     1     2    1
     2     2     3    1
     3     3     4    1
     4     4     5    1
     5     5     6    1
     6     6     7    1
     7     7     8    1
     8     8     9    1
     9     9    10    1
    10    10    11    2
    11    11    12    1
    12    12    13   ar
    13    13    14   ar
    14    14    15   ar
    15    15    16   ar
    16    16    17   ar
    17    17    18    1
    18    18    19    1
    19    19    20   ar
    20    20    21   ar
    21    21    22   ar
    22    22    23    1
    23    22    24   ar
    24    24    25   ar
    25     7    26    1
    26    26    27    1
    27    27     4    1
    28    20    11    1
    29    17    12   ar
    30    25    19   ar
    31     1    28    1
    32     2    29    1
    33     2    30    1
    34     3    31    1
    35     3    32    1
    36     5    33    1
    37     5    34    1
    38     6    35    1
    39     6    36    1
    40     8    37    1
    41     8    38    1
    42     9    39    1
    43     9    40    1
    44    10    41    1
    45    13    42    1
    46    14    43    1
    47    15    44    1
    48    16    45    1
    49    21    46    1
    50    24    47    1
    51    25    48    1
    52    26    49    1
    53    26    50    1
    54    27    51    1
    55    27    52    1
