@<TRIPOS>MOLECULE
*****
 40 43 0 0 0
SMALL
GASTEIGER

@<TRIPOS>ATOM
      1 C          -0.9744   -5.1472    0.4083 C.3     1  UNL1       -0.0584
      2 C          -0.4386   -4.2742    1.5287 C.3     1  UNL1        0.0026
      3 C          -0.3346   -2.8909    1.0004 C.ar    1  UNL1        0.1079
      4 N           0.7308   -2.3593    0.3939 N.ar    1  UNL1       -0.2319
      5 C           0.4525   -1.0935    0.0575 C.ar    1  UNL1        0.0968
      6 C           1.3366   -0.1584   -0.6196 C.ar    1  UNL1        0.0027
      7 C           1.0613    0.3797   -1.8581 C.ar    1  UNL1       -0.0525
      8 C           1.9273    1.2701   -2.4774 C.ar    1  UNL1       -0.0609
      9 C           3.0886    1.6437   -1.8739 C.ar    1  UNL1       -0.0588
     10 C           3.3890    1.1207   -0.6349 C.ar    1  UNL1       -0.0498
     11 C           4.6633    1.5466   -0.0011 C.3     1  UNL1       -0.0397
     12 C           2.5134    0.2220   -0.0114 C.ar    1  UNL1       -0.0496
     13 C          -0.8319   -0.8260    0.4687 C.ar    1  UNL1        0.0755
     14 C          -1.5742    0.4090    0.3256 C.ar    1  UNL1        0.0187
     15 C          -2.7489    0.4294   -0.4114 C.ar    1  UNL1       -0.0476
     16 C          -3.4990    1.5737   -0.5834 C.ar    1  UNL1       -0.0167
     17 C          -3.0407    2.7299    0.0112 C.ar    1  UNL1        0.1557
     18 N          -3.5416    3.9759    0.0232 N.ar    1  UNL1       -0.2149
     19 C          -2.7181    4.7551    0.7491 C.ar    1  UNL1        0.1390
     20 N          -1.7240    3.9591    1.1674 N.ar    1  UNL1       -0.1535
     21 N          -1.8894    2.7197    0.7360 N.ar    1  UNL1       -0.2198
     22 C          -1.1743    1.5884    0.8895 C.ar    1  UNL1        0.0406
     23 N          -1.2778   -1.9586    1.0431 N.ar    1  UNL1       -0.3413
     24 H          -2.0091   -4.8542    0.2381 H       1  UNL1        0.0234
     25 H          -0.3570   -4.9639   -0.5105 H       1  UNL1        0.0234
     26 H          -0.8461   -6.2087    0.6825 H       1  UNL1        0.0234
     27 H          -1.1647   -4.2593    2.3681 H       1  UNL1        0.0340
     28 H           0.5639   -4.6236    1.8505 H       1  UNL1        0.0340
     29 H           0.1410    0.0869   -2.3421 H       1  UNL1        0.0624
     30 H           1.6356    1.6470   -3.4512 H       1  UNL1        0.0618
     31 H           3.7569    2.3493   -2.3837 H       1  UNL1        0.0620
     32 H           4.6084    1.4979    1.1061 H       1  UNL1        0.0278
     33 H           5.5174    0.8811   -0.3191 H       1  UNL1        0.0278
     34 H           4.8952    2.5717   -0.3398 H       1  UNL1        0.0278
     35 H           2.7785   -0.1639    0.9497 H       1  UNL1        0.0627
     36 H          -3.1252   -0.4765   -0.8882 H       1  UNL1        0.0626
     37 H          -4.4196    1.5911   -1.1603 H       1  UNL1        0.0655
     38 H          -2.8690    5.8197    0.9345 H       1  UNL1        0.1066
     39 H          -0.2633    1.5864    1.4646 H       1  UNL1        0.0837
     40 H          -2.2378   -2.0961    1.4693 H       1  UNL1        0.1671
@<TRIPOS>BOND
     1     1     2    1
     2     2     3    1
     3     3     4   ar
     4     4     5   ar
     5     5     6    1
     6     6     7   ar
     7     7     8   ar
     8     8     9   ar
     9     9    10   ar
    10    10    11    1
    11    10    12   ar
    12     5    13   ar
    13    13    14    1
    14    14    15   ar
    15    15    16   ar
    16    16    17   ar
    17    17    18   ar
    18    18    19   ar
    19    19    20   ar
    20    20    21   ar
    21    21    22   ar
    22    13    23   ar
    23    23     3   ar
    24    12     6   ar
    25    22    14   ar
    26    21    17   ar
    27     1    24    1
    28     1    25    1
    29     1    26    1
    30     2    27    1
    31     2    28    1
    32     7    29    1
    33     8    30    1
    34     9    31    1
    35    11    32    1
    36    11    33    1
    37    11    34    1
    38    12    35    1
    39    15    36    1
    40    16    37    1
    41    19    38    1
    42    22    39    1
    43    23    40    1
