@<TRIPOS>MOLECULE
*****
 72 77 0 0 0
SMALL
GASTEIGER

@<TRIPOS>ATOM
      1 C           1.7133    0.1895    1.2160 C.3     1  UNL1       -0.0372
      2 C           1.2631    1.1395    0.1393 C.ar    1  UNL1       -0.0186
      3 C           0.0574    1.7907    0.2123 C.ar    1  UNL1       -0.0096
      4 C          -0.8186    1.5829    1.3555 C.ar    1  UNL1        0.0271
      5 C          -0.6934    2.4195    2.4742 C.ar    1  UNL1        0.1325
      6 F           0.2567    3.3790    2.4000 F       1  UNL1       -0.2048
      7 C          -1.5018    2.2522    3.5685 C.ar    1  UNL1       -0.0116
      8 C          -2.4547    1.2555    3.5884 C.ar    1  UNL1        0.0623
      9 C          -3.2788    1.1219    4.7615 C.2     1  UNL1        0.2144
     10 N          -4.1724    0.2334    4.8539 N.2     1  UNL1       -0.2667
     11 O          -3.1015    1.9828    5.8294 O.2     1  UNL1       -0.4923
     12 C          -2.5883    0.4211    2.4877 C.ar    1  UNL1        0.0600
     13 N          -3.3906   -0.5990    2.2193 N.ar    1  UNL1       -0.3571
     14 C          -3.1478   -1.1069    1.0052 C.ar    1  UNL1        0.0206
     15 C          -2.1357   -0.3901    0.4395 C.ar    1  UNL1       -0.0184
     16 C          -1.7702    0.5766    1.3582 C.ar    1  UNL1        0.0143
     17 C          -1.5994   -0.6612   -0.8943 C.3     1  UNL1       -0.0251
     18 C          -2.2327   -1.7797   -1.6210 C.3     1  UNL1       -0.0432
     19 C          -3.5936   -2.1735   -1.1932 C.3     1  UNL1       -0.0070
     20 C          -4.7108   -1.4281   -1.8876 C.3     1  UNL1        0.0637
     21 C          -4.6970    0.0461   -1.6983 C.3     1  UNL1       -0.0361
     22 C          -6.0614   -1.9469   -1.4348 C.3     1  UNL1       -0.0361
     23 O          -4.6427   -1.6785   -3.2689 O.3     1  UNL1       -0.3888
     24 C          -3.7755   -2.2210    0.2983 C.3     1  UNL1       -0.0068
     25 C          -0.3246    2.6513   -0.7862 C.ar    1  UNL1       -0.0535
     26 C           0.5290    2.8363   -1.8464 C.ar    1  UNL1       -0.0592
     27 C           1.7304    2.1714   -1.8942 C.ar    1  UNL1       -0.0373
     28 C           2.1513    1.2986   -0.9118 C.ar    1  UNL1        0.0579
     29 N           3.4044    0.6299   -1.0001 N.ar    1  UNL1       -0.2282
     30 C           4.4934    1.3664   -0.6874 C.ar    1  UNL1        0.2689
     31 O           4.3860    2.5698   -0.3410 O.2     1  UNL1       -0.2665
     32 C           5.7688    0.8390   -0.7322 C.ar    1  UNL1        0.0663
     33 C           6.8781    1.6142   -0.4064 C.ar    1  UNL1       -0.0472
     34 C           8.1498    1.0846   -0.4522 C.ar    1  UNL1       -0.0582
     35 C           8.2866   -0.2336   -0.8300 C.ar    1  UNL1       -0.0244
     36 C           7.1771   -1.0184   -1.1586 C.ar    1  UNL1        0.1476
     37 F           7.3265   -2.3122   -1.5281 F       1  UNL1       -0.2033
     38 C           5.9072   -0.4875   -1.1123 C.ar    1  UNL1        0.0935
     39 N           4.8031   -1.1761   -1.4120 N.ar    1  UNL1       -0.2933
     40 C           4.9340   -2.5618   -1.8102 C.3     1  UNL1        0.0168
     41 C           3.5580   -0.6302   -1.3592 C.ar    1  UNL1        0.3368
     42 O           2.5490   -1.3166   -1.6500 O.2     1  UNL1       -0.2459
     43 H           2.8046    0.1575    1.2890 H       1  UNL1        0.0278
     44 H           1.2282    0.5323    2.1503 H       1  UNL1        0.0278
     45 H           1.2971   -0.8218    1.0082 H       1  UNL1        0.0278
     46 H          -1.3551    2.9370    4.4096 H       1  UNL1        0.0655
     47 H          -4.7916    0.0948    5.6745 H       1  UNL1        0.1899
     48 H          -3.8388    2.1261    6.5268 H       1  UNL1        0.2937
     49 H          -4.1389   -0.9721    2.8863 H       1  UNL1        0.1656
     50 H          -0.5140   -0.9226   -0.7636 H       1  UNL1        0.0314
     51 H          -1.7120    0.2593   -1.5135 H       1  UNL1        0.0314
     52 H          -2.2855   -1.5323   -2.7219 H       1  UNL1        0.0272
     53 H          -1.5720   -2.6980   -1.6092 H       1  UNL1        0.0272
     54 H          -3.7479   -3.2438   -1.5411 H       1  UNL1        0.0332
     55 H          -5.6860    0.4161   -2.1055 H       1  UNL1        0.0257
     56 H          -4.7081    0.3702   -0.6408 H       1  UNL1        0.0257
     57 H          -3.9430    0.5841   -2.3168 H       1  UNL1        0.0257
     58 H          -6.7901   -1.6945   -2.2359 H       1  UNL1        0.0257
     59 H          -6.0673   -3.0428   -1.3256 H       1  UNL1        0.0257
     60 H          -6.4091   -1.4198   -0.5211 H       1  UNL1        0.0257
     61 H          -5.2923   -1.1417   -3.7673 H       1  UNL1        0.2101
     62 H          -3.3241   -3.1947    0.6521 H       1  UNL1        0.0331
     63 H          -4.8666   -2.2765    0.5035 H       1  UNL1        0.0331
     64 H          -1.2762    3.1860   -0.7610 H       1  UNL1        0.0624
     65 H           0.2945    3.5014   -2.6730 H       1  UNL1        0.0618
     66 H           2.4255    2.3107   -2.7402 H       1  UNL1        0.0638
     67 H           6.6795    2.6377   -0.1211 H       1  UNL1        0.0626
     68 H           8.9963    1.7004   -0.1965 H       1  UNL1        0.0619
     69 H           9.2778   -0.6820   -0.8761 H       1  UNL1        0.0647
     70 H           3.9037   -2.9874   -2.0164 H       1  UNL1        0.0457
     71 H           5.3139   -3.2176   -0.9921 H       1  UNL1        0.0457
     72 H           5.4659   -2.6968   -2.7723 H       1  UNL1        0.0457
@<TRIPOS>BOND
     1     1     2    1
     2     2     3   ar
     3     3     4    1
     4     4     5   ar
     5     5     6    1
     6     5     7   ar
     7     7     8   ar
     8     8     9    1
     9     9    10    2
    10     9    11    1
    11     8    12   ar
    12    12    13   ar
    13    13    14   ar
    14    14    15   ar
    15    15    16   ar
    16    15    17    1
    17    17    18    1
    18    18    19    1
    19    19    20    1
    20    20    21    1
    21    20    22    1
    22    20    23    1
    23    19    24    1
    24     3    25   ar
    25    25    26   ar
    26    26    27   ar
    27    27    28   ar
    28    28    29    1
    29    29    30   ar
    30    30    31    2
    31    30    32   ar
    32    32    33   ar
    33    33    34   ar
    34    34    35   ar
    35    35    36   ar
    36    36    37    1
    37    36    38   ar
    38    38    39   ar
    39    39    40    1
    40    39    41   ar
    41    41    42    2
    42    28     2   ar
    43    41    29   ar
    44    16     4   ar
    45    38    32   ar
    46    16    12   ar
    47    24    14    1
    48     1    43    1
    49     1    44    1
    50     1    45    1
    51     7    46    1
    52    10    47    1
    53    11    48    1
    54    13    49    1
    55    17    50    1
    56    17    51    1
    57    18    52    1
    58    18    53    1
    59    19    54    1
    60    21    55    1
    61    21    56    1
    62    21    57    1
    63    22    58    1
    64    22    59    1
    65    22    60    1
    66    23    61    1
    67    24    62    1
    68    24    63    1
    69    25    64    1
    70    26    65    1
    71    27    66    1
    72    33    67    1
    73    34    68    1
    74    35    69    1
    75    40    70    1
    76    40    71    1
    77    40    72    1
