
     RDKit          3D

 72 77  0  0  0  0  0  0  0  0999 V2000
    1.7133    0.1895    1.2160 C   0  0  0  0  0  0  0  0  0  0  0  0
    1.2631    1.1395    0.1393 C   0  0  0  0  0  0  0  0  0  0  0  0
    0.0574    1.7907    0.2123 C   0  0  0  0  0  0  0  0  0  0  0  0
   -0.8186    1.5829    1.3555 C   0  0  0  0  0  0  0  0  0  0  0  0
   -0.6934    2.4195    2.4742 C   0  0  0  0  0  0  0  0  0  0  0  0
    0.2567    3.3790    2.4000 F   0  0  0  0  0  0  0  0  0  0  0  0
   -1.5018    2.2522    3.5685 C   0  0  0  0  0  0  0  0  0  0  0  0
   -2.4547    1.2555    3.5884 C   0  0  0  0  0  0  0  0  0  0  0  0
   -3.2788    1.1219    4.7615 C   0  0  0  0  0  0  0  0  0  0  0  0
   -4.1724    0.2334    4.8539 N   0  0  0  0  0  0  0  0  0  0  0  0
   -3.1015    1.9828    5.8294 O   0  0  0  0  0  0  0  0  0  0  0  0
   -2.5883    0.4211    2.4877 C   0  0  0  0  0  0  0  0  0  0  0  0
   -3.3906   -0.5990    2.2193 N   0  0  0  0  0  0  0  0  0  0  0  0
   -3.1478   -1.1069    1.0052 C   0  0  0  0  0  0  0  0  0  0  0  0
   -2.1357   -0.3901    0.4395 C   0  0  0  0  0  0  0  0  0  0  0  0
   -1.7702    0.5766    1.3582 C   0  0  0  0  0  0  0  0  0  0  0  0
   -1.5994   -0.6612   -0.8943 C   0  0  0  0  0  0  0  0  0  0  0  0
   -2.2327   -1.7797   -1.6210 C   0  0  0  0  0  0  0  0  0  0  0  0
   -3.5936   -2.1735   -1.1932 C   0  0  2  0  0  0  0  0  0  0  0  0
   -4.7108   -1.4281   -1.8876 C   0  0  0  0  0  0  0  0  0  0  0  0
   -4.6970    0.0461   -1.6983 C   0  0  0  0  0  0  0  0  0  0  0  0
   -6.0614   -1.9469   -1.4348 C   0  0  0  0  0  0  0  0  0  0  0  0
   -4.6427   -1.6785   -3.2689 O   0  0  0  0  0  0  0  0  0  0  0  0
   -3.7755   -2.2210    0.2983 C   0  0  0  0  0  0  0  0  0  0  0  0
   -0.3246    2.6513   -0.7862 C   0  0  0  0  0  0  0  0  0  0  0  0
    0.5290    2.8363   -1.8464 C   0  0  0  0  0  0  0  0  0  0  0  0
    1.7304    2.1714   -1.8942 C   0  0  0  0  0  0  0  0  0  0  0  0
    2.1513    1.2986   -0.9118 C   0  0  0  0  0  0  0  0  0  0  0  0
    3.4044    0.6299   -1.0001 N   0  0  0  0  0  0  0  0  0  0  0  0
    4.4934    1.3664   -0.6874 C   0  0  0  0  0  0  0  0  0  0  0  0
    4.3860    2.5698   -0.3410 O   0  0  0  0  0  0  0  0  0  0  0  0
    5.7688    0.8390   -0.7322 C   0  0  0  0  0  0  0  0  0  0  0  0
    6.8781    1.6142   -0.4064 C   0  0  0  0  0  0  0  0  0  0  0  0
    8.1498    1.0846   -0.4522 C   0  0  0  0  0  0  0  0  0  0  0  0
    8.2866   -0.2336   -0.8300 C   0  0  0  0  0  0  0  0  0  0  0  0
    7.1771   -1.0184   -1.1586 C   0  0  0  0  0  0  0  0  0  0  0  0
    7.3265   -2.3122   -1.5281 F   0  0  0  0  0  0  0  0  0  0  0  0
    5.9072   -0.4875   -1.1123 C   0  0  0  0  0  0  0  0  0  0  0  0
    4.8031   -1.1761   -1.4120 N   0  0  0  0  0  0  0  0  0  0  0  0
    4.9340   -2.5618   -1.8102 C   0  0  0  0  0  0  0  0  0  0  0  0
    3.5580   -0.6302   -1.3592 C   0  0  0  0  0  0  0  0  0  0  0  0
    2.5490   -1.3166   -1.6500 O   0  0  0  0  0  0  0  0  0  0  0  0
    2.8046    0.1575    1.2890 H   0  0  0  0  0  0  0  0  0  0  0  0
    1.2282    0.5323    2.1503 H   0  0  0  0  0  0  0  0  0  0  0  0
    1.2971   -0.8218    1.0082 H   0  0  0  0  0  0  0  0  0  0  0  0
   -1.3551    2.9370    4.4096 H   0  0  0  0  0  0  0  0  0  0  0  0
   -4.7916    0.0948    5.6745 H   0  0  0  0  0  0  0  0  0  0  0  0
   -3.8388    2.1261    6.5268 H   0  0  0  0  0  0  0  0  0  0  0  0
   -4.1389   -0.9721    2.8863 H   0  0  0  0  0  0  0  0  0  0  0  0
   -0.5140   -0.9226   -0.7636 H   0  0  0  0  0  0  0  0  0  0  0  0
   -1.7120    0.2593   -1.5135 H   0  0  0  0  0  0  0  0  0  0  0  0
   -2.2855   -1.5323   -2.7219 H   0  0  0  0  0  0  0  0  0  0  0  0
   -1.5720   -2.6980   -1.6092 H   0  0  0  0  0  0  0  0  0  0  0  0
   -3.7479   -3.2438   -1.5411 H   0  0  0  0  0  0  0  0  0  0  0  0
   -5.6860    0.4161   -2.1055 H   0  0  0  0  0  0  0  0  0  0  0  0
   -4.7081    0.3702   -0.6408 H   0  0  0  0  0  0  0  0  0  0  0  0
   -3.9430    0.5841   -2.3168 H   0  0  0  0  0  0  0  0  0  0  0  0
   -6.7901   -1.6945   -2.2359 H   0  0  0  0  0  0  0  0  0  0  0  0
   -6.0673   -3.0428   -1.3256 H   0  0  0  0  0  0  0  0  0  0  0  0
   -6.4091   -1.4198   -0.5211 H   0  0  0  0  0  0  0  0  0  0  0  0
   -5.2923   -1.1417   -3.7673 H   0  0  0  0  0  0  0  0  0  0  0  0
   -3.3241   -3.1947    0.6521 H   0  0  0  0  0  0  0  0  0  0  0  0
   -4.8666   -2.2765    0.5035 H   0  0  0  0  0  0  0  0  0  0  0  0
   -1.2762    3.1860   -0.7610 H   0  0  0  0  0  0  0  0  0  0  0  0
    0.2945    3.5014   -2.6730 H   0  0  0  0  0  0  0  0  0  0  0  0
    2.4255    2.3107   -2.7402 H   0  0  0  0  0  0  0  0  0  0  0  0
    6.6795    2.6377   -0.1211 H   0  0  0  0  0  0  0  0  0  0  0  0
    8.9963    1.7004   -0.1965 H   0  0  0  0  0  0  0  0  0  0  0  0
    9.2778   -0.6820   -0.8761 H   0  0  0  0  0  0  0  0  0  0  0  0
    3.9037   -2.9874   -2.0164 H   0  0  0  0  0  0  0  0  0  0  0  0
    5.3139   -3.2176   -0.9921 H   0  0  0  0  0  0  0  0  0  0  0  0
    5.4659   -2.6968   -2.7723 H   0  0  0  0  0  0  0  0  0  0  0  0
  1  2  1  0
  2  3  2  0
  3  4  1  0
  4  5  2  0
  5  6  1  0
  5  7  1  0
  7  8  2  0
  8  9  1  0
  9 10  2  3
  9 11  1  0
  8 12  1  0
 12 13  1  0
 13 14  1  0
 14 15  2  0
 15 16  1  0
 15 17  1  0
 17 18  1  0
 18 19  1  0
 19 20  1  0
 20 21  1  0
 20 22  1  0
 20 23  1  0
 19 24  1  0
  3 25  1  0
 25 26  2  0
 26 27  1  0
 27 28  2  0
 28 29  1  0
 29 30  1  0
 30 31  2  0
 30 32  1  0
 32 33  2  0
 33 34  1  0
 34 35  2  0
 35 36  1  0
 36 37  1  0
 36 38  2  0
 38 39  1  0
 39 40  1  0
 39 41  1  0
 41 42  2  0
 28  2  1  0
 41 29  1  0
 16  4  1  0
 38 32  1  0
 16 12  2  0
 24 14  1  0
  1 43  1  0
  1 44  1  0
  1 45  1  0
  7 46  1  0
 10 47  1  0
 11 48  1  0
 13 49  1  0
 17 50  1  0
 17 51  1  0
 18 52  1  0
 18 53  1  0
 19 54  1  6
 21 55  1  0
 21 56  1  0
 21 57  1  0
 22 58  1  0
 22 59  1  0
 22 60  1  0
 23 61  1  0
 24 62  1  0
 24 63  1  0
 25 64  1  0
 26 65  1  0
 27 66  1  0
 33 67  1  0
 34 68  1  0
 35 69  1  0
 40 70  1  0
 40 71  1  0
 40 72  1  0
M  END
$$$$
