@<TRIPOS>MOLECULE
*****
 64 68 0 0 0
SMALL
GASTEIGER

@<TRIPOS>ATOM
      1 C          -1.9658   -1.9965    2.6853 C.3     1  UNL1       -0.0345
      2 C          -1.6485   -0.7085    1.9533 C.3     1  UNL1        0.0813
      3 O          -0.4505   -0.8856    1.2950 O.3     1  UNL1       -0.3668
      4 C           0.5141    0.0309    1.5618 C.3     1  UNL1        0.0836
      5 C           1.7894   -0.4749    2.1160 C.3     1  UNL1        0.0419
      6 N           2.8108   -0.2943    1.0867 N.am    1  UNL1       -0.2948
      7 C           4.0932   -0.6861    0.6146 C.2     1  UNL1        0.2194
      8 O           4.9163   -1.3817    1.2904 O.2     1  UNL1       -0.2753
      9 C           4.2902   -0.1492   -0.7738 C.3     1  UNL1        0.0429
     10 C           4.6953   -1.2209   -1.7376 C.3     1  UNL1       -0.0128
     11 C           3.5251   -2.1943   -1.6150 C.3     1  UNL1        0.0644
     12 C           3.3935   -3.0775   -2.8111 C.3     1  UNL1       -0.0360
     13 O           3.8196   -2.9913   -0.4850 O.3     1  UNL1       -0.3888
     14 C           2.3361   -1.3080   -1.3743 C.3     1  UNL1       -0.0190
     15 C           2.8295    0.0863   -1.1640 C.3     1  UNL1       -0.0080
     16 C           2.3421    0.7033    0.1251 C.3     1  UNL1        0.0389
     17 C           0.8534    0.7408    0.2491 C.3     1  UNL1        0.0308
     18 C           0.4444    2.1664    0.3762 C.ar    1  UNL1       -0.0398
     19 C           0.9926    2.9478    1.3867 C.ar    1  UNL1       -0.0555
     20 C           0.6541    4.2778    1.5578 C.ar    1  UNL1       -0.0262
     21 C          -0.2520    4.8638    0.7112 C.ar    1  UNL1        0.1234
     22 F          -0.6404    6.1451    0.8002 F       1  UNL1       -0.2055
     23 C          -0.7969    4.0847   -0.2941 C.ar    1  UNL1       -0.0262
     24 C          -0.4577    2.7661   -0.4594 C.ar    1  UNL1       -0.0555
     25 C          -2.7435   -0.5012    0.9523 C.ar    1  UNL1       -0.0181
     26 C          -3.6948    0.4902    1.1023 C.ar    1  UNL1       -0.0445
     27 C          -4.7110    0.7203    0.2207 C.ar    1  UNL1        0.0557
     28 C          -5.6624    1.8229    0.5102 C.3     1  UNL1        0.4174
     29 F          -5.2741    2.9051   -0.2677 F       1  UNL1       -0.1659
     30 F          -5.6584    2.1435    1.8493 F       1  UNL1       -0.1659
     31 F          -6.8982    1.4268    0.0594 F       1  UNL1       -0.1659
     32 C          -4.8144   -0.0760   -0.8992 C.ar    1  UNL1       -0.0385
     33 C          -3.8844   -1.0768   -1.0856 C.ar    1  UNL1        0.0557
     34 C          -4.0428   -1.9101   -2.3152 C.3     1  UNL1        0.4174
     35 F          -5.1570   -2.7242   -2.1969 F       1  UNL1       -0.1659
     36 F          -2.9594   -2.7014   -2.5633 F       1  UNL1       -0.1659
     37 F          -4.3149   -1.0478   -3.3848 F       1  UNL1       -0.1659
     38 C          -2.8608   -1.2941   -0.1794 C.ar    1  UNL1       -0.0445
     39 H          -2.9961   -1.9742    3.1055 H       1  UNL1        0.0258
     40 H          -1.9629   -2.8166    1.9159 H       1  UNL1        0.0258
     41 H          -1.2194   -2.2703    3.4300 H       1  UNL1        0.0258
     42 H          -1.6717    0.1633    2.6197 H       1  UNL1        0.0643
     43 H           0.0879    0.7685    2.3037 H       1  UNL1        0.0618
     44 H           2.1458    0.1444    2.9801 H       1  UNL1        0.0490
     45 H           1.7824   -1.5151    2.4638 H       1  UNL1        0.0490
     46 H           4.8887    0.7545   -0.8006 H       1  UNL1        0.0398
     47 H           4.6410   -0.8041   -2.7533 H       1  UNL1        0.0300
     48 H           5.6419   -1.7179   -1.4961 H       1  UNL1        0.0300
     49 H           2.3903   -3.5289   -2.8185 H       1  UNL1        0.0257
     50 H           4.1548   -3.8796   -2.7312 H       1  UNL1        0.0257
     51 H           3.6233   -2.4815   -3.7184 H       1  UNL1        0.0257
     52 H           4.7044   -3.3994   -0.6382 H       1  UNL1        0.2101
     53 H           1.6190   -1.3893   -2.2384 H       1  UNL1        0.0296
     54 H           1.8504   -1.6488   -0.4483 H       1  UNL1        0.0296
     55 H           2.7318    0.7470   -2.0335 H       1  UNL1        0.0327
     56 H           2.8514    1.6505    0.2928 H       1  UNL1        0.0510
     57 H           0.3156    0.3082   -0.5974 H       1  UNL1        0.0393
     58 H           1.7171    2.5525    2.0955 H       1  UNL1        0.0621
     59 H           1.0763    4.8954    2.3428 H       1  UNL1        0.0646
     60 H          -1.5093    4.5133   -0.9736 H       1  UNL1        0.0646
     61 H          -0.8897    2.1453   -1.2579 H       1  UNL1        0.0621
     62 H          -3.6094    1.1124    1.9827 H       1  UNL1        0.0627
     63 H          -5.6285    0.1264   -1.5828 H       1  UNL1        0.0629
     64 H          -2.1472   -2.0771   -0.3413 H       1  UNL1        0.0627
@<TRIPOS>BOND
     1     1     2    1
     2     2     3    1
     3     3     4    1
     4     4     5    1
     5     5     6    1
     6     6     7   am
     7     7     8    2
     8     7     9    1
     9     9    10    1
    10    10    11    1
    11    11    12    1
    12    11    13    1
    13    11    14    1
    14    14    15    1
    15    15    16    1
    16    16    17    1
    17    17    18    1
    18    18    19   ar
    19    19    20   ar
    20    20    21   ar
    21    21    22    1
    22    21    23   ar
    23    23    24   ar
    24     2    25    1
    25    25    26   ar
    26    26    27   ar
    27    27    28    1
    28    28    29    1
    29    28    30    1
    30    28    31    1
    31    27    32   ar
    32    32    33   ar
    33    33    34    1
    34    34    35    1
    35    34    36    1
    36    34    37    1
    37    33    38   ar
    38    17     4    1
    39    24    18   ar
    40    38    25   ar
    41    16     6    1
    42    15     9    1
    43     1    39    1
    44     1    40    1
    45     1    41    1
    46     2    42    1
    47     4    43    1
    48     5    44    1
    49     5    45    1
    50     9    46    1
    51    10    47    1
    52    10    48    1
    53    12    49    1
    54    12    50    1
    55    12    51    1
    56    13    52    1
    57    14    53    1
    58    14    54    1
    59    15    55    1
    60    16    56    1
    61    17    57    1
    62    19    58    1
    63    20    59    1
    64    23    60    1
    65    24    61    1
    66    26    62    1
    67    32    63    1
    68    38    64    1
