@<TRIPOS>MOLECULE
*****
 46 49 0 0 0
SMALL
GASTEIGER

@<TRIPOS>ATOM
      1 C          -3.1681    0.4128    1.5757 C.3     1  UNL1       -0.0526
      2 C          -3.0088   -0.4605    0.3488 C.3     1  UNL1        0.0293
      3 C          -2.2712   -1.7040    0.6249 C.3     1  UNL1       -0.0401
      4 C          -0.9353   -1.8970    0.0263 C.3     1  UNL1       -0.0450
      5 C          -0.2098   -0.7035   -0.4909 C.3     1  UNL1       -0.0124
      6 C          -0.9734    0.6018   -0.2310 C.3     1  UNL1       -0.0302
      7 C          -0.2029    1.7152   -0.8415 C.3     1  UNL1       -0.0454
      8 C           0.9958    1.9348    0.0922 C.3     1  UNL1       -0.0270
      9 C           1.7648    0.6867    0.2656 C.ar    1  UNL1       -0.0404
     10 C           1.1729   -0.5446   -0.0164 C.ar    1  UNL1       -0.0406
     11 C           1.9625   -1.6673    0.1723 C.ar    1  UNL1       -0.0545
     12 C           3.2636   -1.5805    0.6146 C.ar    1  UNL1       -0.0167
     13 C           3.8445   -0.3594    0.8922 C.ar    1  UNL1        0.1591
     14 O           5.1397   -0.1455    1.3411 O.3     1  UNL1       -0.3250
     15 S           6.3631    0.0740    0.1934 S.O2    1  UNL1        0.2513
     16 O           7.8597   -0.5045    0.7480 O.3     1  UNL1       -0.2222
     17 O           6.5283    1.5306   -0.1339 O.2     1  UNL1       -0.1077
     18 O           6.0129   -0.7302   -1.0226 O.2     1  UNL1       -0.1077
     19 C           3.0757    0.7915    0.7124 C.ar    1  UNL1       -0.0135
     20 C          -2.3097    0.3159   -0.7758 C.3     1  UNL1       -0.0252
     21 C          -3.2620    1.4238   -0.9937 C.3     1  UNL1       -0.0424
     22 C          -4.5959    0.6889   -1.0093 C.3     1  UNL1        0.0067
     23 C          -4.3526   -0.5859   -0.2436 C.2     1  UNL1        0.1395
     24 O          -5.2354   -1.4339   -0.2444 O.2     1  UNL1       -0.2968
     25 H          -4.2265    0.5343    1.8891 H       1  UNL1        0.0239
     26 H          -2.7589    1.4183    1.4792 H       1  UNL1        0.0239
     27 H          -2.6665   -0.0325    2.4771 H       1  UNL1        0.0239
     28 H          -2.9597   -2.5573    0.3646 H       1  UNL1        0.0275
     29 H          -2.1963   -1.7966    1.7495 H       1  UNL1        0.0275
     30 H          -0.2550   -2.3876    0.7637 H       1  UNL1        0.0271
     31 H          -1.0227   -2.6821   -0.7825 H       1  UNL1        0.0271
     32 H          -0.1440   -0.7742   -1.6020 H       1  UNL1        0.0352
     33 H          -0.9365    0.7081    0.8803 H       1  UNL1        0.0310
     34 H           0.2188    1.4892   -1.8396 H       1  UNL1        0.0271
     35 H          -0.7831    2.6427   -0.8895 H       1  UNL1        0.0271
     36 H           0.5686    2.2257    1.0813 H       1  UNL1        0.0313
     37 H           1.6348    2.7565   -0.2367 H       1  UNL1        0.0313
     38 H           1.6160   -2.6927   -0.0133 H       1  UNL1        0.0622
     39 H           3.9116   -2.4313    0.7743 H       1  UNL1        0.0655
     40 H           7.8206   -1.4864    0.6237 H       1  UNL1        0.2479
     41 H           3.4900    1.7886    0.9189 H       1  UNL1        0.0658
     42 H          -2.2960   -0.3331   -1.6624 H       1  UNL1        0.0313
     43 H          -3.0709    1.8491   -2.0207 H       1  UNL1        0.0272
     44 H          -3.2227    2.2705   -0.3153 H       1  UNL1        0.0272
     45 H          -4.7713    0.3454   -2.0580 H       1  UNL1        0.0342
     46 H          -5.4088    1.2861   -0.5992 H       1  UNL1        0.0342
@<TRIPOS>BOND
     1     2     1    1
     2     2     3    1
     3     3     4    1
     4     4     5    1
     5     5     6    1
     6     6     7    1
     7     7     8    1
     8     8     9    1
     9     9    10   ar
    10    10    11   ar
    11    11    12   ar
    12    12    13   ar
    13    13    14    1
    14    14    15    1
    15    15    16    1
    16    15    17    2
    17    15    18    2
    18    13    19   ar
    19     6    20    1
    20    20    21    1
    21    21    22    1
    22    22    23    1
    23    23    24    2
    24    20     2    1
    25    23     2    1
    26    10     5    1
    27    19     9   ar
    28     1    25    1
    29     1    26    1
    30     1    27    1
    31     3    28    1
    32     3    29    1
    33     4    30    1
    34     4    31    1
    35     5    32    1
    36     6    33    1
    37     7    34    1
    38     7    35    1
    39     8    36    1
    40     8    37    1
    41    11    38    1
    42    12    39    1
    43    16    40    1
    44    19    41    1
    45    20    42    1
    46    21    43    1
    47    21    44    1
    48    22    45    1
    49    22    46    1
