@<TRIPOS>MOLECULE
*****
 48 53 0 0 0
SMALL
GASTEIGER

@<TRIPOS>ATOM
      1 C          -1.9519   -1.0928   -0.9254 C.3     1  UNL1        0.1074
      2 C          -2.3923    0.0532   -0.0447 C.3     1  UNL1        0.0019
      3 C          -1.5911    1.2663   -0.2488 C.ar    1  UNL1       -0.0147
      4 C          -0.3631    1.1375   -0.8618 C.ar    1  UNL1        0.0456
      5 N           0.1516    2.3909   -0.9216 N.ar    1  UNL1       -0.3560
      6 C          -0.7025    3.2819   -0.3746 C.ar    1  UNL1        0.0470
      7 C          -0.7124    4.6411   -0.1649 C.ar    1  UNL1       -0.0378
      8 C          -1.7787    5.2883    0.4480 C.ar    1  UNL1       -0.0598
      9 C          -2.8620    4.5347    0.8580 C.ar    1  UNL1       -0.0611
     10 C          -2.9170    3.1674    0.6785 C.ar    1  UNL1       -0.0523
     11 C          -1.8199    2.5908    0.0614 C.ar    1  UNL1        0.0032
     12 C           0.2978   -0.0898   -1.3662 C.3     1  UNL1        0.0925
     13 N          -0.4900   -1.2252   -0.9265 N.am    1  UNL1       -0.2758
     14 C           0.1135   -2.4414   -0.5045 C.2     1  UNL1        0.2344
     15 O           1.2040   -2.7646   -1.0498 O.2     1  UNL1       -0.2738
     16 C          -0.5684   -3.2478    0.5401 C.3     1  UNL1        0.0910
     17 N          -1.9999   -3.2536    0.3476 N.am    1  UNL1       -0.2942
     18 C          -2.7859   -4.2061    1.1045 C.3     1  UNL1        0.0037
     19 C          -2.6185   -2.3433   -0.5650 C.2     1  UNL1        0.2366
     20 O          -3.7432   -2.6595   -1.0371 O.2     1  UNL1       -0.2735
     21 C           1.7046   -0.1778   -0.9080 C.ar    1  UNL1       -0.0175
     22 C           1.9626   -0.5389    0.3990 C.ar    1  UNL1       -0.0108
     23 C           3.2880   -0.6060    0.7747 C.ar    1  UNL1        0.1666
     24 C           4.2970   -0.3234   -0.1226 C.ar    1  UNL1        0.1662
     25 O           5.5434   -0.4510    0.4592 O.3     1  UNL1       -0.4526
     26 C           5.3452   -0.8016    1.8166 C.3     1  UNL1        0.2332
     27 O           3.9418   -0.9192    1.9529 O.3     1  UNL1       -0.4526
     28 C           4.0354    0.0362   -1.4249 C.ar    1  UNL1       -0.0158
     29 C           2.7099    0.1070   -1.8133 C.ar    1  UNL1       -0.0527
     30 H          -2.2355   -0.8277   -1.9648 H       1  UNL1        0.0600
     31 H          -2.4403   -0.2584    1.0081 H       1  UNL1        0.0337
     32 H          -3.4549    0.2823   -0.3501 H       1  UNL1        0.0337
     33 H           1.0571    2.7491   -1.3052 H       1  UNL1        0.1657
     34 H           0.1319    5.2074   -0.4876 H       1  UNL1        0.0638
     35 H          -1.7234    6.3551    0.5821 H       1  UNL1        0.0618
     36 H          -3.7044    4.9967    1.3347 H       1  UNL1        0.0618
     37 H          -3.7610    2.5523    0.9937 H       1  UNL1        0.0624
     38 H           0.2227   -0.0990   -2.4791 H       1  UNL1        0.0616
     39 H          -0.1385   -4.2640    0.5077 H       1  UNL1        0.0560
     40 H          -0.3693   -2.8229    1.5670 H       1  UNL1        0.0560
     41 H          -2.7688   -5.1659    0.5586 H       1  UNL1        0.0429
     42 H          -2.3440   -4.3169    2.1327 H       1  UNL1        0.0429
     43 H          -3.8344   -3.8547    1.2120 H       1  UNL1        0.0429
     44 H           1.1768   -0.7618    1.1076 H       1  UNL1        0.0659
     45 H           5.8759   -1.7722    1.9636 H       1  UNL1        0.1166
     46 H           5.7878   -0.0138    2.4640 H       1  UNL1        0.1166
     47 H           4.7727    0.2723   -2.1853 H       1  UNL1        0.0655
     48 H           2.4514    0.3891   -2.8406 H       1  UNL1        0.0622
@<TRIPOS>BOND
     1     1     2    1
     2     2     3    1
     3     3     4   ar
     4     4     5   ar
     5     5     6   ar
     6     6     7   ar
     7     7     8   ar
     8     8     9   ar
     9     9    10   ar
    10    10    11   ar
    11     4    12    1
    12    12    13    1
    13    13    14   am
    14    14    15    2
    15    14    16    1
    16    16    17    1
    17    17    18    1
    18    17    19   am
    19    19    20    2
    20    12    21    1
    21    21    22   ar
    22    22    23   ar
    23    23    24   ar
    24    24    25    1
    25    25    26    1
    26    26    27    1
    27    24    28   ar
    28    28    29   ar
    29    13     1    1
    30    29    21   ar
    31    19     1    1
    32    27    23    1
    33    11     3   ar
    34    11     6   ar
    35     1    30    1
    36     2    31    1
    37     2    32    1
    38     5    33    1
    39     7    34    1
    40     8    35    1
    41     9    36    1
    42    10    37    1
    43    12    38    1
    44    16    39    1
    45    16    40    1
    46    18    41    1
    47    18    42    1
    48    18    43    1
    49    22    44    1
    50    26    45    1
    51    26    46    1
    52    28    47    1
    53    29    48    1
