
     RDKit          3D

 61 68  0  0  0  0  0  0  0  0999 V2000
    1.6918    1.9275    2.1662 C   0  0  0  0  0  0  0  0  0  0  0  0
    1.7493    0.7300    1.3855 N   0  0  0  0  0  0  0  0  0  0  0  0
    2.5361    0.9521    0.1795 C   0  0  2  0  0  0  0  0  0  0  0  0
    1.9272    2.0236   -0.6415 C   0  0  0  0  0  0  0  0  0  0  0  0
    0.9611    1.5180   -1.6807 C   0  0  1  0  0  0  0  0  0  0  0  0
    1.1388    0.3029   -2.1466 O   0  0  0  0  0  0  0  0  0  0  0  0
    1.5659   -0.7537   -1.3929 C   0  0  1  0  0  0  0  0  0  0  0  0
    2.0279   -1.7682   -2.4555 C   0  0  0  0  0  0  0  0  0  0  0  0
    2.7170   -0.3613   -0.5658 C   0  0  2  0  0  0  0  0  0  0  0  0
    3.1206   -1.2573    0.4117 O   0  0  0  0  0  0  0  0  0  0  0  0
    4.4448   -1.6393    0.3220 C   0  0  0  0  0  0  0  0  0  0  0  0
    0.4410   -1.2959   -0.6111 N   0  0  0  0  0  0  0  0  0  0  0  0
    0.2947   -2.5281   -0.1527 C   0  0  0  0  0  0  0  0  0  0  0  0
    1.0917   -3.6401   -0.2047 C   0  0  0  0  0  0  0  0  0  0  0  0
    0.6906   -4.8302    0.3737 C   0  0  0  0  0  0  0  0  0  0  0  0
   -0.5210   -4.9568    1.0267 C   0  0  0  0  0  0  0  0  0  0  0  0
   -1.3343   -3.8443    1.0874 C   0  0  0  0  0  0  0  0  0  0  0  0
   -0.9190   -2.6730    0.5077 C   0  0  0  0  0  0  0  0  0  0  0  0
   -1.5341   -1.4374    0.4369 C   0  0  0  0  0  0  0  0  0  0  0  0
   -2.7463   -0.9593    0.9008 C   0  0  0  0  0  0  0  0  0  0  0  0
   -3.1178    0.3740    0.6746 C   0  0  0  0  0  0  0  0  0  0  0  0
   -2.2615    1.2124   -0.0165 C   0  0  0  0  0  0  0  0  0  0  0  0
   -2.2769    2.5254   -0.4004 C   0  0  0  0  0  0  0  0  0  0  0  0
   -3.1934    3.5388   -0.2461 C   0  0  0  0  0  0  0  0  0  0  0  0
   -2.8682    4.7861   -0.7796 C   0  0  0  0  0  0  0  0  0  0  0  0
   -1.6820    5.0049   -1.4352 C   0  0  0  0  0  0  0  0  0  0  0  0
   -0.7603    3.9791   -1.5884 C   0  0  0  0  0  0  0  0  0  0  0  0
   -1.0939    2.7719   -1.0627 C   0  0  0  0  0  0  0  0  0  0  0  0
   -0.3588    1.6391   -1.0912 N   0  0  0  0  0  0  0  0  0  0  0  0
   -1.0581    0.6883   -0.4617 C   0  0  0  0  0  0  0  0  0  0  0  0
   -0.6926   -0.6349   -0.2384 C   0  0  0  0  0  0  0  0  0  0  0  0
   -4.4221    0.5762    1.2640 C   0  0  0  0  0  0  0  0  0  0  0  0
   -5.1045    1.6071    1.2867 O   0  0  0  0  0  0  0  0  0  0  0  0
   -4.8160   -0.6820    1.8492 N   0  0  0  0  0  0  0  0  0  0  0  0
   -3.8054   -1.6802    1.6644 C   0  0  0  0  0  0  0  0  0  0  0  0
    0.6794    2.3418    2.1219 H   0  0  0  0  0  0  0  0  0  0  0  0
    2.0062    1.6859    3.2195 H   0  0  0  0  0  0  0  0  0  0  0  0
    2.4091    2.7162    1.8096 H   0  0  0  0  0  0  0  0  0  0  0  0
    2.0865   -0.0762    1.9337 H   0  0  0  0  0  0  0  0  0  0  0  0
    3.5311    1.3125    0.5375 H   0  0  0  0  0  0  0  0  0  0  0  0
    1.4282    2.7722    0.0221 H   0  0  0  0  0  0  0  0  0  0  0  0
    2.7167    2.5946   -1.1842 H   0  0  0  0  0  0  0  0  0  0  0  0
    0.9608    2.2415   -2.5562 H   0  0  0  0  0  0  0  0  0  0  0  0
    2.1393   -1.2718   -3.4735 H   0  0  0  0  0  0  0  0  0  0  0  0
    1.2502   -2.5288   -2.6604 H   0  0  0  0  0  0  0  0  0  0  0  0
    3.0377   -2.1449   -2.2762 H   0  0  0  0  0  0  0  0  0  0  0  0
    3.5905   -0.1908   -1.2264 H   0  0  0  0  0  0  0  0  0  0  0  0
    5.1448   -0.7722    0.4053 H   0  0  0  0  0  0  0  0  0  0  0  0
    4.6408   -2.3447    1.1820 H   0  0  0  0  0  0  0  0  0  0  0  0
    4.6922   -2.1681   -0.5994 H   0  0  0  0  0  0  0  0  0  0  0  0
    2.0372   -3.5714   -0.6953 H   0  0  0  0  0  0  0  0  0  0  0  0
    1.3524   -5.7006    0.3134 H   0  0  0  0  0  0  0  0  0  0  0  0
   -0.8053   -5.9109    1.4714 H   0  0  0  0  0  0  0  0  0  0  0  0
   -2.2853   -3.9244    1.5934 H   0  0  0  0  0  0  0  0  0  0  0  0
   -4.1306    3.4094    0.2589 H   0  0  0  0  0  0  0  0  0  0  0  0
   -3.5945    5.5671   -0.6508 H   0  0  0  0  0  0  0  0  0  0  0  0
   -1.4718    5.9939   -1.8345 H   0  0  0  0  0  0  0  0  0  0  0  0
    0.1758    4.1399   -2.1023 H   0  0  0  0  0  0  0  0  0  0  0  0
   -5.7468   -0.7976    2.3418 H   0  0  0  0  0  0  0  0  0  0  0  0
   -4.2622   -2.5042    1.0610 H   0  0  0  0  0  0  0  0  0  0  0  0
   -3.4144   -2.0837    2.6224 H   0  0  0  0  0  0  0  0  0  0  0  0
  1  2  1  0
  2  3  1  0
  3  4  1  0
  4  5  1  0
  5  6  1  0
  6  7  1  0
  7  8  1  6
  7  9  1  0
  9 10  1  0
 10 11  1  0
  7 12  1  0
 12 13  1  0
 13 14  2  0
 14 15  1  0
 15 16  2  0
 16 17  1  0
 17 18  2  0
 18 19  1  0
 19 20  2  0
 20 21  1  0
 21 22  2  0
 22 23  1  0
 23 24  2  0
 24 25  1  0
 25 26  2  0
 26 27  1  0
 27 28  2  0
 28 29  1  0
 29 30  1  0
 30 31  2  0
 21 32  1  0
 32 33  2  0
 32 34  1  0
 34 35  1  0
  9  3  1  0
 31 12  1  0
 29  5  1  0
 18 13  1  0
 31 19  1  0
 35 20  1  0
 30 22  1  0
 28 23  1  0
  1 36  1  0
  1 37  1  0
  1 38  1  0
  2 39  1  0
  3 40  1  1
  4 41  1  0
  4 42  1  0
  5 43  1  6
  8 44  1  0
  8 45  1  0
  8 46  1  0
  9 47  1  6
 11 48  1  0
 11 49  1  0
 11 50  1  0
 14 51  1  0
 15 52  1  0
 16 53  1  0
 17 54  1  0
 24 55  1  0
 25 56  1  0
 26 57  1  0
 27 58  1  0
 34 59  1  0
 35 60  1  0
 35 61  1  0
M  END
$$$$
