@<TRIPOS>MOLECULE
*****
 61 68 0 0 0
SMALL
GASTEIGER

@<TRIPOS>ATOM
      1 C           1.6918    1.9275    2.1662 C.3     1  UNL1       -0.0155
      2 N           1.7493    0.7300    1.3855 N.3     1  UNL1       -0.3136
      3 C           2.5361    0.9521    0.1795 C.3     1  UNL1        0.0423
      4 C           1.9272    2.0236   -0.6415 C.3     1  UNL1        0.0107
      5 C           0.9611    1.5180   -1.6807 C.3     1  UNL1        0.1402
      6 O           1.1388    0.3029   -2.1466 O.3     1  UNL1       -0.3282
      7 C           1.5659   -0.7537   -1.3929 C.3     1  UNL1        0.1741
      8 C           2.0279   -1.7682   -2.4555 C.3     1  UNL1       -0.0136
      9 C           2.7170   -0.3613   -0.5658 C.3     1  UNL1        0.1214
     10 O           3.1206   -1.2573    0.4117 O.3     1  UNL1       -0.3735
     11 C           4.4448   -1.6393    0.3220 C.3     1  UNL1        0.0371
     12 N           0.4410   -1.2959   -0.6111 N.ar    1  UNL1       -0.3070
     13 C           0.2947   -2.5281   -0.1527 C.ar    1  UNL1        0.0527
     14 C           1.0917   -3.6401   -0.2047 C.ar    1  UNL1       -0.0375
     15 C           0.6906   -4.8302    0.3737 C.ar    1  UNL1       -0.0598
     16 C          -0.5210   -4.9568    1.0267 C.ar    1  UNL1       -0.0611
     17 C          -1.3343   -3.8443    1.0874 C.ar    1  UNL1       -0.0520
     18 C          -0.9190   -2.6730    0.5077 C.ar    1  UNL1        0.0081
     19 C          -1.5341   -1.4374    0.4369 C.ar    1  UNL1        0.0151
     20 C          -2.7463   -0.9593    0.9008 C.ar    1  UNL1       -0.0078
     21 C          -3.1178    0.3740    0.6746 C.ar    1  UNL1        0.0518
     22 C          -2.2615    1.2124   -0.0165 C.ar    1  UNL1        0.0221
     23 C          -2.2769    2.5254   -0.4004 C.ar    1  UNL1        0.0085
     24 C          -3.1934    3.5388   -0.2461 C.ar    1  UNL1       -0.0520
     25 C          -2.8682    4.7861   -0.7796 C.ar    1  UNL1       -0.0611
     26 C          -1.6820    5.0049   -1.4352 C.ar    1  UNL1       -0.0598
     27 C          -0.7603    3.9791   -1.5884 C.ar    1  UNL1       -0.0375
     28 C          -1.0939    2.7719   -1.0627 C.ar    1  UNL1        0.0524
     29 N          -0.3588    1.6391   -1.0912 N.ar    1  UNL1       -0.3115
     30 C          -1.0581    0.6883   -0.4617 C.ar    1  UNL1        0.0774
     31 C          -0.6926   -0.6349   -0.2384 C.ar    1  UNL1        0.0772
     32 C          -4.4221    0.5762    1.2640 C.2     1  UNL1        0.2453
     33 O          -5.1045    1.6071    1.2867 O.2     1  UNL1       -0.2702
     34 N          -4.8160   -0.6820    1.8492 N.am    1  UNL1       -0.3072
     35 C          -3.8054   -1.6802    1.6644 C.3     1  UNL1        0.0385
     36 H           0.6794    2.3418    2.1219 H       1  UNL1        0.0388
     37 H           2.0062    1.6859    3.2195 H       1  UNL1        0.0388
     38 H           2.4091    2.7162    1.8096 H       1  UNL1        0.0388
     39 H           2.0865   -0.0762    1.9337 H       1  UNL1        0.1220
     40 H           3.5311    1.3125    0.5375 H       1  UNL1        0.0489
     41 H           1.4282    2.7722    0.0221 H       1  UNL1        0.0325
     42 H           2.7167    2.5946   -1.1842 H       1  UNL1        0.0325
     43 H           0.9608    2.2415   -2.5562 H       1  UNL1        0.0839
     44 H           2.1393   -1.2718   -3.4735 H       1  UNL1        0.0277
     45 H           1.2502   -2.5288   -2.6604 H       1  UNL1        0.0277
     46 H           3.0377   -2.1449   -2.2762 H       1  UNL1        0.0277
     47 H           3.5905   -0.1908   -1.2264 H       1  UNL1        0.0660
     48 H           5.1448   -0.7722    0.4053 H       1  UNL1        0.0524
     49 H           4.6408   -2.3447    1.1820 H       1  UNL1        0.0524
     50 H           4.6922   -2.1681   -0.5994 H       1  UNL1        0.0524
     51 H           2.0372   -3.5714   -0.6953 H       1  UNL1        0.0638
     52 H           1.3524   -5.7006    0.3134 H       1  UNL1        0.0618
     53 H          -0.8053   -5.9109    1.4714 H       1  UNL1        0.0618
     54 H          -2.2853   -3.9244    1.5934 H       1  UNL1        0.0624
     55 H          -4.1306    3.4094    0.2589 H       1  UNL1        0.0624
     56 H          -3.5945    5.5671   -0.6508 H       1  UNL1        0.0618
     57 H          -1.4718    5.9939   -1.8345 H       1  UNL1        0.0618
     58 H           0.1758    4.1399   -2.1023 H       1  UNL1        0.0638
     59 H          -5.7468   -0.7976    2.3418 H       1  UNL1        0.1493
     60 H          -4.2622   -2.5042    1.0610 H       1  UNL1        0.0512
     61 H          -3.4144   -2.0837    2.6224 H       1  UNL1        0.0512
@<TRIPOS>BOND
     1     1     2    1
     2     2     3    1
     3     3     4    1
     4     4     5    1
     5     5     6    1
     6     6     7    1
     7     7     8    1
     8     7     9    1
     9     9    10    1
    10    10    11    1
    11     7    12    1
    12    12    13   ar
    13    13    14   ar
    14    14    15   ar
    15    15    16   ar
    16    16    17   ar
    17    17    18   ar
    18    18    19   ar
    19    19    20   ar
    20    20    21   ar
    21    21    22   ar
    22    22    23   ar
    23    23    24   ar
    24    24    25   ar
    25    25    26   ar
    26    26    27   ar
    27    27    28   ar
    28    28    29   ar
    29    29    30   ar
    30    30    31   ar
    31    21    32    1
    32    32    33    2
    33    32    34   am
    34    34    35    1
    35     9     3    1
    36    31    12   ar
    37    29     5    1
    38    18    13   ar
    39    31    19   ar
    40    35    20    1
    41    30    22   ar
    42    28    23   ar
    43     1    36    1
    44     1    37    1
    45     1    38    1
    46     2    39    1
    47     3    40    1
    48     4    41    1
    49     4    42    1
    50     5    43    1
    51     8    44    1
    52     8    45    1
    53     8    46    1
    54     9    47    1
    55    11    48    1
    56    11    49    1
    57    11    50    1
    58    14    51    1
    59    15    52    1
    60    16    53    1
    61    17    54    1
    62    24    55    1
    63    25    56    1
    64    26    57    1
    65    27    58    1
    66    34    59    1
    67    35    60    1
    68    35    61    1
