@<TRIPOS>MOLECULE
*****
 58 60 0 0 0
SMALL
GASTEIGER

@<TRIPOS>ATOM
      1 C          -4.8478    2.4265   -1.0125 C.3     1  UNL1       -0.0493
      2 C          -3.7728    1.3346   -0.9852 C.3     1  UNL1        0.0123
      3 N          -3.5694    0.8684    0.3701 N.am    1  UNL1       -0.2945
      4 C          -2.6352    1.4826    1.2208 C.3     1  UNL1        0.0539
      5 C          -1.2601    0.7801    1.3051 C.3     1  UNL1        0.1917
      6 O          -1.4640   -0.5250    1.8191 O.3     1  UNL1       -0.3774
      7 C          -0.7250    0.7414   -0.0591 C.3     1  UNL1        0.0508
      8 N           0.5397    0.1311   -0.3352 N.am    1  UNL1       -0.3081
      9 C           1.8165    0.5866    0.0578 C.2     1  UNL1        0.2490
     10 O           1.9595    1.6468    0.7048 O.2     1  UNL1       -0.2700
     11 C           3.0177   -0.2140   -0.3076 C.ar    1  UNL1        0.0958
     12 C           3.0683   -1.4031   -0.9962 C.ar    1  UNL1        0.0638
     13 N           4.3601   -1.7913   -1.1126 N.ar    1  UNL1       -0.1723
     14 N           5.1183   -0.8681   -0.5103 N.ar    1  UNL1       -0.2182
     15 C           6.5332   -0.9963   -0.4685 C.ar    1  UNL1        0.0676
     16 C           7.2507   -1.6595   -1.4299 C.ar    1  UNL1       -0.0335
     17 C           8.6056   -1.7661   -1.3683 C.ar    1  UNL1       -0.0244
     18 C           9.2919   -1.2000   -0.3209 C.ar    1  UNL1        0.1235
     19 F          10.6483   -1.3100   -0.2641 F       1  UNL1       -0.2055
     20 C           8.5946   -0.5277    0.6592 C.ar    1  UNL1       -0.0244
     21 C           7.2078   -0.4263    0.5834 C.ar    1  UNL1       -0.0335
     22 C           4.3271    0.0966   -0.0154 C.ar    1  UNL1        0.1320
     23 N           4.7635    1.2330    0.6816 N.pl3   1  UNL1       -0.3424
     24 C          -0.5331    1.5180    2.3846 C.3     1  UNL1        0.4212
     25 F          -0.3365    2.8395    2.1264 F       1  UNL1       -0.1675
     26 F           0.4843    0.8429    2.9826 F       1  UNL1       -0.1675
     27 F          -1.5283    1.5622    3.4457 F       1  UNL1       -0.1675
     28 C          -4.3854   -0.2020    0.8266 C.2     1  UNL1        0.2523
     29 O          -4.2097   -0.6052    2.0083 O.2     1  UNL1       -0.2698
     30 C          -5.3957   -0.8308   -0.0165 C.ar    1  UNL1        0.1070
     31 C          -6.7260   -0.5126    0.1309 C.ar    1  UNL1        0.1383
     32 F          -7.1221    0.3897    1.0682 F       1  UNL1       -0.2046
     33 C          -7.6691   -1.1318   -0.6941 C.ar    1  UNL1       -0.0255
     34 C          -7.3054   -2.0531   -1.6517 C.ar    1  UNL1       -0.0563
     35 C          -5.9695   -2.3616   -1.7871 C.ar    1  UNL1       -0.0255
     36 C          -5.0124   -1.7503   -0.9689 C.ar    1  UNL1        0.1383
     37 F          -3.6924   -2.0324   -1.0724 F       1  UNL1       -0.2046
     38 H          -5.2499    2.4537   -2.0456 H       1  UNL1        0.0245
     39 H          -5.6614    2.1617   -0.3334 H       1  UNL1        0.0245
     40 H          -4.4090    3.4311   -0.8321 H       1  UNL1        0.0245
     41 H          -4.1024    0.5524   -1.6876 H       1  UNL1        0.0462
     42 H          -2.8807    1.8248   -1.4251 H       1  UNL1        0.0462
     43 H          -2.9997    1.5166    2.2876 H       1  UNL1        0.0496
     44 H          -2.3859    2.5349    0.9659 H       1  UNL1        0.0496
     45 H          -1.5739   -0.4755    2.7811 H       1  UNL1        0.2106
     46 H          -1.4920    0.1700   -0.6904 H       1  UNL1        0.0494
     47 H          -0.6973    1.7552   -0.5465 H       1  UNL1        0.0494
     48 H           0.5664   -0.7922   -0.9108 H       1  UNL1        0.1491
     49 H           2.1931   -1.9230   -1.3739 H       1  UNL1        0.0856
     50 H           6.7217   -2.1140   -2.2668 H       1  UNL1        0.0640
     51 H           9.1409   -2.3088   -2.1633 H       1  UNL1        0.0647
     52 H           9.1254   -0.0800    1.4857 H       1  UNL1        0.0647
     53 H           6.7365    0.1145    1.3877 H       1  UNL1        0.0640
     54 H           4.6437    1.3208    1.7153 H       1  UNL1        0.1437
     55 H           5.2309    2.0525    0.2070 H       1  UNL1        0.1437
     56 H          -8.6943   -0.8748   -0.5681 H       1  UNL1        0.0646
     57 H          -8.0152   -2.5486   -2.3053 H       1  UNL1        0.0619
     58 H          -5.6242   -3.0840   -2.5285 H       1  UNL1        0.0646
@<TRIPOS>BOND
     1     1     2    1
     2     2     3    1
     3     3     4    1
     4     4     5    1
     5     5     6    1
     6     5     7    1
     7     7     8    1
     8     8     9   am
     9     9    10    2
    10     9    11    1
    11    11    12   ar
    12    12    13   ar
    13    13    14   ar
    14    14    15    1
    15    15    16   ar
    16    16    17   ar
    17    17    18   ar
    18    18    19    1
    19    18    20   ar
    20    20    21   ar
    21    14    22   ar
    22    22    23    1
    23     5    24    1
    24    24    25    1
    25    24    26    1
    26    24    27    1
    27     3    28   am
    28    28    29    2
    29    28    30    1
    30    30    31   ar
    31    31    32    1
    32    31    33   ar
    33    33    34   ar
    34    34    35   ar
    35    35    36   ar
    36    36    37    1
    37    22    11   ar
    38    36    30   ar
    39    21    15   ar
    40     1    38    1
    41     1    39    1
    42     1    40    1
    43     2    41    1
    44     2    42    1
    45     4    43    1
    46     4    44    1
    47     6    45    1
    48     7    46    1
    49     7    47    1
    50     8    48    1
    51    12    49    1
    52    16    50    1
    53    17    51    1
    54    20    52    1
    55    21    53    1
    56    23    54    1
    57    23    55    1
    58    33    56    1
    59    34    57    1
    60    35    58    1
