
     RDKit          3D

 58 60  0  0  0  0  0  0  0  0999 V2000
   -4.8478    2.4265   -1.0125 C   0  0  0  0  0  0  0  0  0  0  0  0
   -3.7728    1.3346   -0.9852 C   0  0  0  0  0  0  0  0  0  0  0  0
   -3.5694    0.8684    0.3701 N   0  0  0  0  0  0  0  0  0  0  0  0
   -2.6352    1.4826    1.2208 C   0  0  0  0  0  0  0  0  0  0  0  0
   -1.2601    0.7801    1.3051 C   0  0  0  0  0  0  0  0  0  0  0  0
   -1.4640   -0.5250    1.8191 O   0  0  0  0  0  0  0  0  0  0  0  0
   -0.7250    0.7414   -0.0591 C   0  0  0  0  0  0  0  0  0  0  0  0
    0.5397    0.1311   -0.3352 N   0  0  0  0  0  0  0  0  0  0  0  0
    1.8165    0.5866    0.0578 C   0  0  0  0  0  0  0  0  0  0  0  0
    1.9595    1.6468    0.7048 O   0  0  0  0  0  0  0  0  0  0  0  0
    3.0177   -0.2140   -0.3076 C   0  0  0  0  0  0  0  0  0  0  0  0
    3.0683   -1.4031   -0.9962 C   0  0  0  0  0  0  0  0  0  0  0  0
    4.3601   -1.7913   -1.1126 N   0  0  0  0  0  0  0  0  0  0  0  0
    5.1183   -0.8681   -0.5103 N   0  0  0  0  0  0  0  0  0  0  0  0
    6.5332   -0.9963   -0.4685 C   0  0  0  0  0  0  0  0  0  0  0  0
    7.2507   -1.6595   -1.4299 C   0  0  0  0  0  0  0  0  0  0  0  0
    8.6056   -1.7661   -1.3683 C   0  0  0  0  0  0  0  0  0  0  0  0
    9.2919   -1.2000   -0.3209 C   0  0  0  0  0  0  0  0  0  0  0  0
   10.6483   -1.3100   -0.2641 F   0  0  0  0  0  0  0  0  0  0  0  0
    8.5946   -0.5277    0.6592 C   0  0  0  0  0  0  0  0  0  0  0  0
    7.2078   -0.4263    0.5834 C   0  0  0  0  0  0  0  0  0  0  0  0
    4.3271    0.0966   -0.0154 C   0  0  0  0  0  0  0  0  0  0  0  0
    4.7635    1.2330    0.6816 N   0  0  0  0  0  0  0  0  0  0  0  0
   -0.5331    1.5180    2.3846 C   0  0  0  0  0  0  0  0  0  0  0  0
   -0.3365    2.8395    2.1264 F   0  0  0  0  0  0  0  0  0  0  0  0
    0.4843    0.8429    2.9826 F   0  0  0  0  0  0  0  0  0  0  0  0
   -1.5283    1.5622    3.4457 F   0  0  0  0  0  0  0  0  0  0  0  0
   -4.3854   -0.2020    0.8266 C   0  0  0  0  0  0  0  0  0  0  0  0
   -4.2097   -0.6052    2.0083 O   0  0  0  0  0  0  0  0  0  0  0  0
   -5.3957   -0.8308   -0.0165 C   0  0  0  0  0  0  0  0  0  0  0  0
   -6.7260   -0.5126    0.1309 C   0  0  0  0  0  0  0  0  0  0  0  0
   -7.1221    0.3897    1.0682 F   0  0  0  0  0  0  0  0  0  0  0  0
   -7.6691   -1.1318   -0.6941 C   0  0  0  0  0  0  0  0  0  0  0  0
   -7.3054   -2.0531   -1.6517 C   0  0  0  0  0  0  0  0  0  0  0  0
   -5.9695   -2.3616   -1.7871 C   0  0  0  0  0  0  0  0  0  0  0  0
   -5.0124   -1.7503   -0.9689 C   0  0  0  0  0  0  0  0  0  0  0  0
   -3.6924   -2.0324   -1.0724 F   0  0  0  0  0  0  0  0  0  0  0  0
   -5.2499    2.4537   -2.0456 H   0  0  0  0  0  0  0  0  0  0  0  0
   -5.6614    2.1617   -0.3334 H   0  0  0  0  0  0  0  0  0  0  0  0
   -4.4090    3.4311   -0.8321 H   0  0  0  0  0  0  0  0  0  0  0  0
   -4.1024    0.5524   -1.6876 H   0  0  0  0  0  0  0  0  0  0  0  0
   -2.8807    1.8248   -1.4251 H   0  0  0  0  0  0  0  0  0  0  0  0
   -2.9997    1.5166    2.2876 H   0  0  0  0  0  0  0  0  0  0  0  0
   -2.3859    2.5349    0.9659 H   0  0  0  0  0  0  0  0  0  0  0  0
   -1.5739   -0.4755    2.7811 H   0  0  0  0  0  0  0  0  0  0  0  0
   -1.4920    0.1700   -0.6904 H   0  0  0  0  0  0  0  0  0  0  0  0
   -0.6973    1.7552   -0.5465 H   0  0  0  0  0  0  0  0  0  0  0  0
    0.5664   -0.7922   -0.9108 H   0  0  0  0  0  0  0  0  0  0  0  0
    2.1931   -1.9230   -1.3739 H   0  0  0  0  0  0  0  0  0  0  0  0
    6.7217   -2.1140   -2.2668 H   0  0  0  0  0  0  0  0  0  0  0  0
    9.1409   -2.3088   -2.1633 H   0  0  0  0  0  0  0  0  0  0  0  0
    9.1254   -0.0800    1.4857 H   0  0  0  0  0  0  0  0  0  0  0  0
    6.7365    0.1145    1.3877 H   0  0  0  0  0  0  0  0  0  0  0  0
    4.6437    1.3208    1.7153 H   0  0  0  0  0  0  0  0  0  0  0  0
    5.2309    2.0525    0.2070 H   0  0  0  0  0  0  0  0  0  0  0  0
   -8.6943   -0.8748   -0.5681 H   0  0  0  0  0  0  0  0  0  0  0  0
   -8.0152   -2.5486   -2.3053 H   0  0  0  0  0  0  0  0  0  0  0  0
   -5.6242   -3.0840   -2.5285 H   0  0  0  0  0  0  0  0  0  0  0  0
  1  2  1  0
  2  3  1  0
  3  4  1  0
  4  5  1  0
  5  6  1  0
  5  7  1  0
  7  8  1  0
  8  9  1  0
  9 10  2  0
  9 11  1  0
 11 12  1  0
 12 13  2  0
 13 14  1  0
 14 15  1  0
 15 16  2  0
 16 17  1  0
 17 18  2  0
 18 19  1  0
 18 20  1  0
 20 21  2  0
 14 22  1  0
 22 23  1  0
  5 24  1  0
 24 25  1  0
 24 26  1  0
 24 27  1  0
  3 28  1  0
 28 29  2  0
 28 30  1  0
 30 31  2  0
 31 32  1  0
 31 33  1  0
 33 34  2  0
 34 35  1  0
 35 36  2  0
 36 37  1  0
 22 11  2  0
 36 30  1  0
 21 15  1  0
  1 38  1  0
  1 39  1  0
  1 40  1  0
  2 41  1  0
  2 42  1  0
  4 43  1  0
  4 44  1  0
  6 45  1  0
  7 46  1  0
  7 47  1  0
  8 48  1  0
 12 49  1  0
 16 50  1  0
 17 51  1  0
 20 52  1  0
 21 53  1  0
 23 54  1  0
 23 55  1  0
 33 56  1  0
 34 57  1  0
 35 58  1  0
M  END
$$$$
