
     RDKit          3D

 53 56  0  0  0  0  0  0  0  0999 V2000
    4.4701    2.5498   -0.3619 C   0  0  0  0  0  0  0  0  0  0  0  0
    4.9412    1.1725   -0.7526 C   0  0  0  0  0  0  0  0  0  0  0  0
    6.1313    1.0234   -1.4667 C   0  0  0  0  0  0  0  0  0  0  0  0
    6.5889   -0.2195   -1.8385 C   0  0  0  0  0  0  0  0  0  0  0  0
    7.8494   -0.3384   -2.5916 C   0  0  0  0  0  0  0  0  0  0  0  0
    7.5733   -0.9165   -3.8141 F   0  0  0  0  0  0  0  0  0  0  0  0
    8.7814   -1.1026   -1.9263 F   0  0  0  0  0  0  0  0  0  0  0  0
    5.8338   -1.3174   -1.4832 C   0  0  0  0  0  0  0  0  0  0  0  0
    4.6826   -1.1486   -0.7904 N   0  0  0  0  0  0  0  0  0  0  0  0
    4.2174    0.0516   -0.4177 C   0  0  0  0  0  0  0  0  0  0  0  0
    2.9829    0.1914    0.3218 C   0  0  0  0  0  0  0  0  0  0  0  0
    2.5516    1.3147    0.6682 O   0  0  0  0  0  0  0  0  0  0  0  0
    2.1786   -0.9280    0.7044 N   0  0  0  0  0  0  0  0  0  0  0  0
    0.9709   -0.7614    1.4304 C   0  0  0  0  0  0  0  0  0  0  0  0
    1.0383   -0.7713    2.8057 C   0  0  0  0  0  0  0  0  0  0  0  0
   -0.0730   -0.6178    3.5623 C   0  0  0  0  0  0  0  0  0  0  0  0
   -1.3135   -0.4458    2.9804 C   0  0  0  0  0  0  0  0  0  0  0  0
   -2.4028   -0.2815    3.8140 F   0  0  0  0  0  0  0  0  0  0  0  0
   -1.4183   -0.4313    1.6137 C   0  0  0  0  0  0  0  0  0  0  0  0
   -2.7555   -0.2603    1.0021 C   0  0  1  0  0  0  0  0  0  0  0  0
   -3.3334    1.0429    1.4534 C   0  0  0  0  0  0  0  0  0  0  0  0
   -2.6751   -0.2501   -0.4493 N   0  0  0  0  0  0  0  0  0  0  0  0
   -3.7521   -0.1509   -1.1267 C   0  0  0  0  0  0  0  0  0  0  0  0
   -3.6574   -0.1423   -2.5436 N   0  0  0  0  0  0  0  0  0  0  0  0
   -5.0985   -0.0445   -0.5236 C   0  0  0  0  0  0  0  0  0  0  0  0
   -6.2910    0.0734   -1.4164 C   0  0  0  0  0  0  0  0  0  0  0  0
   -5.8910    1.1992   -0.5625 C   0  0  0  0  0  0  0  0  0  0  0  0
   -5.2635   -1.2082    0.8095 S   0  0  0  0  0  6  0  0  0  0  0  0
   -6.1606   -0.6907    1.8716 O   0  0  0  0  0  0  0  0  0  0  0  0
   -5.8004   -2.4902    0.2043 O   0  0  0  0  0  0  0  0  0  0  0  0
   -3.5979   -1.4677    1.4330 C   0  0  1  0  0  0  0  0  0  0  0  0
   -3.0718   -2.5568    0.7612 F   0  0  0  0  0  0  0  0  0  0  0  0
   -0.2712   -0.5895    0.8620 C   0  0  0  0  0  0  0  0  0  0  0  0
    5.2134    3.2836   -0.7435 H   0  0  0  0  0  0  0  0  0  0  0  0
    4.4434    2.6796    0.7299 H   0  0  0  0  0  0  0  0  0  0  0  0
    3.5328    2.7541   -0.8846 H   0  0  0  0  0  0  0  0  0  0  0  0
    6.6852    1.9071   -1.7209 H   0  0  0  0  0  0  0  0  0  0  0  0
    8.2907    0.6436   -2.7712 H   0  0  0  0  0  0  0  0  0  0  0  0
    6.2049   -2.2882   -1.7817 H   0  0  0  0  0  0  0  0  0  0  0  0
    2.5064   -1.8737    0.4337 H   0  0  0  0  0  0  0  0  0  0  0  0
    2.0220   -0.9077    3.2850 H   0  0  0  0  0  0  0  0  0  0  0  0
   -0.0139   -0.6264    4.6485 H   0  0  0  0  0  0  0  0  0  0  0  0
   -2.7252    1.5081    2.2850 H   0  0  0  0  0  0  0  0  0  0  0  0
   -3.3393    1.8163    0.6575 H   0  0  0  0  0  0  0  0  0  0  0  0
   -4.3512    0.8295    1.8611 H   0  0  0  0  0  0  0  0  0  0  0  0
   -3.3412   -1.0180   -3.0103 H   0  0  0  0  0  0  0  0  0  0  0  0
   -3.8859    0.6859   -3.1268 H   0  0  0  0  0  0  0  0  0  0  0  0
   -6.1580    0.2190   -2.5139 H   0  0  0  0  0  0  0  0  0  0  0  0
   -7.2087   -0.4733   -1.1670 H   0  0  0  0  0  0  0  0  0  0  0  0
   -6.5181    1.4905    0.3113 H   0  0  0  0  0  0  0  0  0  0  0  0
   -5.3597    2.0768   -1.0285 H   0  0  0  0  0  0  0  0  0  0  0  0
   -3.6209   -1.6146    2.5030 H   0  0  0  0  0  0  0  0  0  0  0  0
   -0.3414   -0.5794   -0.2278 H   0  0  0  0  0  0  0  0  0  0  0  0
  1  2  1  0
  2  3  2  0
  3  4  1  0
  4  5  1  0
  5  6  1  0
  5  7  1  0
  4  8  2  0
  8  9  1  0
  9 10  2  0
 10 11  1  0
 11 12  2  0
 11 13  1  0
 13 14  1  0
 14 15  2  0
 15 16  1  0
 16 17  2  0
 17 18  1  0
 17 19  1  0
 19 20  1  0
 20 21  1  1
 20 22  1  0
 22 23  2  0
 23 24  1  0
 23 25  1  0
 25 26  1  0
 26 27  1  0
 25 28  1  0
 28 29  2  0
 28 30  2  0
 28 31  1  0
 31 32  1  0
 19 33  2  0
 10  2  1  0
 33 14  1  0
 31 20  1  0
 27 25  1  0
  1 34  1  0
  1 35  1  0
  1 36  1  0
  3 37  1  0
  5 38  1  0
  8 39  1  0
 13 40  1  0
 15 41  1  0
 16 42  1  0
 21 43  1  0
 21 44  1  0
 21 45  1  0
 24 46  1  0
 24 47  1  0
 26 48  1  0
 26 49  1  0
 27 50  1  0
 27 51  1  0
 31 52  1  1
 33 53  1  0
M  END
$$$$
