@<TRIPOS>MOLECULE
*****
 53 56 0 0 0
SMALL
GASTEIGER

@<TRIPOS>ATOM
      1 C           4.4701    2.5498   -0.3619 C.3     1  UNL1       -0.0375
      2 C           4.9412    1.1725   -0.7526 C.ar    1  UNL1       -0.0195
      3 C           6.1313    1.0234   -1.4667 C.ar    1  UNL1       -0.0467
      4 C           6.5889   -0.2195   -1.8385 C.ar    1  UNL1        0.0358
      5 C           7.8494   -0.3384   -2.5916 C.3     1  UNL1        0.2658
      6 F           7.5733   -0.9165   -3.8141 F       1  UNL1       -0.2039
      7 F           8.7814   -1.1026   -1.9263 F       1  UNL1       -0.2039
      8 C           5.8338   -1.3174   -1.4832 C.ar    1  UNL1        0.0369
      9 N           4.6826   -1.1486   -0.7904 N.ar    1  UNL1       -0.2496
     10 C           4.2174    0.0516   -0.4177 C.ar    1  UNL1        0.1286
     11 C           2.9829    0.1914    0.3218 C.2     1  UNL1        0.2668
     12 O           2.5516    1.3147    0.6682 O.2     1  UNL1       -0.2682
     13 N           2.1786   -0.9280    0.7044 N.am    1  UNL1       -0.2802
     14 C           0.9709   -0.7614    1.4304 C.ar    1  UNL1        0.0343
     15 C           1.0383   -0.7713    2.8057 C.ar    1  UNL1       -0.0377
     16 C          -0.0730   -0.6178    3.5623 C.ar    1  UNL1       -0.0243
     17 C          -1.3135   -0.4458    2.9804 C.ar    1  UNL1        0.1312
     18 F          -2.4028   -0.2815    3.8140 F       1  UNL1       -0.2050
     19 C          -1.4183   -0.4313    1.6137 C.ar    1  UNL1        0.0450
     20 C          -2.7555   -0.2603    1.0021 C.3     1  UNL1        0.2272
     21 C          -3.3334    1.0429    1.4534 C.3     1  UNL1       -0.0082
     22 N          -2.6751   -0.2501   -0.4493 N.2     1  UNL1       -0.0696
     23 C          -3.7521   -0.1509   -1.1267 C.2     1  UNL1        0.3075
     24 N          -3.6574   -0.1423   -2.5436 N.pl3   1  UNL1       -0.2488
     25 C          -5.0985   -0.0445   -0.5236 C.3     1  UNL1        0.1919
     26 C          -6.2910    0.0734   -1.4164 C.3     1  UNL1       -0.0138
     27 C          -5.8910    1.1992   -0.5625 C.3     1  UNL1       -0.0138
     28 S          -5.2635   -1.2082    0.8095 S.O2    1  UNL1        0.0220
     29 O          -6.1606   -0.6907    1.8716 O.2     1  UNL1       -0.1703
     30 O          -5.8004   -2.4902    0.2043 O.2     1  UNL1       -0.1703
     31 C          -3.5979   -1.4677    1.4330 C.3     1  UNL1        0.2674
     32 F          -3.0718   -2.5568    0.7612 F       1  UNL1       -0.2156
     33 C          -0.2712   -0.5895    0.8620 C.ar    1  UNL1       -0.0300
     34 H           5.2134    3.2836   -0.7435 H       1  UNL1        0.0278
     35 H           4.4434    2.6796    0.7299 H       1  UNL1        0.0278
     36 H           3.5328    2.7541   -0.8846 H       1  UNL1        0.0278
     37 H           6.6852    1.9071   -1.7209 H       1  UNL1        0.0626
     38 H           8.2907    0.6436   -2.7712 H       1  UNL1        0.1072
     39 H           6.2049   -2.2882   -1.7817 H       1  UNL1        0.0834
     40 H           2.5064   -1.8737    0.4337 H       1  UNL1        0.1552
     41 H           2.0220   -0.9077    3.2850 H       1  UNL1        0.0637
     42 H          -0.0139   -0.6264    4.6485 H       1  UNL1        0.0647
     43 H          -2.7252    1.5081    2.2850 H       1  UNL1        0.0280
     44 H          -3.3393    1.8163    0.6575 H       1  UNL1        0.0280
     45 H          -4.3512    0.8295    1.8611 H       1  UNL1        0.0280
     46 H          -3.3412   -1.0180   -3.0103 H       1  UNL1        0.2881
     47 H          -3.8859    0.6859   -3.1268 H       1  UNL1        0.2881
     48 H          -6.1580    0.2190   -2.5139 H       1  UNL1        0.0293
     49 H          -7.2087   -0.4733   -1.1670 H       1  UNL1        0.0293
     50 H          -6.5181    1.4905    0.3113 H       1  UNL1        0.0293
     51 H          -5.3597    2.0768   -1.0285 H       1  UNL1        0.0293
     52 H          -3.6209   -1.6146    2.5030 H       1  UNL1        0.0951
     53 H          -0.3414   -0.5794   -0.2278 H       1  UNL1        0.0641
@<TRIPOS>BOND
     1     1     2    1
     2     2     3   ar
     3     3     4   ar
     4     4     5    1
     5     5     6    1
     6     5     7    1
     7     4     8   ar
     8     8     9   ar
     9     9    10   ar
    10    10    11    1
    11    11    12    2
    12    11    13   am
    13    13    14    1
    14    14    15   ar
    15    15    16   ar
    16    16    17   ar
    17    17    18    1
    18    17    19   ar
    19    19    20    1
    20    20    21    1
    21    20    22    1
    22    22    23    2
    23    23    24    1
    24    23    25    1
    25    25    26    1
    26    26    27    1
    27    25    28    1
    28    28    29    2
    29    28    30    2
    30    28    31    1
    31    31    32    1
    32    19    33   ar
    33    10     2   ar
    34    33    14   ar
    35    31    20    1
    36    27    25    1
    37     1    34    1
    38     1    35    1
    39     1    36    1
    40     3    37    1
    41     5    38    1
    42     8    39    1
    43    13    40    1
    44    15    41    1
    45    16    42    1
    46    21    43    1
    47    21    44    1
    48    21    45    1
    49    24    46    1
    50    24    47    1
    51    26    48    1
    52    26    49    1
    53    27    50    1
    54    27    51    1
    55    31    52    1
    56    33    53    1
