
     RDKit          3D

 49 52  0  0  0  0  0  0  0  0999 V2000
   -0.2457   -2.7854    0.3338 O   0  0  0  0  0  0  0  0  0  0  0  0
   -0.4186   -1.5394    0.4290 C   0  0  0  0  0  0  0  0  0  0  0  0
    0.5489   -0.5606    0.9228 C   0  0  0  0  0  0  0  0  0  0  0  0
    1.9810   -0.9697    0.7462 C   0  0  0  0  0  0  0  0  0  0  0  0
    2.3587   -1.1974   -0.6911 C   0  0  0  0  0  0  0  0  0  0  0  0
    4.1110   -1.6854   -0.7604 S   0  0  0  0  0  0  0  0  0  0  0  0
    4.2659   -2.9112    0.1620 O   0  0  0  0  0  0  0  0  0  0  0  0
    5.1009   -0.3888   -0.0686 C   0  0  0  0  0  0  0  0  0  0  0  0
    5.5554    0.5958   -0.9437 C   0  0  0  0  0  0  0  0  0  0  0  0
    6.3419    1.6552   -0.4835 C   0  0  0  0  0  0  0  0  0  0  0  0
    6.6387    1.6672    0.8788 C   0  0  0  0  0  0  0  0  0  0  0  0
    6.1971    0.7025    1.7538 C   0  0  0  0  0  0  0  0  0  0  0  0
    5.4220   -0.3326    1.2724 C   0  0  0  0  0  0  0  0  0  0  0  0
    0.1966    0.6349    0.1107 C   0  0  0  0  0  0  0  0  0  0  0  0
    0.8077    1.6177   -0.3781 O   0  0  0  0  0  0  0  0  0  0  0  0
   -1.2134    0.5567   -0.1208 N   0  0  0  0  0  0  0  0  0  0  0  0
   -1.6027   -0.7934    0.0756 N   0  0  0  0  0  0  0  0  0  0  0  0
   -2.8973   -1.4226   -0.0278 C   0  0  0  0  0  0  0  0  0  0  0  0
   -3.4110   -1.9796   -1.1785 C   0  0  0  0  0  0  0  0  0  0  0  0
   -4.6700   -2.5577   -1.1572 C   0  0  0  0  0  0  0  0  0  0  0  0
   -5.4041   -2.5729    0.0170 C   0  0  0  0  0  0  0  0  0  0  0  0
   -4.9365   -2.0290    1.1977 C   0  0  0  0  0  0  0  0  0  0  0  0
   -3.6680   -1.4607    1.1253 C   0  0  0  0  0  0  0  0  0  0  0  0
   -2.2477    1.4812   -0.4830 C   0  0  0  0  0  0  0  0  0  0  0  0
   -2.6575    1.8054   -1.7615 C   0  0  0  0  0  0  0  0  0  0  0  0
   -3.6744    2.7211   -1.9377 C   0  0  0  0  0  0  0  0  0  0  0  0
   -4.3237    3.3489   -0.8882 C   0  0  0  0  0  0  0  0  0  0  0  0
   -3.9293    3.0394    0.4102 C   0  0  0  0  0  0  0  0  0  0  0  0
   -2.9095    2.1205    0.5701 C   0  0  0  0  0  0  0  0  0  0  0  0
    0.3418   -0.3378    1.9774 H   0  0  0  0  0  0  0  0  0  0  0  0
    2.6246   -0.1933    1.1956 H   0  0  0  0  0  0  0  0  0  0  0  0
    2.1366   -1.9033    1.3158 H   0  0  0  0  0  0  0  0  0  0  0  0
    1.7307   -1.9227   -1.2039 H   0  0  0  0  0  0  0  0  0  0  0  0
    2.3069   -0.2074   -1.2112 H   0  0  0  0  0  0  0  0  0  0  0  0
    5.3120    0.5702   -2.0122 H   0  0  0  0  0  0  0  0  0  0  0  0
    6.7057    2.4303   -1.1434 H   0  0  0  0  0  0  0  0  0  0  0  0
    7.2493    2.4684    1.3016 H   0  0  0  0  0  0  0  0  0  0  0  0
    6.4473    0.7444    2.8042 H   0  0  0  0  0  0  0  0  0  0  0  0
    5.0509   -1.1211    1.9395 H   0  0  0  0  0  0  0  0  0  0  0  0
   -2.7776   -1.9300   -2.0602 H   0  0  0  0  0  0  0  0  0  0  0  0
   -5.0618   -2.9949   -2.0796 H   0  0  0  0  0  0  0  0  0  0  0  0
   -6.3949   -3.0228    0.0522 H   0  0  0  0  0  0  0  0  0  0  0  0
   -5.4767   -2.0212    2.1306 H   0  0  0  0  0  0  0  0  0  0  0  0
   -3.2749   -1.0241    2.0430 H   0  0  0  0  0  0  0  0  0  0  0  0
   -2.1323    1.3001   -2.5434 H   0  0  0  0  0  0  0  0  0  0  0  0
   -3.9786    2.9589   -2.9640 H   0  0  0  0  0  0  0  0  0  0  0  0
   -5.1218    4.0663   -1.0620 H   0  0  0  0  0  0  0  0  0  0  0  0
   -4.3911    3.4903    1.2740 H   0  0  0  0  0  0  0  0  0  0  0  0
   -2.6126    1.8894    1.6003 H   0  0  0  0  0  0  0  0  0  0  0  0
  1  2  2  0
  2  3  1  0
  3  4  1  0
  4  5  1  0
  5  6  1  0
  6  7  2  0
  6  8  1  0
  8  9  2  0
  9 10  1  0
 10 11  2  0
 11 12  1  0
 12 13  2  0
  3 14  1  0
 14 15  2  0
 14 16  1  0
 16 17  1  0
 17 18  1  0
 18 19  2  0
 19 20  1  0
 20 21  2  0
 21 22  1  0
 22 23  2  0
 16 24  1  0
 24 25  2  0
 25 26  1  0
 26 27  2  0
 27 28  1  0
 28 29  2  0
 17  2  1  0
 23 18  1  0
 29 24  1  0
 13  8  1  0
  3 30  1  0
  4 31  1  0
  4 32  1  0
  5 33  1  0
  5 34  1  0
  9 35  1  0
 10 36  1  0
 11 37  1  0
 12 38  1  0
 13 39  1  0
 19 40  1  0
 20 41  1  0
 21 42  1  0
 22 43  1  0
 23 44  1  0
 25 45  1  0
 26 46  1  0
 27 47  1  0
 28 48  1  0
 29 49  1  0
M  END
$$$$
