@<TRIPOS>MOLECULE
*****
 45 48 0 0 0
SMALL
GASTEIGER

@<TRIPOS>ATOM
      1 O           5.5452    1.3613   -1.7008 O.2     1  UNL1       -0.2753
      2 C           5.5546    0.2436   -1.1297 C.2     1  UNL1        0.2198
      3 C           6.8085   -0.5818   -1.0188 C.3     1  UNL1        0.0259
      4 C           6.2246   -1.9635   -0.8190 C.3     1  UNL1       -0.0285
      5 C           5.0066   -1.6953    0.0091 C.3     1  UNL1        0.0202
      6 N           4.4861   -0.4488   -0.5081 N.am    1  UNL1       -0.2714
      7 C           3.1495    0.0065   -0.4147 C.ar    1  UNL1        0.0364
      8 C           2.1817   -0.2622   -1.3597 C.ar    1  UNL1       -0.0384
      9 C           0.8710    0.2158   -1.2148 C.ar    1  UNL1       -0.0336
     10 C           0.5375    0.9636   -0.1182 C.ar    1  UNL1        0.1056
     11 S          -1.0808    1.5572    0.0682 S.O2    1  UNL1        0.0611
     12 O          -1.7334    1.7405   -1.2927 O.2     1  UNL1       -0.1528
     13 O          -1.1173    2.8927    0.7323 O.2     1  UNL1       -0.1528
     14 N          -1.9850    0.3805    0.9472 N.3     1  UNL1       -0.1720
     15 C          -2.0765   -0.8694    0.2857 C.3     1  UNL1        0.0248
     16 C          -3.4549   -1.4823    0.2576 C.3     1  UNL1       -0.0129
     17 C          -4.5112   -0.4673    0.0289 C.ar    1  UNL1       -0.0416
     18 C          -5.6029   -0.6498   -0.7776 C.ar    1  UNL1       -0.0582
     19 C          -6.5200    0.3787   -0.9085 C.ar    1  UNL1       -0.0615
     20 C          -6.3951    1.5914   -0.2649 C.ar    1  UNL1       -0.0614
     21 C          -5.2745    1.7507    0.5500 C.ar    1  UNL1       -0.0570
     22 C          -4.3500    0.7364    0.6923 C.ar    1  UNL1       -0.0285
     23 C          -3.1698    0.8921    1.5454 C.3     1  UNL1        0.0458
     24 C           1.4805    1.2434    0.8331 C.ar    1  UNL1       -0.0336
     25 C           2.7887    0.7646    0.6854 C.ar    1  UNL1       -0.0384
     26 H           7.3611   -0.4797   -1.9547 H       1  UNL1        0.0359
     27 H           7.3319   -0.2296   -0.1225 H       1  UNL1        0.0359
     28 H           6.9524   -2.6389   -0.3164 H       1  UNL1        0.0285
     29 H           5.9032   -2.3351   -1.8077 H       1  UNL1        0.0285
     30 H           5.2518   -1.5161    1.0810 H       1  UNL1        0.0469
     31 H           4.2845   -2.5343   -0.0923 H       1  UNL1        0.0469
     32 H           2.4384   -0.8496   -2.2237 H       1  UNL1        0.0637
     33 H           0.1694   -0.0447   -2.0123 H       1  UNL1        0.0638
     34 H          -1.7507   -0.7717   -0.7773 H       1  UNL1        0.0447
     35 H          -1.3550   -1.5698    0.7606 H       1  UNL1        0.0447
     36 H          -3.5140   -2.2093   -0.5752 H       1  UNL1        0.0326
     37 H          -3.6058   -2.0151    1.2208 H       1  UNL1        0.0326
     38 H          -5.7122   -1.6019   -1.2903 H       1  UNL1        0.0620
     39 H          -7.3742    0.2366   -1.5392 H       1  UNL1        0.0618
     40 H          -7.1336    2.3881   -0.3849 H       1  UNL1        0.0618
     41 H          -5.1183    2.6825    1.0844 H       1  UNL1        0.0621
     42 H          -2.9964    1.9757    1.7694 H       1  UNL1        0.0493
     43 H          -3.3105    0.4024    2.5522 H       1  UNL1        0.0493
     44 H           1.2767    1.8296    1.7218 H       1  UNL1        0.0638
     45 H           3.5381    0.9824    1.4338 H       1  UNL1        0.0637
@<TRIPOS>BOND
     1     1     2    2
     2     2     3    1
     3     3     4    1
     4     4     5    1
     5     5     6    1
     6     6     7    1
     7     7     8   ar
     8     8     9   ar
     9     9    10   ar
    10    10    11    1
    11    11    12    2
    12    11    13    2
    13    11    14    1
    14    14    15    1
    15    15    16    1
    16    16    17    1
    17    17    18   ar
    18    18    19   ar
    19    19    20   ar
    20    20    21   ar
    21    21    22   ar
    22    22    23    1
    23    10    24   ar
    24    24    25   ar
    25     6     2   am
    26    25     7   ar
    27    23    14    1
    28    22    17   ar
    29     3    26    1
    30     3    27    1
    31     4    28    1
    32     4    29    1
    33     5    30    1
    34     5    31    1
    35     8    32    1
    36     9    33    1
    37    15    34    1
    38    15    35    1
    39    16    36    1
    40    16    37    1
    41    18    38    1
    42    19    39    1
    43    20    40    1
    44    21    41    1
    45    23    42    1
    46    23    43    1
    47    24    44    1
    48    25    45    1
