
     RDKit          3D

 45 48  0  0  0  0  0  0  0  0999 V2000
    5.5452    1.3613   -1.7008 O   0  0  0  0  0  0  0  0  0  0  0  0
    5.5546    0.2436   -1.1297 C   0  0  0  0  0  0  0  0  0  0  0  0
    6.8085   -0.5818   -1.0188 C   0  0  0  0  0  0  0  0  0  0  0  0
    6.2246   -1.9635   -0.8190 C   0  0  0  0  0  0  0  0  0  0  0  0
    5.0066   -1.6953    0.0091 C   0  0  0  0  0  0  0  0  0  0  0  0
    4.4861   -0.4488   -0.5081 N   0  0  0  0  0  0  0  0  0  0  0  0
    3.1495    0.0065   -0.4147 C   0  0  0  0  0  0  0  0  0  0  0  0
    2.1817   -0.2622   -1.3597 C   0  0  0  0  0  0  0  0  0  0  0  0
    0.8710    0.2158   -1.2148 C   0  0  0  0  0  0  0  0  0  0  0  0
    0.5375    0.9636   -0.1182 C   0  0  0  0  0  0  0  0  0  0  0  0
   -1.0808    1.5572    0.0682 S   0  0  0  0  0  6  0  0  0  0  0  0
   -1.7334    1.7405   -1.2927 O   0  0  0  0  0  0  0  0  0  0  0  0
   -1.1173    2.8927    0.7323 O   0  0  0  0  0  0  0  0  0  0  0  0
   -1.9850    0.3805    0.9472 N   0  0  0  0  0  0  0  0  0  0  0  0
   -2.0765   -0.8694    0.2857 C   0  0  0  0  0  0  0  0  0  0  0  0
   -3.4549   -1.4823    0.2576 C   0  0  0  0  0  0  0  0  0  0  0  0
   -4.5112   -0.4673    0.0289 C   0  0  0  0  0  0  0  0  0  0  0  0
   -5.6029   -0.6498   -0.7776 C   0  0  0  0  0  0  0  0  0  0  0  0
   -6.5200    0.3787   -0.9085 C   0  0  0  0  0  0  0  0  0  0  0  0
   -6.3951    1.5914   -0.2649 C   0  0  0  0  0  0  0  0  0  0  0  0
   -5.2745    1.7507    0.5500 C   0  0  0  0  0  0  0  0  0  0  0  0
   -4.3500    0.7364    0.6923 C   0  0  0  0  0  0  0  0  0  0  0  0
   -3.1698    0.8921    1.5454 C   0  0  0  0  0  0  0  0  0  0  0  0
    1.4805    1.2434    0.8331 C   0  0  0  0  0  0  0  0  0  0  0  0
    2.7887    0.7646    0.6854 C   0  0  0  0  0  0  0  0  0  0  0  0
    7.3611   -0.4797   -1.9547 H   0  0  0  0  0  0  0  0  0  0  0  0
    7.3319   -0.2296   -0.1225 H   0  0  0  0  0  0  0  0  0  0  0  0
    6.9524   -2.6389   -0.3164 H   0  0  0  0  0  0  0  0  0  0  0  0
    5.9032   -2.3351   -1.8077 H   0  0  0  0  0  0  0  0  0  0  0  0
    5.2518   -1.5161    1.0810 H   0  0  0  0  0  0  0  0  0  0  0  0
    4.2845   -2.5343   -0.0923 H   0  0  0  0  0  0  0  0  0  0  0  0
    2.4384   -0.8496   -2.2237 H   0  0  0  0  0  0  0  0  0  0  0  0
    0.1694   -0.0447   -2.0123 H   0  0  0  0  0  0  0  0  0  0  0  0
   -1.7507   -0.7717   -0.7773 H   0  0  0  0  0  0  0  0  0  0  0  0
   -1.3550   -1.5698    0.7606 H   0  0  0  0  0  0  0  0  0  0  0  0
   -3.5140   -2.2093   -0.5752 H   0  0  0  0  0  0  0  0  0  0  0  0
   -3.6058   -2.0151    1.2208 H   0  0  0  0  0  0  0  0  0  0  0  0
   -5.7122   -1.6019   -1.2903 H   0  0  0  0  0  0  0  0  0  0  0  0
   -7.3742    0.2366   -1.5392 H   0  0  0  0  0  0  0  0  0  0  0  0
   -7.1336    2.3881   -0.3849 H   0  0  0  0  0  0  0  0  0  0  0  0
   -5.1183    2.6825    1.0844 H   0  0  0  0  0  0  0  0  0  0  0  0
   -2.9964    1.9757    1.7694 H   0  0  0  0  0  0  0  0  0  0  0  0
   -3.3105    0.4024    2.5522 H   0  0  0  0  0  0  0  0  0  0  0  0
    1.2767    1.8296    1.7218 H   0  0  0  0  0  0  0  0  0  0  0  0
    3.5381    0.9824    1.4338 H   0  0  0  0  0  0  0  0  0  0  0  0
  1  2  2  0
  2  3  1  0
  3  4  1  0
  4  5  1  0
  5  6  1  0
  6  7  1  0
  7  8  2  0
  8  9  1  0
  9 10  2  0
 10 11  1  0
 11 12  2  0
 11 13  2  0
 11 14  1  0
 14 15  1  0
 15 16  1  0
 16 17  1  0
 17 18  2  0
 18 19  1  0
 19 20  2  0
 20 21  1  0
 21 22  2  0
 22 23  1  0
 10 24  1  0
 24 25  2  0
  6  2  1  0
 25  7  1  0
 23 14  1  0
 22 17  1  0
  3 26  1  0
  3 27  1  0
  4 28  1  0
  4 29  1  0
  5 30  1  0
  5 31  1  0
  8 32  1  0
  9 33  1  0
 15 34  1  0
 15 35  1  0
 16 36  1  0
 16 37  1  0
 18 38  1  0
 19 39  1  0
 20 40  1  0
 21 41  1  0
 23 42  1  0
 23 43  1  0
 24 44  1  0
 25 45  1  0
M  END
$$$$
