@<TRIPOS>MOLECULE
*****
 40 42 0 0 0
SMALL
GASTEIGER

@<TRIPOS>ATOM
      1 O          -2.4703    1.8654    0.9595 O.2     1  UNL1       -0.2524
      2 C          -2.0432    0.9505    0.1557 C.2     1  UNL1        0.3050
      3 N          -3.0076    0.0666   -0.3376 N.am    1  UNL1       -0.2811
      4 C          -2.8181   -1.0467   -1.2297 C.3     1  UNL1        0.0396
      5 C          -4.1159   -1.8736   -1.1701 C.3     1  UNL1        0.0635
      6 O          -4.3912   -2.1036    0.1731 O.3     1  UNL1       -0.3767
      7 C          -4.8307   -0.9685    0.8153 C.3     1  UNL1        0.0635
      8 C          -4.4013    0.2761    0.0785 C.3     1  UNL1        0.0396
      9 N          -0.6634    0.9933   -0.0949 N.am    1  UNL1       -0.2825
     10 C          -0.0363    0.0554   -0.9734 C.3     1  UNL1        0.0319
     11 C           1.3630    0.6251   -1.3049 C.3     1  UNL1        0.0294
     12 N           2.0842    0.7220   -0.0513 N.pl3   1  UNL1       -0.3122
     13 C           3.3926    0.1692    0.0515 C.ar    1  UNL1        0.1214
     14 C           4.1175    0.2364    1.2217 C.ar    1  UNL1       -0.0207
     15 C           5.3945   -0.3018    1.3262 C.ar    1  UNL1       -0.0431
     16 C           5.9557   -0.9225    0.2266 C.ar    1  UNL1        0.0361
     17 BR          7.7217   -1.6835    0.3212 Br      1  UNL1       -0.0487
     18 C           5.2099   -0.9756   -0.9294 C.ar    1  UNL1        0.0436
     19 N           3.9659   -0.4405   -0.9989 N.ar    1  UNL1       -0.2392
     20 C           1.4502    1.3833    1.0716 C.3     1  UNL1        0.0294
     21 C           0.1466    2.0049    0.5512 C.3     1  UNL1        0.0319
     22 H          -2.7857   -0.6928   -2.2847 H       1  UNL1        0.0488
     23 H          -1.9625   -1.7033   -0.9745 H       1  UNL1        0.0488
     24 H          -4.9324   -1.3142   -1.6260 H       1  UNL1        0.0575
     25 H          -3.9058   -2.8346   -1.6892 H       1  UNL1        0.0575
     26 H          -4.3366   -0.9117    1.8274 H       1  UNL1        0.0575
     27 H          -5.9350   -0.9335    0.9274 H       1  UNL1        0.0575
     28 H          -4.4443    1.1663    0.7487 H       1  UNL1        0.0488
     29 H          -5.0135    0.5108   -0.8128 H       1  UNL1        0.0488
     30 H          -0.5302   -0.1027   -1.9400 H       1  UNL1        0.0480
     31 H           0.1633   -0.8944   -0.4020 H       1  UNL1        0.0480
     32 H           1.8853   -0.0281   -2.0260 H       1  UNL1        0.0480
     33 H           1.2188    1.6055   -1.7879 H       1  UNL1        0.0480
     34 H           3.6745    0.7219    2.0762 H       1  UNL1        0.0652
     35 H           5.9700   -0.2515    2.2461 H       1  UNL1        0.0630
     36 H           5.6533   -1.4689   -1.8066 H       1  UNL1        0.0841
     37 H           2.0533    2.1737    1.5175 H       1  UNL1        0.0480
     38 H           1.1839    0.6518    1.8657 H       1  UNL1        0.0480
     39 H           0.4150    2.7728   -0.2236 H       1  UNL1        0.0480
     40 H          -0.3953    2.5010    1.3943 H       1  UNL1        0.0480
@<TRIPOS>BOND
     1     1     2    2
     2     2     3   am
     3     3     4    1
     4     4     5    1
     5     5     6    1
     6     6     7    1
     7     7     8    1
     8     2     9   am
     9     9    10    1
    10    10    11    1
    11    11    12    1
    12    12    13    1
    13    13    14   ar
    14    14    15   ar
    15    15    16   ar
    16    16    17    1
    17    16    18   ar
    18    18    19   ar
    19    12    20    1
    20    20    21    1
    21     8     3    1
    22    21     9    1
    23    19    13   ar
    24     4    22    1
    25     4    23    1
    26     5    24    1
    27     5    25    1
    28     7    26    1
    29     7    27    1
    30     8    28    1
    31     8    29    1
    32    10    30    1
    33    10    31    1
    34    11    32    1
    35    11    33    1
    36    14    34    1
    37    15    35    1
    38    18    36    1
    39    20    37    1
    40    20    38    1
    41    21    39    1
    42    21    40    1
