
     RDKit          3D

 49 52  0  0  0  0  0  0  0  0999 V2000
   -0.8688   -1.1376    0.0066 C   0  0  1  0  0  0  0  0  0  0  0  0
   -0.2988   -1.7358   -1.2314 C   0  0  0  0  0  0  0  0  0  0  0  0
    1.0399   -2.2952   -0.9183 C   0  0  0  0  0  0  0  0  0  0  0  0
    1.8842   -1.8454    0.0740 C   0  0  0  0  0  0  0  0  0  0  0  0
    3.1204   -2.4003    0.3176 C   0  0  0  0  0  0  0  0  0  0  0  0
    3.5780   -3.4571   -0.4402 C   0  0  0  0  0  0  0  0  0  0  0  0
    2.7332   -3.9264   -1.4520 C   0  0  0  0  0  0  0  0  0  0  0  0
    1.4854   -3.3544   -1.6863 C   0  0  0  0  0  0  0  0  0  0  0  0
    1.4951   -0.7449    0.9195 N   0  0  0  0  0  0  0  0  0  0  0  0
    2.2679   -0.1652    1.9877 C   0  0  0  0  0  0  0  0  0  0  0  0
    3.1569    0.9373    1.5439 C   0  0  0  0  0  0  0  0  0  0  0  0
    3.8599    1.4865    2.4315 O   0  0  0  0  0  0  0  0  0  0  0  0
    3.1545    1.2882    0.1870 N   0  0  0  0  0  0  0  0  0  0  0  0
    4.0122    2.3622   -0.2810 C   0  0  0  0  0  0  0  0  0  0  0  0
    5.4805    2.0793   -0.0212 C   0  0  0  0  0  0  0  0  0  0  0  0
    6.2994    3.1193   -0.4752 O   0  0  0  0  0  0  0  0  0  0  0  0
    0.1862   -0.2300    0.5883 C   0  0  0  0  0  0  0  0  0  0  0  0
   -0.0447    1.0075    0.8029 O   0  0  0  0  0  0  0  0  0  0  0  0
   -2.0413   -0.3503   -0.1938 N   0  0  0  0  0  0  0  0  0  0  0  0
   -3.2472   -0.6402    0.5111 C   0  0  0  0  0  0  0  0  0  0  0  0
   -3.1330   -1.6297    1.2870 O   0  0  0  0  0  0  0  0  0  0  0  0
   -4.4461    0.1654    0.3058 C   0  0  0  0  0  0  0  0  0  0  0  0
   -4.6259    1.2445   -0.5190 C   0  0  0  0  0  0  0  0  0  0  0  0
   -5.9240    1.6741   -0.3746 C   0  0  0  0  0  0  0  0  0  0  0  0
   -6.4944    0.8133    0.5583 C   0  0  0  0  0  0  0  0  0  0  0  0
   -5.5569   -0.1109    0.9628 N   0  0  0  0  0  0  0  0  0  0  0  0
   -8.2024    1.3999    0.7307 S   0  0  0  0  0  0  0  0  0  0  0  0
   -8.0073    2.8148   -0.5168 C   0  0  0  0  0  0  0  0  0  0  0  0
   -9.2975    3.8777   -0.9002 Cl  0  0  0  0  0  0  0  0  0  0  0  0
   -6.6826    2.6748   -0.9114 C   0  0  0  0  0  0  0  0  0  0  0  0
   -1.0136   -1.9600    0.7437 H   0  0  0  0  0  0  0  0  0  0  0  0
   -0.1965   -0.9355   -2.0184 H   0  0  0  0  0  0  0  0  0  0  0  0
   -0.9277   -2.5120   -1.6929 H   0  0  0  0  0  0  0  0  0  0  0  0
    3.7864   -2.0507    1.0900 H   0  0  0  0  0  0  0  0  0  0  0  0
    4.5214   -3.9763   -0.3495 H   0  0  0  0  0  0  0  0  0  0  0  0
    3.0486   -4.7618   -2.0808 H   0  0  0  0  0  0  0  0  0  0  0  0
    0.8485   -3.7425   -2.4833 H   0  0  0  0  0  0  0  0  0  0  0  0
    2.8776   -0.9373    2.4553 H   0  0  0  0  0  0  0  0  0  0  0  0
    1.5586    0.2148    2.7721 H   0  0  0  0  0  0  0  0  0  0  0  0
    2.5406    0.7887   -0.5120 H   0  0  0  0  0  0  0  0  0  0  0  0
    3.7495    3.3268    0.1992 H   0  0  0  0  0  0  0  0  0  0  0  0
    3.8809    2.5170   -1.3764 H   0  0  0  0  0  0  0  0  0  0  0  0
    5.6880    1.9290    1.0435 H   0  0  0  0  0  0  0  0  0  0  0  0
    5.8197    1.1765   -0.5687 H   0  0  0  0  0  0  0  0  0  0  0  0
    7.0032    3.3443    0.1849 H   0  0  0  0  0  0  0  0  0  0  0  0
   -1.9703    0.4382   -0.8745 H   0  0  0  0  0  0  0  0  0  0  0  0
   -3.8121    1.6050   -1.1313 H   0  0  0  0  0  0  0  0  0  0  0  0
   -5.8776   -0.8070    1.6631 H   0  0  0  0  0  0  0  0  0  0  0  0
   -6.4082    3.4215   -1.6358 H   0  0  0  0  0  0  0  0  0  0  0  0
  1  2  1  0
  2  3  1  0
  3  4  2  0
  4  5  1  0
  5  6  2  0
  6  7  1  0
  7  8  2  0
  4  9  1  0
  9 10  1  0
 10 11  1  0
 11 12  2  0
 11 13  1  0
 13 14  1  0
 14 15  1  0
 15 16  1  0
  9 17  1  0
 17 18  2  0
  1 19  1  0
 19 20  1  0
 20 21  2  0
 20 22  1  0
 22 23  2  0
 23 24  1  0
 24 25  2  0
 25 26  1  0
 25 27  1  0
 27 28  1  0
 28 29  1  0
 28 30  2  0
 17  1  1  0
 26 22  1  0
  8  3  1  0
 30 24  1  0
  1 31  1  1
  2 32  1  0
  2 33  1  0
  5 34  1  0
  6 35  1  0
  7 36  1  0
  8 37  1  0
 10 38  1  0
 10 39  1  0
 13 40  1  0
 14 41  1  0
 14 42  1  0
 15 43  1  0
 15 44  1  0
 16 45  1  0
 19 46  1  0
 23 47  1  0
 26 48  1  0
 30 49  1  0
M  END
$$$$
