@<TRIPOS>MOLECULE
*****
 49 52 0 0 0
SMALL
GASTEIGER

@<TRIPOS>ATOM
      1 C          -0.8688   -1.1376    0.0066 C.3     1  UNL1        0.1042
      2 C          -0.2988   -1.7358   -1.2314 C.3     1  UNL1        0.0011
      3 C           1.0399   -2.2952   -0.9183 C.ar    1  UNL1       -0.0237
      4 C           1.8842   -1.8454    0.0740 C.ar    1  UNL1        0.0401
      5 C           3.1204   -2.4003    0.3176 C.ar    1  UNL1       -0.0400
      6 C           3.5780   -3.4571   -0.4402 C.ar    1  UNL1       -0.0600
      7 C           2.7332   -3.9264   -1.4520 C.ar    1  UNL1       -0.0614
      8 C           1.4854   -3.3544   -1.6863 C.ar    1  UNL1       -0.0567
      9 N           1.4951   -0.7449    0.9195 N.am    1  UNL1       -0.2608
     10 C           2.2679   -0.1652    1.9877 C.3     1  UNL1        0.0961
     11 C           3.1569    0.9373    1.5439 C.2     1  UNL1        0.2309
     12 O           3.8599    1.4865    2.4315 O.2     1  UNL1       -0.2741
     13 N           3.1545    1.2882    0.1870 N.am    1  UNL1       -0.3118
     14 C           4.0122    2.3622   -0.2810 C.3     1  UNL1        0.0348
     15 C           5.4805    2.0793   -0.0212 C.3     1  UNL1        0.0597
     16 O           6.2994    3.1193   -0.4752 O.3     1  UNL1       -0.3935
     17 C           0.1862   -0.2300    0.5883 C.2     1  UNL1        0.2409
     18 O          -0.0447    1.0075    0.8029 O.2     1  UNL1       -0.2732
     19 N          -2.0413   -0.3503   -0.1938 N.am    1  UNL1       -0.2985
     20 C          -3.2472   -0.6402    0.5111 C.2     1  UNL1        0.2610
     21 O          -3.1330   -1.6297    1.2870 O.2     1  UNL1       -0.2686
     22 C          -4.4461    0.1654    0.3058 C.ar    1  UNL1        0.1032
     23 C          -4.6259    1.2445   -0.5190 C.ar    1  UNL1       -0.0236
     24 C          -5.9240    1.6741   -0.3746 C.ar    1  UNL1        0.0092
     25 C          -6.4944    0.8133    0.5583 C.ar    1  UNL1        0.0867
     26 N          -5.5569   -0.1109    0.9628 N.ar    1  UNL1       -0.3451
     27 S          -8.2024    1.3999    0.7307 S.2     1  UNL1       -0.0591
     28 C          -8.0073    2.8148   -0.5168 C.ar    1  UNL1        0.0805
     29 CL         -9.2975    3.8777   -0.9002 Cl      1  UNL1       -0.0757
     30 C          -6.6826    2.6748   -0.9114 C.ar    1  UNL1       -0.0269
     31 H          -1.0136   -1.9600    0.7437 H       1  UNL1        0.0598
     32 H          -0.1965   -0.9355   -2.0184 H       1  UNL1        0.0336
     33 H          -0.9277   -2.5120   -1.6929 H       1  UNL1        0.0336
     34 H           3.7864   -2.0507    1.0900 H       1  UNL1        0.0636
     35 H           4.5214   -3.9763   -0.3495 H       1  UNL1        0.0618
     36 H           3.0486   -4.7618   -2.0808 H       1  UNL1        0.0618
     37 H           0.8485   -3.7425   -2.4833 H       1  UNL1        0.0621
     38 H           2.8776   -0.9373    2.4553 H       1  UNL1        0.0564
     39 H           1.5586    0.2148    2.7721 H       1  UNL1        0.0564
     40 H           2.5406    0.7887   -0.5120 H       1  UNL1        0.1488
     41 H           3.7495    3.3268    0.1992 H       1  UNL1        0.0484
     42 H           3.8809    2.5170   -1.3764 H       1  UNL1        0.0484
     43 H           5.6880    1.9290    1.0435 H       1  UNL1        0.0573
     44 H           5.8197    1.1765   -0.5687 H       1  UNL1        0.0573
     45 H           7.0032    3.3443    0.1849 H       1  UNL1        0.2095
     46 H          -1.9703    0.4382   -0.8745 H       1  UNL1        0.1498
     47 H          -3.8121    1.6050   -1.1313 H       1  UNL1        0.0646
     48 H          -5.8776   -0.8070    1.6631 H       1  UNL1        0.1665
     49 H          -6.4082    3.4215   -1.6358 H       1  UNL1        0.0644
@<TRIPOS>BOND
     1     1     2    1
     2     2     3    1
     3     3     4   ar
     4     4     5   ar
     5     5     6   ar
     6     6     7   ar
     7     7     8   ar
     8     4     9    1
     9     9    10    1
    10    10    11    1
    11    11    12    2
    12    11    13   am
    13    13    14    1
    14    14    15    1
    15    15    16    1
    16     9    17   am
    17    17    18    2
    18     1    19    1
    19    19    20   am
    20    20    21    2
    21    20    22    1
    22    22    23   ar
    23    23    24   ar
    24    24    25   ar
    25    25    26   ar
    26    25    27   ar
    27    27    28   ar
    28    28    29    1
    29    28    30   ar
    30    17     1    1
    31    26    22   ar
    32     8     3   ar
    33    30    24   ar
    34     1    31    1
    35     2    32    1
    36     2    33    1
    37     5    34    1
    38     6    35    1
    39     7    36    1
    40     8    37    1
    41    10    38    1
    42    10    39    1
    43    13    40    1
    44    14    41    1
    45    14    42    1
    46    15    43    1
    47    15    44    1
    48    16    45    1
    49    19    46    1
    50    23    47    1
    51    26    48    1
    52    30    49    1
