@<TRIPOS>MOLECULE
*****
 35 37 0 0 0
SMALL
GASTEIGER

@<TRIPOS>ATOM
      1 C          -3.9659    0.9236   -0.1681 C.3     1  UNL1       -0.0428
      2 C          -2.9257    1.0360    0.9321 C.3     1  UNL1        0.0493
      3 C          -2.6672    2.4645    1.2583 C.3     1  UNL1       -0.0428
      4 N          -1.7356    0.3061    0.5372 N.ar    1  UNL1       -0.2431
      5 N          -0.5426    0.7865    0.3163 N.ar    1  UNL1       -0.1684
      6 C           0.3340   -0.2002   -0.0399 C.ar    1  UNL1        0.1054
      7 C          -0.4523   -1.3290   -0.0108 C.ar    1  UNL1        0.0859
      8 C          -1.7436   -1.0263    0.3469 C.ar    1  UNL1        0.1641
      9 N          -2.5968   -2.0663    0.4089 N.ar    1  UNL1       -0.2161
     10 C          -2.1824   -3.3360    0.1302 C.ar    1  UNL1        0.1204
     11 N          -0.9066   -3.6072   -0.2182 N.ar    1  UNL1       -0.2204
     12 C          -0.0169   -2.6022   -0.2942 C.ar    1  UNL1        0.1308
     13 N           1.3204   -2.9195   -0.6491 N.pl3   1  UNL1       -0.3425
     14 C           1.7071    0.1522   -0.3155 C.ar    1  UNL1        0.0063
     15 C           2.5002   -0.1812   -1.3920 C.ar    1  UNL1       -0.0523
     16 C           3.8104    0.2152   -1.5113 C.ar    1  UNL1       -0.0577
     17 C           4.3922    0.9850   -0.5256 C.ar    1  UNL1       -0.0201
     18 C           3.6595    1.3541    0.5745 C.ar    1  UNL1        0.1175
     19 O           4.2323    2.1275    1.5715 O.3     1  UNL1       -0.5067
     20 C           2.3605    0.9335    0.6452 C.ar    1  UNL1       -0.0109
     21 H          -4.9178    1.3617    0.1668 H       1  UNL1        0.0250
     22 H          -4.1618   -0.1656   -0.3604 H       1  UNL1        0.0250
     23 H          -3.6552    1.4549   -1.0847 H       1  UNL1        0.0250
     24 H          -3.3594    0.5073    1.8192 H       1  UNL1        0.0540
     25 H          -2.8270    3.1553    0.3795 H       1  UNL1        0.0250
     26 H          -1.7106    2.6918    1.7328 H       1  UNL1        0.0250
     27 H          -3.4884    2.7810    1.9667 H       1  UNL1        0.0250
     28 H          -3.0254   -4.0214    0.2392 H       1  UNL1        0.1048
     29 H           1.6286   -3.2643   -1.6051 H       1  UNL1        0.1437
     30 H           2.2040   -2.8778   -0.0740 H       1  UNL1        0.1437
     31 H           2.0414   -0.7653   -2.1563 H       1  UNL1        0.0624
     32 H           4.3718   -0.0847   -2.3842 H       1  UNL1        0.0619
     33 H           5.4328    1.2854   -0.6455 H       1  UNL1        0.0654
     34 H           5.0651    2.6753    1.3918 H       1  UNL1        0.2921
     35 H           1.8209    1.2503    1.5340 H       1  UNL1        0.0661
@<TRIPOS>BOND
     1     1     2    1
     2     2     3    1
     3     2     4    1
     4     4     5   ar
     5     5     6   ar
     6     6     7   ar
     7     7     8   ar
     8     8     9   ar
     9     9    10   ar
    10    10    11   ar
    11    11    12   ar
    12    12    13    1
    13     6    14    1
    14    14    15   ar
    15    15    16   ar
    16    16    17   ar
    17    17    18   ar
    18    18    19    1
    19    18    20   ar
    20     8     4   ar
    21    20    14   ar
    22    12     7   ar
    23     1    21    1
    24     1    22    1
    25     1    23    1
    26     2    24    1
    27     3    25    1
    28     3    26    1
    29     3    27    1
    30    10    28    1
    31    13    29    1
    32    13    30    1
    33    15    31    1
    34    16    32    1
    35    17    33    1
    36    19    34    1
    37    20    35    1
