
     RDKit          3D

 36 38  0  0  0  0  0  0  0  0999 V2000
   -4.0133    1.8268    0.0180 C   0  0  0  0  0  0  0  0  0  0  0  0
   -4.6007    0.4424   -0.1778 C   0  0  2  0  0  0  0  0  0  0  0  0
   -4.3210   -0.3777    1.0452 C   0  0  0  0  0  0  0  0  0  0  0  0
   -2.8428   -0.6866    0.8570 C   0  0  0  0  0  0  0  0  0  0  0  0
   -2.7055   -0.8915   -0.6229 C   0  0  0  0  0  0  0  0  0  0  0  0
   -1.7338   -1.5580   -1.1002 N   0  0  0  0  0  0  0  0  0  0  0  0
   -0.7157   -2.1637   -0.4034 N   0  0  0  0  0  0  0  0  0  0  0  0
    0.4797   -1.6359    0.0756 C   0  0  0  0  0  0  0  0  0  0  0  0
    1.5150   -1.0012   -0.3480 N   0  0  0  0  0  0  0  0  0  0  0  0
    2.5344   -0.6363    0.3463 C   0  0  0  0  0  0  0  0  0  0  0  0
    3.6758    0.0942   -0.2697 C   0  0  0  0  0  0  0  0  0  0  0  0
    4.7709    0.3662    0.5134 C   0  0  0  0  0  0  0  0  0  0  0  0
    5.8425    1.0487   -0.0603 C   0  0  0  0  0  0  0  0  0  0  0  0
    5.7661    1.4216   -1.3737 C   0  0  0  0  0  0  0  0  0  0  0  0
    6.8218    2.0881   -1.9244 F   0  0  0  0  0  0  0  0  0  0  0  0
    4.6635    1.1428   -2.1435 C   0  0  0  0  0  0  0  0  0  0  0  0
    3.6108    0.4734   -1.5852 C   0  0  0  0  0  0  0  0  0  0  0  0
    2.5104    0.1800   -2.3218 F   0  0  0  0  0  0  0  0  0  0  0  0
    2.5220   -0.9515    1.6755 C   0  0  0  0  0  0  0  0  0  0  0  0
    1.0054   -1.7822    1.8735 S   0  0  0  0  0  0  0  0  0  0  0  0
   -3.8480   -0.2328   -1.2755 C   0  0  0  0  0  0  0  0  0  0  0  0
   -4.1309    2.2016    1.0470 H   0  0  0  0  0  0  0  0  0  0  0  0
   -2.9408    1.8217   -0.2499 H   0  0  0  0  0  0  0  0  0  0  0  0
   -4.5024    2.5090   -0.7199 H   0  0  0  0  0  0  0  0  0  0  0  0
   -5.6979    0.5015   -0.3801 H   0  0  0  0  0  0  0  0  0  0  0  0
   -4.4256    0.1838    1.9966 H   0  0  0  0  0  0  0  0  0  0  0  0
   -4.8908   -1.3398    1.0742 H   0  0  0  0  0  0  0  0  0  0  0  0
   -2.6227   -1.5925    1.4281 H   0  0  0  0  0  0  0  0  0  0  0  0
   -2.2475    0.1994    1.1322 H   0  0  0  0  0  0  0  0  0  0  0  0
   -0.8750   -3.2004   -0.2074 H   0  0  0  0  0  0  0  0  0  0  0  0
    4.8678    0.0794    1.5586 H   0  0  0  0  0  0  0  0  0  0  0  0
    6.7055    1.2554    0.5681 H   0  0  0  0  0  0  0  0  0  0  0  0
    4.6055    1.4433   -3.1944 H   0  0  0  0  0  0  0  0  0  0  0  0
    3.3058   -0.7310    2.4671 H   0  0  0  0  0  0  0  0  0  0  0  0
   -3.5345    0.4792   -2.0728 H   0  0  0  0  0  0  0  0  0  0  0  0
   -4.5539   -0.9775   -1.7312 H   0  0  0  0  0  0  0  0  0  0  0  0
  1  2  1  0
  2  3  1  0
  3  4  1  0
  4  5  1  0
  5  6  2  0
  6  7  1  0
  7  8  1  0
  8  9  2  0
  9 10  1  0
 10 11  1  0
 11 12  2  0
 12 13  1  0
 13 14  2  0
 14 15  1  0
 14 16  1  0
 16 17  2  0
 17 18  1  0
 10 19  2  0
 19 20  1  0
  5 21  1  0
 21  2  1  0
 20  8  1  0
 17 11  1  0
  1 22  1  0
  1 23  1  0
  1 24  1  0
  2 25  1  6
  3 26  1  0
  3 27  1  0
  4 28  1  0
  4 29  1  0
  7 30  1  0
 12 31  1  0
 13 32  1  0
 16 33  1  0
 19 34  1  0
 21 35  1  0
 21 36  1  0
M  END
$$$$
