@<TRIPOS>MOLECULE
*****
 36 38 0 0 0
SMALL
GASTEIGER

@<TRIPOS>ATOM
      1 C          -4.0133    1.8268    0.0180 C.3     1  UNL1       -0.0621
      2 C          -4.6007    0.4424   -0.1778 C.3     1  UNL1       -0.0384
      3 C          -4.3210   -0.3777    1.0452 C.3     1  UNL1       -0.0450
      4 C          -2.8428   -0.6866    0.8570 C.3     1  UNL1       -0.0126
      5 C          -2.7055   -0.8915   -0.6229 C.2     1  UNL1        0.0371
      6 N          -1.7338   -1.5580   -1.1002 N.2     1  UNL1       -0.1898
      7 N          -0.7157   -2.1637   -0.4034 N.pl3   1  UNL1       -0.2153
      8 C           0.4797   -1.6359    0.0756 C.ar    1  UNL1        0.1783
      9 N           1.5150   -1.0012   -0.3480 N.ar    1  UNL1       -0.2235
     10 C           2.5344   -0.6363    0.3463 C.ar    1  UNL1        0.0830
     11 C           3.6758    0.0942   -0.2697 C.ar    1  UNL1        0.0363
     12 C           4.7709    0.3662    0.5134 C.ar    1  UNL1       -0.0471
     13 C           5.8425    1.0487   -0.0603 C.ar    1  UNL1       -0.0257
     14 C           5.7661    1.4216   -1.3737 C.ar    1  UNL1        0.1262
     15 F           6.8218    2.0881   -1.9244 F       1  UNL1       -0.2054
     16 C           4.6635    1.1428   -2.1435 C.ar    1  UNL1        0.0095
     17 C           3.6108    0.4734   -1.5852 C.ar    1  UNL1        0.1353
     18 F           2.5104    0.1800   -2.3218 F       1  UNL1       -0.2047
     19 C           2.5220   -0.9515    1.6755 C.ar    1  UNL1        0.0050
     20 S           1.0054   -1.7822    1.8735 S.2     1  UNL1       -0.0586
     21 C          -3.8480   -0.2328   -1.2755 C.3     1  UNL1       -0.0102
     22 H          -4.1309    2.2016    1.0470 H       1  UNL1        0.0233
     23 H          -2.9408    1.8217   -0.2499 H       1  UNL1        0.0233
     24 H          -4.5024    2.5090   -0.7199 H       1  UNL1        0.0233
     25 H          -5.6979    0.5015   -0.3801 H       1  UNL1        0.0302
     26 H          -4.4256    0.1838    1.9966 H       1  UNL1        0.0271
     27 H          -4.8908   -1.3398    1.0742 H       1  UNL1        0.0271
     28 H          -2.6227   -1.5925    1.4281 H       1  UNL1        0.0326
     29 H          -2.2475    0.1994    1.1322 H       1  UNL1        0.0326
     30 H          -0.8750   -3.2004   -0.2074 H       1  UNL1        0.1765
     31 H           4.8678    0.0794    1.5586 H       1  UNL1        0.0626
     32 H           6.7055    1.2554    0.5681 H       1  UNL1        0.0646
     33 H           4.6055    1.4433   -3.1944 H       1  UNL1        0.0675
     34 H           3.3058   -0.7310    2.4671 H       1  UNL1        0.0716
     35 H          -3.5345    0.4792   -2.0728 H       1  UNL1        0.0328
     36 H          -4.5539   -0.9775   -1.7312 H       1  UNL1        0.0328
@<TRIPOS>BOND
     1     1     2    1
     2     2     3    1
     3     3     4    1
     4     4     5    1
     5     5     6    2
     6     6     7    1
     7     7     8    1
     8     8     9   ar
     9     9    10   ar
    10    10    11    1
    11    11    12   ar
    12    12    13   ar
    13    13    14   ar
    14    14    15    1
    15    14    16   ar
    16    16    17   ar
    17    17    18    1
    18    10    19   ar
    19    19    20   ar
    20     5    21    1
    21    21     2    1
    22    20     8   ar
    23    17    11   ar
    24     1    22    1
    25     1    23    1
    26     1    24    1
    27     2    25    1
    28     3    26    1
    29     3    27    1
    30     4    28    1
    31     4    29    1
    32     7    30    1
    33    12    31    1
    34    13    32    1
    35    16    33    1
    36    19    34    1
    37    21    35    1
    38    21    36    1
