
     RDKit          3D

 49 51  0  0  0  0  0  0  0  0999 V2000
    8.5661    1.4133    0.5130 C   0  0  0  0  0  0  0  0  0  0  0  0
    7.8117    1.2172    1.5500 C   0  0  0  0  0  0  0  0  0  0  0  0
    6.4567    0.6822    1.4343 C   0  0  0  0  0  0  0  0  0  0  0  0
    5.7783    0.5188    2.5073 O   0  0  0  0  0  0  0  0  0  0  0  0
    5.8600    0.3377    0.2030 N   0  0  0  0  0  0  0  0  0  0  0  0
    4.5745   -0.1775    0.0096 C   0  0  0  0  0  0  0  0  0  0  0  0
    4.2136   -0.4401   -1.3203 C   0  0  0  0  0  0  0  0  0  0  0  0
    2.9845   -0.9475   -1.6659 C   0  0  0  0  0  0  0  0  0  0  0  0
    2.0467   -1.2202   -0.6921 C   0  0  0  0  0  0  0  0  0  0  0  0
    0.4715   -1.8737   -1.1701 S   0  0  0  0  0  6  0  0  0  0  0  0
    0.6685   -2.5986   -2.4714 O   0  0  0  0  0  0  0  0  0  0  0  0
   -0.0350   -2.8383   -0.1636 O   0  0  0  0  0  0  0  0  0  0  0  0
   -0.5690   -0.5531   -1.4484 N   0  0  0  0  0  0  0  0  0  0  0  0
   -0.7881    0.2707   -0.2907 C   0  0  0  0  0  0  0  0  0  0  0  0
   -2.0170    1.1069   -0.5823 C   0  0  0  0  0  0  0  0  0  0  0  0
   -3.1695    0.1922   -0.3994 N   0  0  0  0  0  0  0  0  0  0  0  0
   -4.2966    0.7411    0.2232 C   0  0  0  0  0  0  0  0  0  0  0  0
   -4.3446    2.0905    0.4900 N   0  0  0  0  0  0  0  0  0  0  0  0
   -5.3727    2.7081    1.0615 C   0  0  0  0  0  0  0  0  0  0  0  0
   -6.4907    1.9986    1.4319 C   0  0  0  0  0  0  0  0  0  0  0  0
   -6.5158    0.6630    1.2006 C   0  0  0  0  0  0  0  0  0  0  0  0
   -5.4044    0.0439    0.5919 C   0  0  0  0  0  0  0  0  0  0  0  0
   -5.4524   -1.4326    0.3580 C   0  0  0  0  0  0  0  0  0  0  0  0
   -2.9199   -1.1109   -0.9157 C   0  0  0  0  0  0  0  0  0  0  0  0
   -1.8243   -0.9261   -2.0026 C   0  0  0  0  0  0  0  0  0  0  0  0
    2.3586   -0.9794    0.6075 C   0  0  0  0  0  0  0  0  0  0  0  0
    3.6174   -0.4618    0.9389 C   0  0  0  0  0  0  0  0  0  0  0  0
    9.5797    1.8212    0.6834 H   0  0  0  0  0  0  0  0  0  0  0  0
    8.3482    1.2337   -0.5198 H   0  0  0  0  0  0  0  0  0  0  0  0
    8.1775    1.4496    2.5348 H   0  0  0  0  0  0  0  0  0  0  0  0
    6.5115    0.5123   -0.6364 H   0  0  0  0  0  0  0  0  0  0  0  0
    4.8965   -0.2524   -2.1469 H   0  0  0  0  0  0  0  0  0  0  0  0
    2.7073   -1.1494   -2.6898 H   0  0  0  0  0  0  0  0  0  0  0  0
   -1.0414   -0.3816    0.5880 H   0  0  0  0  0  0  0  0  0  0  0  0
    0.0804    0.8750    0.0065 H   0  0  0  0  0  0  0  0  0  0  0  0
   -2.0701    1.9471    0.1418 H   0  0  0  0  0  0  0  0  0  0  0  0
   -2.0011    1.5543   -1.5783 H   0  0  0  0  0  0  0  0  0  0  0  0
   -5.3887    3.7706    1.2616 H   0  0  0  0  0  0  0  0  0  0  0  0
   -7.3533    2.4571    1.9003 H   0  0  0  0  0  0  0  0  0  0  0  0
   -7.3696    0.0470    1.4701 H   0  0  0  0  0  0  0  0  0  0  0  0
   -4.5629   -1.9660    0.6937 H   0  0  0  0  0  0  0  0  0  0  0  0
   -6.2580   -1.8132    1.0833 H   0  0  0  0  0  0  0  0  0  0  0  0
   -5.8702   -1.7105   -0.6196 H   0  0  0  0  0  0  0  0  0  0  0  0
   -2.4103   -1.7831   -0.1785 H   0  0  0  0  0  0  0  0  0  0  0  0
   -3.7265   -1.5854   -1.4821 H   0  0  0  0  0  0  0  0  0  0  0  0
   -1.7634   -1.8538   -2.6168 H   0  0  0  0  0  0  0  0  0  0  0  0
   -2.1707   -0.1304   -2.6877 H   0  0  0  0  0  0  0  0  0  0  0  0
    1.6375   -1.1869    1.3791 H   0  0  0  0  0  0  0  0  0  0  0  0
    3.8397   -0.2797    1.9776 H   0  0  0  0  0  0  0  0  0  0  0  0
  1  2  2  3
  2  3  1  0
  3  4  2  0
  3  5  1  0
  5  6  1  0
  6  7  2  0
  7  8  1  0
  8  9  2  0
  9 10  1  0
 10 11  2  0
 10 12  2  0
 10 13  1  0
 13 14  1  0
 14 15  1  0
 15 16  1  0
 16 17  1  0
 17 18  2  0
 18 19  1  0
 19 20  2  0
 20 21  1  0
 21 22  2  0
 22 23  1  0
 16 24  1  0
 24 25  1  0
  9 26  1  0
 26 27  2  0
 27  6  1  0
 25 13  1  0
 22 17  1  0
  1 28  1  0
  1 29  1  0
  2 30  1  0
  5 31  1  0
  7 32  1  0
  8 33  1  0
 14 34  1  0
 14 35  1  0
 15 36  1  0
 15 37  1  0
 19 38  1  0
 20 39  1  0
 21 40  1  0
 23 41  1  0
 23 42  1  0
 23 43  1  0
 24 44  1  0
 24 45  1  0
 25 46  1  0
 25 47  1  0
 26 48  1  0
 27 49  1  0
M  END
$$$$
