@<TRIPOS>MOLECULE
*****
 49 51 0 0 0
SMALL
GASTEIGER

@<TRIPOS>ATOM
      1 C           8.5661    1.4133    0.5130 C.2     1  UNL1       -0.0938
      2 C           7.8117    1.2172    1.5500 C.2     1  UNL1       -0.0066
      3 C           6.4567    0.6822    1.4343 C.2     1  UNL1        0.2405
      4 O           5.7783    0.5188    2.5073 O.2     1  UNL1       -0.2705
      5 N           5.8600    0.3377    0.2030 N.am    1  UNL1       -0.2820
      6 C           4.5745   -0.1775    0.0096 C.ar    1  UNL1        0.0338
      7 C           4.2136   -0.4401   -1.3203 C.ar    1  UNL1       -0.0386
      8 C           2.9845   -0.9475   -1.6659 C.ar    1  UNL1       -0.0336
      9 C           2.0467   -1.2202   -0.6921 C.ar    1  UNL1        0.1056
     10 S           0.4715   -1.8737   -1.1701 S.O2    1  UNL1        0.0609
     11 O           0.6685   -2.5986   -2.4714 O.2     1  UNL1       -0.1528
     12 O          -0.0350   -2.8383   -0.1636 O.2     1  UNL1       -0.1528
     13 N          -0.5690   -0.5531   -1.4484 N.3     1  UNL1       -0.1736
     14 C          -0.7881    0.2707   -0.2907 C.3     1  UNL1        0.0363
     15 C          -2.0170    1.1069   -0.5823 C.3     1  UNL1        0.0280
     16 N          -3.1695    0.1922   -0.3994 N.pl3   1  UNL1       -0.3124
     17 C          -4.2966    0.7411    0.2232 C.ar    1  UNL1        0.1242
     18 N          -4.3446    2.0905    0.4900 N.ar    1  UNL1       -0.2400
     19 C          -5.3727    2.7081    1.0615 C.ar    1  UNL1        0.0297
     20 C          -6.4907    1.9986    1.4319 C.ar    1  UNL1       -0.0432
     21 C          -6.5158    0.6630    1.2006 C.ar    1  UNL1       -0.0542
     22 C          -5.4044    0.0439    0.5919 C.ar    1  UNL1       -0.0105
     23 C          -5.4524   -1.4326    0.3580 C.3     1  UNL1       -0.0365
     24 C          -2.9199   -1.1109   -0.9157 C.3     1  UNL1        0.0280
     25 C          -1.8243   -0.9261   -2.0026 C.3     1  UNL1        0.0363
     26 C           2.3586   -0.9794    0.6075 C.ar    1  UNL1       -0.0336
     27 C           3.6174   -0.4618    0.9389 C.ar    1  UNL1       -0.0386
     28 H           9.5797    1.8212    0.6834 H       1  UNL1        0.0536
     29 H           8.3482    1.2337   -0.5198 H       1  UNL1        0.0536
     30 H           8.1775    1.4496    2.5348 H       1  UNL1        0.0663
     31 H           6.5115    0.5123   -0.6364 H       1  UNL1        0.1551
     32 H           4.8965   -0.2524   -2.1469 H       1  UNL1        0.0637
     33 H           2.7073   -1.1494   -2.6898 H       1  UNL1        0.0638
     34 H          -1.0414   -0.3816    0.5880 H       1  UNL1        0.0459
     35 H           0.0804    0.8750    0.0065 H       1  UNL1        0.0459
     36 H          -2.0701    1.9471    0.1418 H       1  UNL1        0.0477
     37 H          -2.0011    1.5543   -1.5783 H       1  UNL1        0.0477
     38 H          -5.3887    3.7706    1.2616 H       1  UNL1        0.0830
     39 H          -7.3533    2.4571    1.9003 H       1  UNL1        0.0633
     40 H          -7.3696    0.0470    1.4701 H       1  UNL1        0.0622
     41 H          -4.5629   -1.9660    0.6937 H       1  UNL1        0.0279
     42 H          -6.2580   -1.8132    1.0833 H       1  UNL1        0.0279
     43 H          -5.8702   -1.7105   -0.6196 H       1  UNL1        0.0279
     44 H          -2.4103   -1.7831   -0.1785 H       1  UNL1        0.0477
     45 H          -3.7265   -1.5854   -1.4821 H       1  UNL1        0.0477
     46 H          -1.7634   -1.8538   -2.6168 H       1  UNL1        0.0459
     47 H          -2.1707   -0.1304   -2.6877 H       1  UNL1        0.0459
     48 H           1.6375   -1.1869    1.3791 H       1  UNL1        0.0638
     49 H           3.8397   -0.2797    1.9776 H       1  UNL1        0.0637
@<TRIPOS>BOND
     1     1     2    2
     2     2     3    1
     3     3     4    2
     4     3     5   am
     5     5     6    1
     6     6     7   ar
     7     7     8   ar
     8     8     9   ar
     9     9    10    1
    10    10    11    2
    11    10    12    2
    12    10    13    1
    13    13    14    1
    14    14    15    1
    15    15    16    1
    16    16    17    1
    17    17    18   ar
    18    18    19   ar
    19    19    20   ar
    20    20    21   ar
    21    21    22   ar
    22    22    23    1
    23    16    24    1
    24    24    25    1
    25     9    26   ar
    26    26    27   ar
    27    27     6   ar
    28    25    13    1
    29    22    17   ar
    30     1    28    1
    31     1    29    1
    32     2    30    1
    33     5    31    1
    34     7    32    1
    35     8    33    1
    36    14    34    1
    37    14    35    1
    38    15    36    1
    39    15    37    1
    40    19    38    1
    41    20    39    1
    42    21    40    1
    43    23    41    1
    44    23    42    1
    45    23    43    1
    46    24    44    1
    47    24    45    1
    48    25    46    1
    49    25    47    1
    50    26    48    1
    51    27    49    1
