@<TRIPOS>MOLECULE
*****
 46 49 0 0 0
SMALL
GASTEIGER

@<TRIPOS>ATOM
      1 C          -0.4513   -3.1788   -0.9933 C.3     1  UNL1       -0.0526
      2 C          -1.3297   -1.9247   -1.1347 C.3     1  UNL1        0.0151
      3 S          -2.8229   -2.1227   -0.0861 S.3     1  UNL1       -0.0876
      4 C          -2.2955   -1.4591    1.4793 C.2     1  UNL1        0.1478
      5 N          -2.7065   -2.0511    2.6749 N.pl3   1  UNL1       -0.3380
      6 N          -1.5474   -0.4467    1.4039 N.2     1  UNL1       -0.2495
      7 C          -1.0718    0.2345    0.2178 C.3     1  UNL1        0.1188
      8 C          -2.1874    1.0765   -0.2086 C.ar    1  UNL1        0.0178
      9 C          -2.7376    0.9410   -1.4557 C.ar    1  UNL1       -0.0507
     10 C          -3.7919    1.7432   -1.8876 C.ar    1  UNL1       -0.0259
     11 C          -4.3140    2.7035   -1.0637 C.ar    1  UNL1        0.1261
     12 F          -5.3434    3.5089   -1.4453 F       1  UNL1       -0.2054
     13 C          -3.7781    2.8579    0.1931 C.ar    1  UNL1        0.0091
     14 C          -2.7498    2.0639    0.5938 C.ar    1  UNL1        0.1317
     15 F          -2.2415    2.2039    1.8138 F       1  UNL1       -0.2050
     16 C           0.1329    1.0200    0.6902 C.3     1  UNL1        0.0781
     17 O           1.0563    1.2575   -0.3045 O.3     1  UNL1       -0.3691
     18 C           1.7058    0.1540   -0.7750 C.3     1  UNL1        0.0870
     19 C           2.9621   -0.0143    0.0060 C.ar    1  UNL1        0.0185
     20 C           3.5026   -1.1539    0.5605 C.ar    1  UNL1        0.0550
     21 N           4.6436   -0.7716    1.1601 N.ar    1  UNL1       -0.1796
     22 N           4.8388    0.5096    1.0137 N.ar    1  UNL1       -0.2741
     23 C           5.9550    1.3229    1.5104 C.3     1  UNL1        0.0302
     24 C           3.8322    1.0084    0.3135 C.ar    1  UNL1        0.0308
     25 C           0.8373   -1.0540   -0.5724 C.3     1  UNL1       -0.0159
     26 C          -0.6258   -0.6588   -0.8964 C.3     1  UNL1        0.0053
     27 H           0.1952   -3.1558   -0.1212 H       1  UNL1        0.0240
     28 H          -1.2096   -4.0175   -0.9347 H       1  UNL1        0.0240
     29 H           0.0517   -3.3464   -1.9637 H       1  UNL1        0.0240
     30 H          -1.7092   -1.9850   -2.1698 H       1  UNL1        0.0417
     31 H          -3.6318   -1.8400    3.1455 H       1  UNL1        0.1442
     32 H          -2.0618   -2.7441    3.1320 H       1  UNL1        0.1442
     33 H          -2.4182    0.2256   -2.1968 H       1  UNL1        0.0623
     34 H          -4.2227    1.6333   -2.8711 H       1  UNL1        0.0646
     35 H          -4.1607    3.6115    0.8891 H       1  UNL1        0.0675
     36 H          -0.1193    1.9731    1.1746 H       1  UNL1        0.0588
     37 H           0.6383    0.4000    1.4558 H       1  UNL1        0.0588
     38 H           2.0233    0.2737   -1.8395 H       1  UNL1        0.0647
     39 H           3.0588   -2.1571    0.5023 H       1  UNL1        0.0851
     40 H           6.0705    2.2266    0.8834 H       1  UNL1        0.0473
     41 H           5.7866    1.5953    2.5630 H       1  UNL1        0.0473
     42 H           6.9080    0.7468    1.3840 H       1  UNL1        0.0473
     43 H           3.7160    2.0656    0.0279 H       1  UNL1        0.0830
     44 H           0.9188   -1.3593    0.4861 H       1  UNL1        0.0297
     45 H           1.2019   -1.8243   -1.2854 H       1  UNL1        0.0297
     46 H          -0.5078   -0.0924   -1.8411 H       1  UNL1        0.0340
@<TRIPOS>BOND
     1     1     2    1
     2     2     3    1
     3     3     4    1
     4     4     5    1
     5     4     6    2
     6     6     7    1
     7     7     8    1
     8     8     9   ar
     9     9    10   ar
    10    10    11   ar
    11    11    12    1
    12    11    13   ar
    13    13    14   ar
    14    14    15    1
    15     7    16    1
    16    16    17    1
    17    17    18    1
    18    18    19    1
    19    19    20   ar
    20    20    21   ar
    21    21    22   ar
    22    22    23    1
    23    22    24   ar
    24    18    25    1
    25    25    26    1
    26    26     2    1
    27    26     7    1
    28    14     8   ar
    29    24    19   ar
    30     1    27    1
    31     1    28    1
    32     1    29    1
    33     2    30    1
    34     5    31    1
    35     5    32    1
    36     9    33    1
    37    10    34    1
    38    13    35    1
    39    16    36    1
    40    16    37    1
    41    18    38    1
    42    20    39    1
    43    23    40    1
    44    23    41    1
    45    23    42    1
    46    24    43    1
    47    25    44    1
    48    25    45    1
    49    26    46    1
