
     RDKit          3D

 46 49  0  0  0  0  0  0  0  0999 V2000
   -0.4513   -3.1788   -0.9933 C   0  0  0  0  0  0  0  0  0  0  0  0
   -1.3297   -1.9247   -1.1347 C   0  0  1  0  0  0  0  0  0  0  0  0
   -2.8229   -2.1227   -0.0861 S   0  0  0  0  0  0  0  0  0  0  0  0
   -2.2955   -1.4591    1.4793 C   0  0  0  0  0  0  0  0  0  0  0  0
   -2.7065   -2.0511    2.6749 N   0  0  0  0  0  0  0  0  0  0  0  0
   -1.5474   -0.4467    1.4039 N   0  0  0  0  0  0  0  0  0  0  0  0
   -1.0718    0.2345    0.2178 C   0  0  1  0  0  0  0  0  0  0  0  0
   -2.1874    1.0765   -0.2086 C   0  0  0  0  0  0  0  0  0  0  0  0
   -2.7376    0.9410   -1.4557 C   0  0  0  0  0  0  0  0  0  0  0  0
   -3.7919    1.7432   -1.8876 C   0  0  0  0  0  0  0  0  0  0  0  0
   -4.3140    2.7035   -1.0637 C   0  0  0  0  0  0  0  0  0  0  0  0
   -5.3434    3.5089   -1.4453 F   0  0  0  0  0  0  0  0  0  0  0  0
   -3.7781    2.8579    0.1931 C   0  0  0  0  0  0  0  0  0  0  0  0
   -2.7498    2.0639    0.5938 C   0  0  0  0  0  0  0  0  0  0  0  0
   -2.2415    2.2039    1.8138 F   0  0  0  0  0  0  0  0  0  0  0  0
    0.1329    1.0200    0.6902 C   0  0  0  0  0  0  0  0  0  0  0  0
    1.0563    1.2575   -0.3045 O   0  0  0  0  0  0  0  0  0  0  0  0
    1.7058    0.1540   -0.7750 C   0  0  1  0  0  0  0  0  0  0  0  0
    2.9621   -0.0143    0.0060 C   0  0  0  0  0  0  0  0  0  0  0  0
    3.5026   -1.1539    0.5605 C   0  0  0  0  0  0  0  0  0  0  0  0
    4.6436   -0.7716    1.1601 N   0  0  0  0  0  0  0  0  0  0  0  0
    4.8388    0.5096    1.0137 N   0  0  0  0  0  0  0  0  0  0  0  0
    5.9550    1.3229    1.5104 C   0  0  0  0  0  0  0  0  0  0  0  0
    3.8322    1.0084    0.3135 C   0  0  0  0  0  0  0  0  0  0  0  0
    0.8373   -1.0540   -0.5724 C   0  0  0  0  0  0  0  0  0  0  0  0
   -0.6258   -0.6588   -0.8964 C   0  0  1  0  0  0  0  0  0  0  0  0
    0.1952   -3.1558   -0.1212 H   0  0  0  0  0  0  0  0  0  0  0  0
   -1.2096   -4.0175   -0.9347 H   0  0  0  0  0  0  0  0  0  0  0  0
    0.0517   -3.3464   -1.9637 H   0  0  0  0  0  0  0  0  0  0  0  0
   -1.7092   -1.9850   -2.1698 H   0  0  0  0  0  0  0  0  0  0  0  0
   -3.6318   -1.8400    3.1455 H   0  0  0  0  0  0  0  0  0  0  0  0
   -2.0618   -2.7441    3.1320 H   0  0  0  0  0  0  0  0  0  0  0  0
   -2.4182    0.2256   -2.1968 H   0  0  0  0  0  0  0  0  0  0  0  0
   -4.2227    1.6333   -2.8711 H   0  0  0  0  0  0  0  0  0  0  0  0
   -4.1607    3.6115    0.8891 H   0  0  0  0  0  0  0  0  0  0  0  0
   -0.1193    1.9731    1.1746 H   0  0  0  0  0  0  0  0  0  0  0  0
    0.6383    0.4000    1.4558 H   0  0  0  0  0  0  0  0  0  0  0  0
    2.0233    0.2737   -1.8395 H   0  0  0  0  0  0  0  0  0  0  0  0
    3.0588   -2.1571    0.5023 H   0  0  0  0  0  0  0  0  0  0  0  0
    6.0705    2.2266    0.8834 H   0  0  0  0  0  0  0  0  0  0  0  0
    5.7866    1.5953    2.5630 H   0  0  0  0  0  0  0  0  0  0  0  0
    6.9080    0.7468    1.3840 H   0  0  0  0  0  0  0  0  0  0  0  0
    3.7160    2.0656    0.0279 H   0  0  0  0  0  0  0  0  0  0  0  0
    0.9188   -1.3593    0.4861 H   0  0  0  0  0  0  0  0  0  0  0  0
    1.2019   -1.8243   -1.2854 H   0  0  0  0  0  0  0  0  0  0  0  0
   -0.5078   -0.0924   -1.8411 H   0  0  0  0  0  0  0  0  0  0  0  0
  1  2  1  0
  2  3  1  0
  3  4  1  0
  4  5  1  0
  4  6  2  0
  6  7  1  0
  7  8  1  6
  8  9  2  0
  9 10  1  0
 10 11  2  0
 11 12  1  0
 11 13  1  0
 13 14  2  0
 14 15  1  0
  7 16  1  0
 16 17  1  0
 17 18  1  0
 18 19  1  0
 19 20  1  0
 20 21  2  0
 21 22  1  0
 22 23  1  0
 22 24  1  0
 18 25  1  0
 25 26  1  0
 26  2  1  0
 26  7  1  0
 14  8  1  0
 24 19  2  0
  1 27  1  0
  1 28  1  0
  1 29  1  0
  2 30  1  6
  5 31  1  0
  5 32  1  0
  9 33  1  0
 10 34  1  0
 13 35  1  0
 16 36  1  0
 16 37  1  0
 18 38  1  6
 20 39  1  0
 23 40  1  0
 23 41  1  0
 23 42  1  0
 24 43  1  0
 25 44  1  0
 25 45  1  0
 26 46  1  6
M  END
$$$$
