
     RDKit          3D

 57 60  0  0  0  0  0  0  0  0999 V2000
   -7.4391   -0.2321   -1.7841 C   0  0  0  0  0  0  0  0  0  0  0  0
   -6.7893    0.1310   -0.5808 O   0  0  0  0  0  0  0  0  0  0  0  0
   -5.4111    0.2206   -0.4388 C   0  0  0  0  0  0  0  0  0  0  0  0
   -4.9655    0.5898    0.8132 C   0  0  0  0  0  0  0  0  0  0  0  0
   -5.8442    0.8508    1.8513 O   0  0  0  0  0  0  0  0  0  0  0  0
   -5.3455    1.2260    3.1172 C   0  0  0  0  0  0  0  0  0  0  0  0
   -3.6128    0.7052    1.0495 C   0  0  0  0  0  0  0  0  0  0  0  0
   -2.6337    0.4655    0.0742 C   0  0  0  0  0  0  0  0  0  0  0  0
   -1.1539    0.4910   -0.0417 C   0  0  0  0  0  0  0  0  0  0  0  0
   -0.6052    0.2900    1.0884 O   0  0  0  0  0  0  0  0  0  0  0  0
   -0.9717    0.7516   -1.4829 C   0  0  0  0  0  0  0  0  0  0  0  0
    0.3469    0.6321   -2.0695 C   0  0  0  0  0  0  0  0  0  0  0  0
    1.0987   -0.6246   -2.0748 C   0  0  0  0  0  0  0  0  0  0  0  0
    1.4503   -1.2577   -0.7800 C   0  0  0  0  0  0  0  0  0  0  0  0
    2.3863   -0.4144    0.0630 C   0  0  0  0  0  0  0  0  0  0  0  0
    3.6698   -0.3043   -0.6441 N   0  0  0  0  0  0  0  0  0  0  0  0
    4.4991    0.5611    0.1592 C   0  0  0  0  0  0  0  0  0  0  0  0
    4.7287    0.0264    1.5298 C   0  0  0  0  0  0  0  0  0  0  0  0
    5.8351   -0.7843    1.6721 C   0  0  0  0  0  0  0  0  0  0  0  0
    6.2014   -1.3658    2.8653 C   0  0  0  0  0  0  0  0  0  0  0  0
    5.3882   -1.1003    3.9700 C   0  0  0  0  0  0  0  0  0  0  0  0
    4.2821   -0.2994    3.8627 C   0  0  0  0  0  0  0  0  0  0  0  0
    3.9561    0.2603    2.6465 C   0  0  0  0  0  0  0  0  0  0  0  0
    3.4132    0.3421   -1.8984 C   0  0  0  0  0  0  0  0  0  0  0  0
    2.4361   -0.3560   -2.7840 C   0  0  0  0  0  0  0  0  0  0  0  0
   -2.0440   -0.1282   -2.0815 C   0  0  0  0  0  0  0  0  0  0  0  0
   -3.1712    0.1021   -1.1447 C   0  0  0  0  0  0  0  0  0  0  0  0
   -4.5093   -0.0327   -1.4521 C   0  0  0  0  0  0  0  0  0  0  0  0
   -7.6735   -1.3293   -1.8236 H   0  0  0  0  0  0  0  0  0  0  0  0
   -8.4448    0.2728   -1.8258 H   0  0  0  0  0  0  0  0  0  0  0  0
   -6.8768    0.0641   -2.6858 H   0  0  0  0  0  0  0  0  0  0  0  0
   -4.6348    2.0685    3.0538 H   0  0  0  0  0  0  0  0  0  0  0  0
   -6.2141    1.5576    3.7562 H   0  0  0  0  0  0  0  0  0  0  0  0
   -4.8184    0.3691    3.5821 H   0  0  0  0  0  0  0  0  0  0  0  0
   -3.2312    0.9969    2.0333 H   0  0  0  0  0  0  0  0  0  0  0  0
   -1.3403    1.8064   -1.6569 H   0  0  0  0  0  0  0  0  0  0  0  0
    0.2940    1.0489   -3.1241 H   0  0  0  0  0  0  0  0  0  0  0  0
    1.0069    1.4058   -1.5608 H   0  0  0  0  0  0  0  0  0  0  0  0
    0.6439   -1.4297   -2.7118 H   0  0  0  0  0  0  0  0  0  0  0  0
    0.6536   -1.6868   -0.1862 H   0  0  0  0  0  0  0  0  0  0  0  0
    2.0934   -2.1620   -1.0612 H   0  0  0  0  0  0  0  0  0  0  0  0
    2.0048    0.5715    0.3214 H   0  0  0  0  0  0  0  0  0  0  0  0
    2.5638   -0.9710    1.0001 H   0  0  0  0  0  0  0  0  0  0  0  0
    5.4573    0.7486   -0.3518 H   0  0  0  0  0  0  0  0  0  0  0  0
    3.9489    1.5328    0.2949 H   0  0  0  0  0  0  0  0  0  0  0  0
    6.4926   -1.0172    0.8464 H   0  0  0  0  0  0  0  0  0  0  0  0
    7.0617   -2.0050    3.0086 H   0  0  0  0  0  0  0  0  0  0  0  0
    5.6369   -1.5385    4.9385 H   0  0  0  0  0  0  0  0  0  0  0  0
    3.6295   -0.0725    4.6977 H   0  0  0  0  0  0  0  0  0  0  0  0
    3.0955    0.9030    2.4910 H   0  0  0  0  0  0  0  0  0  0  0  0
    3.0130    1.3581   -1.6615 H   0  0  0  0  0  0  0  0  0  0  0  0
    4.3481    0.4886   -2.4924 H   0  0  0  0  0  0  0  0  0  0  0  0
    2.8326   -1.2888   -3.2185 H   0  0  0  0  0  0  0  0  0  0  0  0
    2.2047    0.3534   -3.6235 H   0  0  0  0  0  0  0  0  0  0  0  0
   -2.2893    0.1395   -3.1187 H   0  0  0  0  0  0  0  0  0  0  0  0
   -1.7774   -1.1941   -2.0172 H   0  0  0  0  0  0  0  0  0  0  0  0
   -4.8759   -0.3158   -2.4090 H   0  0  0  0  0  0  0  0  0  0  0  0
  1  2  1  0
  2  3  1  0
  3  4  2  0
  4  5  1  0
  5  6  1  0
  4  7  1  0
  7  8  2  0
  8  9  1  0
  9 10  2  0
  9 11  1  0
 11 12  1  0
 12 13  1  0
 13 14  1  0
 14 15  1  0
 15 16  1  0
 16 17  1  0
 17 18  1  0
 18 19  2  0
 19 20  1  0
 20 21  2  0
 21 22  1  0
 22 23  2  0
 16 24  1  0
 24 25  1  0
 11 26  1  0
 26 27  1  0
 27 28  2  0
 28  3  1  0
 27  8  1  0
 25 13  1  0
 23 18  1  0
  1 29  1  0
  1 30  1  0
  1 31  1  0
  6 32  1  0
  6 33  1  0
  6 34  1  0
  7 35  1  0
 11 36  1  0
 12 37  1  0
 12 38  1  0
 13 39  1  0
 14 40  1  0
 14 41  1  0
 15 42  1  0
 15 43  1  0
 17 44  1  0
 17 45  1  0
 19 46  1  0
 20 47  1  0
 21 48  1  0
 22 49  1  0
 23 50  1  0
 24 51  1  0
 24 52  1  0
 25 53  1  0
 25 54  1  0
 26 55  1  0
 26 56  1  0
 28 57  1  0
M  END
$$$$
