@<TRIPOS>MOLECULE
*****
 57 60 0 0 0
SMALL
GASTEIGER

@<TRIPOS>ATOM
      1 C          -7.4391   -0.2321   -1.7841 C.3     1  UNL1        0.0790
      2 O          -6.7893    0.1310   -0.5808 O.3     1  UNL1       -0.4914
      3 C          -5.4111    0.2206   -0.4388 C.ar    1  UNL1        0.1618
      4 C          -4.9655    0.5898    0.8132 C.ar    1  UNL1        0.1622
      5 O          -5.8442    0.8508    1.8513 O.3     1  UNL1       -0.4914
      6 C          -5.3455    1.2260    3.1172 C.3     1  UNL1        0.0790
      7 C          -3.6128    0.7052    1.0495 C.ar    1  UNL1       -0.0056
      8 C          -2.6337    0.4655    0.0742 C.ar    1  UNL1        0.0246
      9 C          -1.1539    0.4910   -0.0417 C.2     1  UNL1        0.1669
     10 O          -0.6052    0.2900    1.0884 O.2     1  UNL1       -0.2917
     11 C          -0.9717    0.7516   -1.4829 C.3     1  UNL1        0.0264
     12 C           0.3469    0.6321   -2.0695 C.3     1  UNL1       -0.0399
     13 C           1.0987   -0.6246   -2.0748 C.3     1  UNL1       -0.0381
     14 C           1.4503   -1.2577   -0.7800 C.3     1  UNL1       -0.0373
     15 C           2.3863   -0.4144    0.0630 C.3     1  UNL1       -0.0005
     16 N           3.6698   -0.3043   -0.6441 N.3     1  UNL1       -0.2981
     17 C           4.4991    0.5611    0.1592 C.3     1  UNL1        0.0240
     18 C           4.7287    0.0264    1.5298 C.ar    1  UNL1       -0.0334
     19 C           5.8351   -0.7843    1.6721 C.ar    1  UNL1       -0.0573
     20 C           6.2014   -1.3658    2.8653 C.ar    1  UNL1       -0.0615
     21 C           5.3882   -1.1003    3.9700 C.ar    1  UNL1       -0.0617
     22 C           4.2821   -0.2994    3.8627 C.ar    1  UNL1       -0.0615
     23 C           3.9561    0.2603    2.6465 C.ar    1  UNL1       -0.0573
     24 C           3.4132    0.3421   -1.8984 C.3     1  UNL1       -0.0005
     25 C           2.4361   -0.3560   -2.7840 C.3     1  UNL1       -0.0373
     26 C          -2.0440   -0.1282   -2.0815 C.3     1  UNL1       -0.0170
     27 C          -3.1712    0.1021   -1.1447 C.ar    1  UNL1       -0.0325
     28 C          -4.5093   -0.0327   -1.4521 C.ar    1  UNL1       -0.0124
     29 H          -7.6735   -1.3293   -1.8236 H       1  UNL1        0.0660
     30 H          -8.4448    0.2728   -1.8258 H       1  UNL1        0.0660
     31 H          -6.8768    0.0641   -2.6858 H       1  UNL1        0.0660
     32 H          -4.6348    2.0685    3.0538 H       1  UNL1        0.0660
     33 H          -6.2141    1.5576    3.7562 H       1  UNL1        0.0660
     34 H          -4.8184    0.3691    3.5821 H       1  UNL1        0.0660
     35 H          -3.2312    0.9969    2.0333 H       1  UNL1        0.0662
     36 H          -1.3403    1.8064   -1.6569 H       1  UNL1        0.0384
     37 H           0.2940    1.0489   -3.1241 H       1  UNL1        0.0275
     38 H           1.0069    1.4058   -1.5608 H       1  UNL1        0.0275
     39 H           0.6439   -1.4297   -2.7118 H       1  UNL1        0.0302
     40 H           0.6536   -1.6868   -0.1862 H       1  UNL1        0.0280
     41 H           2.0934   -2.1620   -1.0612 H       1  UNL1        0.0280
     42 H           2.0048    0.5715    0.3214 H       1  UNL1        0.0427
     43 H           2.5638   -0.9710    1.0001 H       1  UNL1        0.0427
     44 H           5.4573    0.7486   -0.3518 H       1  UNL1        0.0476
     45 H           3.9489    1.5328    0.2949 H       1  UNL1        0.0476
     46 H           6.4926   -1.0172    0.8464 H       1  UNL1        0.0621
     47 H           7.0617   -2.0050    3.0086 H       1  UNL1        0.0618
     48 H           5.6369   -1.5385    4.9385 H       1  UNL1        0.0618
     49 H           3.6295   -0.0725    4.6977 H       1  UNL1        0.0618
     50 H           3.0955    0.9030    2.4910 H       1  UNL1        0.0621
     51 H           3.0130    1.3581   -1.6615 H       1  UNL1        0.0427
     52 H           4.3481    0.4886   -2.4924 H       1  UNL1        0.0427
     53 H           2.8326   -1.2888   -3.2185 H       1  UNL1        0.0280
     54 H           2.2047    0.3534   -3.6235 H       1  UNL1        0.0280
     55 H          -2.2893    0.1395   -3.1187 H       1  UNL1        0.0320
     56 H          -1.7774   -1.1941   -2.0172 H       1  UNL1        0.0320
     57 H          -4.8759   -0.3158   -2.4090 H       1  UNL1        0.0658
@<TRIPOS>BOND
     1     1     2    1
     2     2     3    1
     3     3     4   ar
     4     4     5    1
     5     5     6    1
     6     4     7   ar
     7     7     8   ar
     8     8     9    1
     9     9    10    2
    10     9    11    1
    11    11    12    1
    12    12    13    1
    13    13    14    1
    14    14    15    1
    15    15    16    1
    16    16    17    1
    17    17    18    1
    18    18    19   ar
    19    19    20   ar
    20    20    21   ar
    21    21    22   ar
    22    22    23   ar
    23    16    24    1
    24    24    25    1
    25    11    26    1
    26    26    27    1
    27    27    28   ar
    28    28     3   ar
    29    27     8   ar
    30    25    13    1
    31    23    18   ar
    32     1    29    1
    33     1    30    1
    34     1    31    1
    35     6    32    1
    36     6    33    1
    37     6    34    1
    38     7    35    1
    39    11    36    1
    40    12    37    1
    41    12    38    1
    42    13    39    1
    43    14    40    1
    44    14    41    1
    45    15    42    1
    46    15    43    1
    47    17    44    1
    48    17    45    1
    49    19    46    1
    50    20    47    1
    51    21    48    1
    52    22    49    1
    53    23    50    1
    54    24    51    1
    55    24    52    1
    56    25    53    1
    57    25    54    1
    58    26    55    1
    59    26    56    1
    60    28    57    1
