@<TRIPOS>MOLECULE
*****
 45 48 0 0 0
SMALL
GASTEIGER

@<TRIPOS>ATOM
      1 O           3.3767    4.0359   -0.1976 O.2     1  UNL1       -0.1498
      2 S           3.2628    2.5856   -0.6506 S.O2    1  UNL1        0.0763
      3 O           4.3857    1.8616    0.0507 O.2     1  UNL1       -0.1498
      4 N           3.5345    2.5074   -2.3336 N.pl3   1  UNL1       -0.1989
      5 C           2.6770    3.1688   -3.2468 C.ar    1  UNL1        0.1449
      6 C           1.5955    3.9413   -2.8158 C.ar    1  UNL1        0.0183
      7 S           0.8894    4.5452   -4.3657 S.2     1  UNL1       -0.0819
      8 C           2.2026    3.6344   -5.3836 C.ar    1  UNL1        0.0669
      9 N           2.8010    3.1492   -4.5599 N.ar    1  UNL1       -0.2315
     10 C           1.7530    1.9042   -0.1365 C.ar    1  UNL1        0.1451
     11 C           0.8699    2.6979    0.5732 C.ar    1  UNL1       -0.0103
     12 C          -0.3317    2.2034    1.0235 C.ar    1  UNL1        0.0852
     13 CL         -1.4492    3.2258    1.9261 Cl      1  UNL1       -0.0797
     14 C          -0.6420    0.8673    0.7442 C.ar    1  UNL1        0.1495
     15 O          -1.8482    0.4327    1.2204 O.3     1  UNL1       -0.4539
     16 C          -2.3186   -0.8604    1.1107 C.ar    1  UNL1        0.1362
     17 C          -3.4639   -1.1328    0.3804 C.ar    1  UNL1       -0.0182
     18 C          -3.9365   -2.4210    0.2699 C.ar    1  UNL1       -0.0466
     19 C          -3.2436   -3.4310    0.9021 C.ar    1  UNL1        0.0556
     20 C          -3.7367   -4.8384    0.7961 C.3     1  UNL1        0.4174
     21 F          -4.4630   -5.0263   -0.3704 F       1  UNL1       -0.1659
     22 F          -4.5023   -5.1447    1.8977 F       1  UNL1       -0.1659
     23 F          -2.6717   -5.7360    0.7351 F       1  UNL1       -0.1659
     24 C          -2.0889   -3.1659    1.6404 C.ar    1  UNL1       -0.0388
     25 C          -1.6112   -1.8731    1.7544 C.ar    1  UNL1        0.0265
     26 C          -0.4248   -1.5597    2.5396 C.ar    1  UNL1        0.0069
     27 C           0.7100   -2.3302    2.3903 C.ar    1  UNL1       -0.0325
     28 C           1.8490   -2.0512    3.1275 C.ar    1  UNL1        0.0505
     29 N           1.8150   -1.0185    3.9827 N.ar    1  UNL1       -0.1577
     30 N           0.7409   -0.2533    4.1543 N.ar    1  UNL1       -0.1571
     31 C          -0.3595   -0.5212    3.4436 C.ar    1  UNL1        0.0578
     32 C           0.2360    0.0892    0.0413 C.ar    1  UNL1        0.0193
     33 C           1.4580    0.5952   -0.4152 C.ar    1  UNL1        0.1535
     34 F           2.3195   -0.1768   -1.1065 F       1  UNL1       -0.2033
     35 H           4.3439    1.9647   -2.6898 H       1  UNL1        0.1753
     36 H           1.2249    4.1663   -1.8203 H       1  UNL1        0.0729
     37 H           2.1030    3.7683   -6.5067 H       1  UNL1        0.0908
     38 H           1.0999    3.7460    0.7988 H       1  UNL1        0.0654
     39 H          -4.0049   -0.3212   -0.1169 H       1  UNL1        0.0655
     40 H          -4.8448   -2.6494   -0.3065 H       1  UNL1        0.0624
     41 H          -1.5407   -3.9612    2.1405 H       1  UNL1        0.0630
     42 H           0.7213   -3.1564    1.6988 H       1  UNL1        0.0640
     43 H           2.7593   -2.6204    3.0489 H       1  UNL1        0.0848
     44 H          -1.2241    0.0977    3.5849 H       1  UNL1        0.0854
     45 H          -0.0224   -0.9392   -0.1809 H       1  UNL1        0.0684
@<TRIPOS>BOND
     1     1     2    2
     2     2     3    2
     3     2     4    1
     4     4     5    1
     5     5     6   ar
     6     6     7   ar
     7     7     8   ar
     8     8     9   ar
     9     2    10    1
    10    10    11   ar
    11    11    12   ar
    12    12    13    1
    13    12    14   ar
    14    14    15    1
    15    15    16    1
    16    16    17   ar
    17    17    18   ar
    18    18    19   ar
    19    19    20    1
    20    20    21    1
    21    20    22    1
    22    20    23    1
    23    19    24   ar
    24    24    25   ar
    25    25    26    1
    26    26    27   ar
    27    27    28   ar
    28    28    29   ar
    29    29    30   ar
    30    30    31   ar
    31    14    32   ar
    32    32    33   ar
    33    33    34    1
    34     9     5   ar
    35    33    10   ar
    36    25    16   ar
    37    31    26   ar
    38     4    35    1
    39     6    36    1
    40     8    37    1
    41    11    38    1
    42    17    39    1
    43    18    40    1
    44    24    41    1
    45    27    42    1
    46    28    43    1
    47    31    44    1
    48    32    45    1
