@<TRIPOS>MOLECULE
*****
 53 57 0 0 0
SMALL
GASTEIGER

@<TRIPOS>ATOM
      1 O           1.4096   -1.0823    1.5534 O.2     1  UNL1       -0.2526
      2 C           1.1229   -0.3362    0.5743 C.2     1  UNL1        0.3024
      3 N           2.1725   -0.0238   -0.3375 N.am    1  UNL1       -0.2958
      4 C           3.5028   -0.5566   -0.1212 C.3     1  UNL1        0.0320
      5 C           4.1811   -0.9901   -1.4114 C.3     1  UNL1       -0.0254
      6 C           4.6069    0.2775   -0.6509 C.3     1  UNL1        0.0043
      7 C           5.9771    0.1622   -0.1031 C.ar    1  UNL1       -0.0425
      8 C           6.4484   -0.9887    0.5221 C.ar    1  UNL1       -0.0582
      9 C           7.7308   -1.0599    1.0203 C.ar    1  UNL1       -0.0615
     10 C           8.6067   -0.0026    0.9258 C.ar    1  UNL1       -0.0617
     11 C           8.1487    1.1477    0.3057 C.ar    1  UNL1       -0.0615
     12 C           6.8554    1.2185   -0.1963 C.ar    1  UNL1       -0.0582
     13 N          -0.1945    0.1478    0.4244 N.am    1  UNL1       -0.2854
     14 C          -0.5340    0.9987   -0.6868 C.3     1  UNL1        0.0197
     15 C          -1.8464    1.6863   -0.3318 C.3     1  UNL1        0.0030
     16 C          -2.9490    0.6614   -0.1390 C.3     1  UNL1        0.1138
     17 C          -3.4033    0.2339   -1.5139 C.3     1  UNL1       -0.0087
     18 C          -4.5171   -0.7850   -1.4181 C.3     1  UNL1       -0.0206
     19 C          -5.5288   -0.3335   -0.4328 C.ar    1  UNL1       -0.0056
     20 C          -6.7528   -0.9619   -0.4290 C.ar    1  UNL1       -0.0551
     21 C          -7.7513   -0.6072    0.4514 C.ar    1  UNL1       -0.0613
     22 C          -7.4800    0.4073    1.3357 C.ar    1  UNL1       -0.0583
     23 C          -6.2613    1.0441    1.3432 C.ar    1  UNL1       -0.0196
     24 C          -5.2744    0.6832    0.4626 C.ar    1  UNL1        0.1245
     25 O          -4.0307    1.3354    0.4726 O.3     1  UNL1       -0.4853
     26 C          -2.5436   -0.4787    0.7363 C.3     1  UNL1        0.0030
     27 C          -1.2090   -0.2091    1.3871 C.3     1  UNL1        0.0197
     28 H           1.9326    0.5912   -1.1431 H       1  UNL1        0.1505
     29 H           3.6263   -1.1926    0.7654 H       1  UNL1        0.0505
     30 H           4.7823   -1.8929   -1.3214 H       1  UNL1        0.0290
     31 H           3.6850   -0.7893   -2.3781 H       1  UNL1        0.0290
     32 H           4.3724    1.2392   -1.1151 H       1  UNL1        0.0367
     33 H           5.7638   -1.8198    0.5978 H       1  UNL1        0.0620
     34 H           8.0738   -1.9598    1.4998 H       1  UNL1        0.0618
     35 H           9.6152   -0.0731    1.3234 H       1  UNL1        0.0618
     36 H           8.8396    1.9758    0.2335 H       1  UNL1        0.0618
     37 H           6.5330    2.1372   -0.6757 H       1  UNL1        0.0620
     38 H          -0.6414    0.4328   -1.6309 H       1  UNL1        0.0466
     39 H           0.2095    1.8250   -0.8152 H       1  UNL1        0.0466
     40 H          -1.6698    2.2700    0.5964 H       1  UNL1        0.0319
     41 H          -2.1832    2.3683   -1.1299 H       1  UNL1        0.0319
     42 H          -3.8226    1.1394   -2.0133 H       1  UNL1        0.0307
     43 H          -2.5540   -0.1585   -2.0966 H       1  UNL1        0.0307
     44 H          -5.0084   -0.8028   -2.4346 H       1  UNL1        0.0316
     45 H          -4.1532   -1.8088   -1.2317 H       1  UNL1        0.0316
     46 H          -6.9954   -1.7704   -1.1201 H       1  UNL1        0.0621
     47 H          -8.7008   -1.1084    0.4405 H       1  UNL1        0.0618
     48 H          -8.2251    0.7184    2.0397 H       1  UNL1        0.0619
     49 H          -6.0575    1.8555    2.0574 H       1  UNL1        0.0654
     50 H          -2.4560   -1.4443    0.1964 H       1  UNL1        0.0319
     51 H          -3.2698   -0.6593    1.5727 H       1  UNL1        0.0319
     52 H          -1.2733    0.6421    2.1083 H       1  UNL1        0.0466
     53 H          -0.9096   -1.1316    1.9313 H       1  UNL1        0.0466
@<TRIPOS>BOND
     1     1     2    2
     2     2     3   am
     3     3     4    1
     4     4     5    1
     5     5     6    1
     6     6     7    1
     7     7     8   ar
     8     8     9   ar
     9     9    10   ar
    10    10    11   ar
    11    11    12   ar
    12     2    13   am
    13    13    14    1
    14    14    15    1
    15    15    16    1
    16    16    17    1
    17    17    18    1
    18    18    19    1
    19    19    20   ar
    20    20    21   ar
    21    21    22   ar
    22    22    23   ar
    23    23    24   ar
    24    24    25    1
    25    16    26    1
    26    26    27    1
    27     6     4    1
    28    12     7   ar
    29    27    13    1
    30    25    16    1
    31    24    19   ar
    32     3    28    1
    33     4    29    1
    34     5    30    1
    35     5    31    1
    36     6    32    1
    37     8    33    1
    38     9    34    1
    39    10    35    1
    40    11    36    1
    41    12    37    1
    42    14    38    1
    43    14    39    1
    44    15    40    1
    45    15    41    1
    46    17    42    1
    47    17    43    1
    48    18    44    1
    49    18    45    1
    50    20    46    1
    51    21    47    1
    52    22    48    1
    53    23    49    1
    54    26    50    1
    55    26    51    1
    56    27    52    1
    57    27    53    1
