
     RDKit          3D

 36 38  0  0  0  0  0  0  0  0999 V2000
    1.4651   -1.0308   -3.6064 C   0  0  0  0  0  0  0  0  0  0  0  0
    1.2799   -0.3803   -2.2633 C   0  0  0  0  0  0  0  0  0  0  0  0
    2.3584    0.1421   -1.5796 C   0  0  0  0  0  0  0  0  0  0  0  0
    2.1925    0.7432   -0.3402 C   0  0  0  0  0  0  0  0  0  0  0  0
    3.2975    1.2509    0.3060 O   0  0  0  0  0  0  0  0  0  0  0  0
    4.0879    0.5248    1.1850 C   0  0  0  0  0  0  0  0  0  0  0  0
    5.1648   -0.1771    0.7047 C   0  0  0  0  0  0  0  0  0  0  0  0
    5.9742   -0.9051    1.5138 N   0  0  0  0  0  0  0  0  0  0  0  0
    5.6819   -0.9190    2.8377 C   0  0  0  0  0  0  0  0  0  0  0  0
    4.6398   -0.2430    3.3206 N   0  0  0  0  0  0  0  0  0  0  0  0
    3.8105    0.4953    2.5359 C   0  0  0  0  0  0  0  0  0  0  0  0
    0.9163    0.7967    0.1765 C   0  0  0  0  0  0  0  0  0  0  0  0
   -0.1586    0.2741   -0.5087 C   0  0  0  0  0  0  0  0  0  0  0  0
   -1.5141    0.3378    0.0534 C   0  0  0  0  0  0  0  0  0  0  0  0
   -1.7126    0.8693    1.1661 O   0  0  0  0  0  0  0  0  0  0  0  0
   -2.5989   -0.2021   -0.6628 N   0  0  0  0  0  0  0  0  0  0  0  0
   -3.9446   -0.1890   -0.2036 C   0  0  0  0  0  0  0  0  0  0  0  0
   -4.4087   -1.2476    0.5537 C   0  0  0  0  0  0  0  0  0  0  0  0
   -5.7016   -1.3009    1.0320 C   0  0  0  0  0  0  0  0  0  0  0  0
   -6.5782   -0.2590    0.7491 C   0  0  0  0  0  0  0  0  0  0  0  0
   -7.8499   -0.2267    1.1718 F   0  0  0  0  0  0  0  0  0  0  0  0
   -6.0829    0.7934   -0.0156 C   0  0  0  0  0  0  0  0  0  0  0  0
   -4.8075    0.8092   -0.4667 N   0  0  0  0  0  0  0  0  0  0  0  0
    0.0633   -0.2912   -1.6956 N   0  0  0  0  0  0  0  0  0  0  0  0
    1.8050   -2.0704   -3.4408 H   0  0  0  0  0  0  0  0  0  0  0  0
    0.5587   -0.9533   -4.2168 H   0  0  0  0  0  0  0  0  0  0  0  0
    2.2632   -0.4424   -4.1162 H   0  0  0  0  0  0  0  0  0  0  0  0
    3.3330    0.0682   -2.0394 H   0  0  0  0  0  0  0  0  0  0  0  0
    5.3602   -0.1368   -0.3606 H   0  0  0  0  0  0  0  0  0  0  0  0
    6.2979   -1.4824    3.5077 H   0  0  0  0  0  0  0  0  0  0  0  0
    2.9846    1.0232    2.9649 H   0  0  0  0  0  0  0  0  0  0  0  0
    0.7852    1.2680    1.1486 H   0  0  0  0  0  0  0  0  0  0  0  0
   -2.3785   -0.6410   -1.5998 H   0  0  0  0  0  0  0  0  0  0  0  0
   -3.7585   -2.0775    0.7958 H   0  0  0  0  0  0  0  0  0  0  0  0
   -6.0692   -2.1417    1.6332 H   0  0  0  0  0  0  0  0  0  0  0  0
   -6.7557    1.6075   -0.2408 H   0  0  0  0  0  0  0  0  0  0  0  0
  1  2  1  0
  2  3  2  0
  3  4  1  0
  4  5  1  0
  5  6  1  0
  6  7  2  0
  7  8  1  0
  8  9  2  0
  9 10  1  0
 10 11  2  0
  4 12  2  0
 12 13  1  0
 13 14  1  0
 14 15  2  0
 14 16  1  0
 16 17  1  0
 17 18  2  0
 18 19  1  0
 19 20  2  0
 20 21  1  0
 20 22  1  0
 22 23  2  0
 13 24  2  0
 24  2  1  0
 11  6  1  0
 23 17  1  0
  1 25  1  0
  1 26  1  0
  1 27  1  0
  3 28  1  0
  7 29  1  0
  9 30  1  0
 11 31  1  0
 12 32  1  0
 16 33  1  0
 18 34  1  0
 19 35  1  0
 22 36  1  0
M  END
$$$$
