@<TRIPOS>MOLECULE
*****
 36 38 0 0 0
SMALL
GASTEIGER

@<TRIPOS>ATOM
      1 C           1.4651   -1.0308   -3.6064 C.3     1  UNL1       -0.0222
      2 C           1.2799   -0.3803   -2.2633 C.ar    1  UNL1        0.0426
      3 C           2.3584    0.1421   -1.5796 C.ar    1  UNL1        0.0018
      4 C           2.1925    0.7432   -0.3402 C.ar    1  UNL1        0.1324
      5 O           3.2975    1.2509    0.3060 O.3     1  UNL1       -0.4529
      6 C           4.0879    0.5248    1.1850 C.ar    1  UNL1        0.1644
      7 C           5.1648   -0.1771    0.7047 C.ar    1  UNL1        0.0730
      8 N           5.9742   -0.9051    1.5138 N.ar    1  UNL1       -0.2401
      9 C           5.6819   -0.9190    2.8377 C.ar    1  UNL1        0.1161
     10 N           4.6398   -0.2430    3.3206 N.ar    1  UNL1       -0.2401
     11 C           3.8105    0.4953    2.5359 C.ar    1  UNL1        0.0730
     12 C           0.9163    0.7967    0.1765 C.ar    1  UNL1        0.0112
     13 C          -0.1586    0.2741   -0.5087 C.ar    1  UNL1        0.1295
     14 C          -1.5141    0.3378    0.0534 C.2     1  UNL1        0.2678
     15 O          -1.7126    0.8693    1.1661 O.2     1  UNL1       -0.2681
     16 N          -2.5989   -0.2021   -0.6628 N.am    1  UNL1       -0.2651
     17 C          -3.9446   -0.1890   -0.2036 C.ar    1  UNL1        0.1253
     18 C          -4.4087   -1.2476    0.5537 C.ar    1  UNL1       -0.0188
     19 C          -5.7016   -1.3009    1.0320 C.ar    1  UNL1       -0.0217
     20 C          -6.5782   -0.2590    0.7491 C.ar    1  UNL1        0.1415
     21 F          -7.8499   -0.2267    1.1718 F       1  UNL1       -0.2039
     22 C          -6.0829    0.7934   -0.0156 C.ar    1  UNL1        0.0649
     23 N          -4.8075    0.8092   -0.4667 N.ar    1  UNL1       -0.2373
     24 N           0.0633   -0.2912   -1.6956 N.ar    1  UNL1       -0.2470
     25 H           1.8050   -2.0704   -3.4408 H       1  UNL1        0.0293
     26 H           0.5587   -0.9533   -4.2168 H       1  UNL1        0.0293
     27 H           2.2632   -0.4424   -4.1162 H       1  UNL1        0.0293
     28 H           3.3330    0.0682   -2.0394 H       1  UNL1        0.0672
     29 H           5.3602   -0.1368   -0.3606 H       1  UNL1        0.0868
     30 H           6.2979   -1.4824    3.5077 H       1  UNL1        0.1047
     31 H           2.9846    1.0232    2.9649 H       1  UNL1        0.0868
     32 H           0.7852    1.2680    1.1486 H       1  UNL1        0.0677
     33 H          -2.3785   -0.6410   -1.5998 H       1  UNL1        0.1566
     34 H          -3.7585   -2.0775    0.7958 H       1  UNL1        0.0653
     35 H          -6.0692   -2.1417    1.6332 H       1  UNL1        0.0648
     36 H          -6.7557    1.6075   -0.2408 H       1  UNL1        0.0859
@<TRIPOS>BOND
     1     1     2    1
     2     2     3   ar
     3     3     4   ar
     4     4     5    1
     5     5     6    1
     6     6     7   ar
     7     7     8   ar
     8     8     9   ar
     9     9    10   ar
    10    10    11   ar
    11     4    12   ar
    12    12    13   ar
    13    13    14    1
    14    14    15    2
    15    14    16   am
    16    16    17    1
    17    17    18   ar
    18    18    19   ar
    19    19    20   ar
    20    20    21    1
    21    20    22   ar
    22    22    23   ar
    23    13    24   ar
    24    24     2   ar
    25    11     6   ar
    26    23    17   ar
    27     1    25    1
    28     1    26    1
    29     1    27    1
    30     3    28    1
    31     7    29    1
    32     9    30    1
    33    11    31    1
    34    12    32    1
    35    16    33    1
    36    18    34    1
    37    19    35    1
    38    22    36    1
