@<TRIPOS>MOLECULE
*****
 41 42 0 0 0
SMALL
GASTEIGER

@<TRIPOS>ATOM
      1 C           5.4242    0.6728    0.6173 C.3     1  UNL1        0.0055
      2 N           4.7386   -0.5748    0.3239 N.3     1  UNL1       -0.1973
      3 S           3.6312   -0.9382    1.6006 S.O2    1  UNL1        0.0332
      4 O           4.3454   -0.9754    2.9107 O.2     1  UNL1       -0.1579
      5 O           2.9134   -2.2181    1.3473 O.2     1  UNL1       -0.1579
      6 C           2.4184    0.3836    1.6854 C.3     1  UNL1        0.1067
      7 C           1.7070    0.4486    0.3999 C.ar    1  UNL1       -0.0243
      8 C           0.5107   -0.2654    0.2859 C.ar    1  UNL1       -0.0475
      9 C          -0.2148   -0.2708   -0.8712 C.ar    1  UNL1        0.0032
     10 C           0.2178    0.4405   -1.9854 C.ar    1  UNL1        0.0467
     11 N          -0.6180    0.3192   -3.0072 N.ar    1  UNL1       -0.3604
     12 C          -1.6582   -0.4807   -2.6317 C.ar    1  UNL1        0.0059
     13 C          -1.4162   -0.8546   -1.2993 C.ar    1  UNL1       -0.0211
     14 C          -2.2656   -1.7293   -0.5039 C.3     1  UNL1       -0.0129
     15 C          -3.0717   -1.1355    0.5855 C.3     1  UNL1        0.0024
     16 N          -4.0192   -0.1205    0.2556 N.3     1  UNL1       -0.3080
     17 C          -4.8017    0.0766    1.5152 C.3     1  UNL1       -0.0130
     18 C          -3.3990    1.2081    0.0915 C.3     1  UNL1       -0.0130
     19 C           1.3965    1.1591   -1.9134 C.ar    1  UNL1       -0.0375
     20 C           2.1039    1.1339   -0.7061 C.ar    1  UNL1       -0.0550
     21 H           5.3491    1.3720   -0.2088 H       1  UNL1        0.0405
     22 H           4.9883    1.1226    1.5333 H       1  UNL1        0.0405
     23 H           6.5004    0.3935    0.7730 H       1  UNL1        0.0405
     24 H           4.2816   -0.5084   -0.5941 H       1  UNL1        0.1473
     25 H           1.7065    0.1101    2.5089 H       1  UNL1        0.0565
     26 H           2.9112    1.3335    1.9792 H       1  UNL1        0.0565
     27 H           0.0779   -0.8481    1.0737 H       1  UNL1        0.0627
     28 H          -0.6424    0.6852   -3.9746 H       1  UNL1        0.1653
     29 H          -2.5347   -0.8055   -3.1991 H       1  UNL1        0.0810
     30 H          -1.6397   -2.5495   -0.0135 H       1  UNL1        0.0326
     31 H          -2.8972   -2.3460   -1.2190 H       1  UNL1        0.0326
     32 H          -2.4455   -0.7944    1.4524 H       1  UNL1        0.0429
     33 H          -3.6848   -1.9820    1.0243 H       1  UNL1        0.0429
     34 H          -5.1173   -0.8929    1.8980 H       1  UNL1        0.0391
     35 H          -4.0675    0.5215    2.2207 H       1  UNL1        0.0391
     36 H          -5.6014    0.8214    1.3669 H       1  UNL1        0.0391
     37 H          -2.6201    1.2628   -0.6440 H       1  UNL1        0.0391
     38 H          -4.2220    1.8955   -0.2561 H       1  UNL1        0.0391
     39 H          -3.0655    1.5165    1.1123 H       1  UNL1        0.0391
     40 H           1.7606    1.7176   -2.7487 H       1  UNL1        0.0638
     41 H           3.0201    1.6955   -0.6552 H       1  UNL1        0.0621
@<TRIPOS>BOND
     1     1     2    1
     2     2     3    1
     3     3     4    2
     4     3     5    2
     5     3     6    1
     6     6     7    1
     7     7     8   ar
     8     8     9   ar
     9     9    10   ar
    10    10    11   ar
    11    11    12   ar
    12    12    13   ar
    13    13    14    1
    14    14    15    1
    15    15    16    1
    16    16    17    1
    17    16    18    1
    18    10    19   ar
    19    19    20   ar
    20    20     7   ar
    21    13     9   ar
    22     1    21    1
    23     1    22    1
    24     1    23    1
    25     2    24    1
    26     6    25    1
    27     6    26    1
    28     8    27    1
    29    11    28    1
    30    12    29    1
    31    14    30    1
    32    14    31    1
    33    15    32    1
    34    15    33    1
    35    17    34    1
    36    17    35    1
    37    17    36    1
    38    18    37    1
    39    18    38    1
    40    18    39    1
    41    19    40    1
    42    20    41    1
