@<TRIPOS>MOLECULE
*****
 49 52 0 0 0
SMALL
GASTEIGER

@<TRIPOS>ATOM
      1 C          -2.6936    1.2952    0.6391 C.3     1  UNL1       -0.0569
      2 C          -2.4304   -0.1623    0.4474 C.3     1  UNL1       -0.0030
      3 C          -1.6634   -0.7660    1.6153 C.3     1  UNL1       -0.0447
      4 C          -0.2779   -0.2170    1.7171 C.3     1  UNL1       -0.0486
      5 C           0.4929   -0.3739    0.4111 C.3     1  UNL1       -0.0288
      6 C          -0.3134    0.3425   -0.6372 C.3     1  UNL1       -0.0337
      7 C           0.4480    0.5866   -1.9086 C.3     1  UNL1       -0.0459
      8 C           1.6277    1.4688   -1.5540 C.3     1  UNL1       -0.0305
      9 C           2.4883    0.6797   -0.6467 C.2     1  UNL1       -0.0601
     10 C           3.7659    0.5893   -0.9381 C.2     1  UNL1       -0.0194
     11 C           4.7023   -0.1549   -0.1242 C.2     1  UNL1        0.1561
     12 O           5.9229   -0.2189   -0.4049 O.2     1  UNL1       -0.2927
     13 C           4.1769   -0.8581    1.0787 C.3     1  UNL1        0.0107
     14 C           2.7326   -1.2196    0.8290 C.3     1  UNL1       -0.0367
     15 C           1.9024    0.0358    0.5259 C.3     1  UNL1       -0.0072
     16 C           2.1515    0.9670    1.7206 C.3     1  UNL1       -0.0556
     17 C          -1.5537   -0.4262   -0.7851 C.3     1  UNL1       -0.0301
     18 C          -2.4572   -0.1415   -1.8928 C.3     1  UNL1       -0.0470
     19 C          -3.7267   -0.8796   -1.4554 C.3     1  UNL1       -0.0261
     20 C          -3.6400   -0.9542    0.0714 C.3     1  UNL1        0.0609
     21 O          -4.8132   -0.4627    0.6230 O.3     1  UNL1       -0.3912
     22 H          -2.5581    1.8985   -0.2786 H       1  UNL1        0.0236
     23 H          -3.7796    1.3995    0.9291 H       1  UNL1        0.0236
     24 H          -2.1218    1.6969    1.5032 H       1  UNL1        0.0236
     25 H          -1.6343   -1.8532    1.4860 H       1  UNL1        0.0271
     26 H          -2.1981   -0.5150    2.5500 H       1  UNL1        0.0271
     27 H           0.2493   -0.7687    2.5167 H       1  UNL1        0.0268
     28 H          -0.3017    0.8524    2.0421 H       1  UNL1        0.0268
     29 H           0.4195   -1.4753    0.1674 H       1  UNL1        0.0312
     30 H          -0.5600    1.3544   -0.2155 H       1  UNL1        0.0307
     31 H          -0.2046    1.1440   -2.5915 H       1  UNL1        0.0271
     32 H           0.7657   -0.3462   -2.4090 H       1  UNL1        0.0271
     33 H           1.2239    2.3189   -0.9464 H       1  UNL1        0.0310
     34 H           2.1590    1.8458   -2.4477 H       1  UNL1        0.0310
     35 H           4.1577    1.0873   -1.8242 H       1  UNL1        0.0652
     36 H           4.7351   -1.8190    1.1401 H       1  UNL1        0.0345
     37 H           4.2991   -0.2923    2.0008 H       1  UNL1        0.0345
     38 H           2.3581   -1.7204    1.7446 H       1  UNL1        0.0278
     39 H           2.6433   -1.9304   -0.0057 H       1  UNL1        0.0278
     40 H           1.4630    1.8238    1.7211 H       1  UNL1        0.0238
     41 H           3.1919    1.3705    1.5885 H       1  UNL1        0.0238
     42 H           2.1005    0.3349    2.6189 H       1  UNL1        0.0238
     43 H          -1.3296   -1.5155   -0.7485 H       1  UNL1        0.0310
     44 H          -2.0915   -0.6736   -2.8157 H       1  UNL1        0.0269
     45 H          -2.6507    0.9070   -2.1093 H       1  UNL1        0.0269
     46 H          -4.6301   -0.3584   -1.7854 H       1  UNL1        0.0290
     47 H          -3.6803   -1.9408   -1.8393 H       1  UNL1        0.0290
     48 H          -3.4995   -1.9930    0.4152 H       1  UNL1        0.0599
     49 H          -5.3683    0.0381   -0.0259 H       1  UNL1        0.2098
@<TRIPOS>BOND
     1     2     1    1
     2     2     3    1
     3     3     4    1
     4     4     5    1
     5     5     6    1
     6     6     7    1
     7     7     8    1
     8     8     9    1
     9     9    10    2
    10    10    11    1
    11    11    12    2
    12    11    13    1
    13    13    14    1
    14    14    15    1
    15    15    16    1
    16     6    17    1
    17    17    18    1
    18    18    19    1
    19    19    20    1
    20    20    21    1
    21    17     2    1
    22    20     2    1
    23    15     5    1
    24    15     9    1
    25     1    22    1
    26     1    23    1
    27     1    24    1
    28     3    25    1
    29     3    26    1
    30     4    27    1
    31     4    28    1
    32     5    29    1
    33     6    30    1
    34     7    31    1
    35     7    32    1
    36     8    33    1
    37     8    34    1
    38    10    35    1
    39    13    36    1
    40    13    37    1
    41    14    38    1
    42    14    39    1
    43    16    40    1
    44    16    41    1
    45    16    42    1
    46    17    43    1
    47    18    44    1
    48    18    45    1
    49    19    46    1
    50    19    47    1
    51    20    48    1
    52    21    49    1
