
     RDKit          3D

 49 52  0  0  0  0  0  0  0  0999 V2000
   -2.6936    1.2952    0.6391 C   0  0  0  0  0  0  0  0  0  0  0  0
   -2.4304   -0.1623    0.4474 C   0  0  2  0  0  0  0  0  0  0  0  0
   -1.6634   -0.7660    1.6153 C   0  0  0  0  0  0  0  0  0  0  0  0
   -0.2779   -0.2170    1.7171 C   0  0  0  0  0  0  0  0  0  0  0  0
    0.4929   -0.3739    0.4111 C   0  0  1  0  0  0  0  0  0  0  0  0
   -0.3134    0.3425   -0.6372 C   0  0  1  0  0  0  0  0  0  0  0  0
    0.4480    0.5866   -1.9086 C   0  0  0  0  0  0  0  0  0  0  0  0
    1.6277    1.4688   -1.5540 C   0  0  0  0  0  0  0  0  0  0  0  0
    2.4883    0.6797   -0.6467 C   0  0  0  0  0  0  0  0  0  0  0  0
    3.7659    0.5893   -0.9381 C   0  0  0  0  0  0  0  0  0  0  0  0
    4.7023   -0.1549   -0.1242 C   0  0  0  0  0  0  0  0  0  0  0  0
    5.9229   -0.2189   -0.4049 O   0  0  0  0  0  0  0  0  0  0  0  0
    4.1769   -0.8581    1.0787 C   0  0  0  0  0  0  0  0  0  0  0  0
    2.7326   -1.2196    0.8290 C   0  0  0  0  0  0  0  0  0  0  0  0
    1.9024    0.0358    0.5259 C   0  0  2  0  0  0  0  0  0  0  0  0
    2.1515    0.9670    1.7206 C   0  0  0  0  0  0  0  0  0  0  0  0
   -1.5537   -0.4262   -0.7851 C   0  0  2  0  0  0  0  0  0  0  0  0
   -2.4572   -0.1415   -1.8928 C   0  0  0  0  0  0  0  0  0  0  0  0
   -3.7267   -0.8796   -1.4554 C   0  0  0  0  0  0  0  0  0  0  0  0
   -3.6400   -0.9542    0.0714 C   0  0  2  0  0  0  0  0  0  0  0  0
   -4.8132   -0.4627    0.6230 O   0  0  0  0  0  0  0  0  0  0  0  0
   -2.5581    1.8985   -0.2786 H   0  0  0  0  0  0  0  0  0  0  0  0
   -3.7796    1.3995    0.9291 H   0  0  0  0  0  0  0  0  0  0  0  0
   -2.1218    1.6969    1.5032 H   0  0  0  0  0  0  0  0  0  0  0  0
   -1.6343   -1.8532    1.4860 H   0  0  0  0  0  0  0  0  0  0  0  0
   -2.1981   -0.5150    2.5500 H   0  0  0  0  0  0  0  0  0  0  0  0
    0.2493   -0.7687    2.5167 H   0  0  0  0  0  0  0  0  0  0  0  0
   -0.3017    0.8524    2.0421 H   0  0  0  0  0  0  0  0  0  0  0  0
    0.4195   -1.4753    0.1674 H   0  0  0  0  0  0  0  0  0  0  0  0
   -0.5600    1.3544   -0.2155 H   0  0  0  0  0  0  0  0  0  0  0  0
   -0.2046    1.1440   -2.5915 H   0  0  0  0  0  0  0  0  0  0  0  0
    0.7657   -0.3462   -2.4090 H   0  0  0  0  0  0  0  0  0  0  0  0
    1.2239    2.3189   -0.9464 H   0  0  0  0  0  0  0  0  0  0  0  0
    2.1590    1.8458   -2.4477 H   0  0  0  0  0  0  0  0  0  0  0  0
    4.1577    1.0873   -1.8242 H   0  0  0  0  0  0  0  0  0  0  0  0
    4.7351   -1.8190    1.1401 H   0  0  0  0  0  0  0  0  0  0  0  0
    4.2991   -0.2923    2.0008 H   0  0  0  0  0  0  0  0  0  0  0  0
    2.3581   -1.7204    1.7446 H   0  0  0  0  0  0  0  0  0  0  0  0
    2.6433   -1.9304   -0.0057 H   0  0  0  0  0  0  0  0  0  0  0  0
    1.4630    1.8238    1.7211 H   0  0  0  0  0  0  0  0  0  0  0  0
    3.1919    1.3705    1.5885 H   0  0  0  0  0  0  0  0  0  0  0  0
    2.1005    0.3349    2.6189 H   0  0  0  0  0  0  0  0  0  0  0  0
   -1.3296   -1.5155   -0.7485 H   0  0  0  0  0  0  0  0  0  0  0  0
   -2.0915   -0.6736   -2.8157 H   0  0  0  0  0  0  0  0  0  0  0  0
   -2.6507    0.9070   -2.1093 H   0  0  0  0  0  0  0  0  0  0  0  0
   -4.6301   -0.3584   -1.7854 H   0  0  0  0  0  0  0  0  0  0  0  0
   -3.6803   -1.9408   -1.8393 H   0  0  0  0  0  0  0  0  0  0  0  0
   -3.4995   -1.9930    0.4152 H   0  0  0  0  0  0  0  0  0  0  0  0
   -5.3683    0.0381   -0.0259 H   0  0  0  0  0  0  0  0  0  0  0  0
  2  1  1  1
  2  3  1  0
  3  4  1  0
  4  5  1  0
  5  6  1  0
  6  7  1  0
  7  8  1  0
  8  9  1  0
  9 10  2  0
 10 11  1  0
 11 12  2  0
 11 13  1  0
 13 14  1  0
 14 15  1  0
 15 16  1  1
  6 17  1  0
 17 18  1  0
 18 19  1  0
 19 20  1  0
 20 21  1  0
 17  2  1  0
 20  2  1  0
 15  5  1  0
 15  9  1  0
  1 22  1  0
  1 23  1  0
  1 24  1  0
  3 25  1  0
  3 26  1  0
  4 27  1  0
  4 28  1  0
  5 29  1  6
  6 30  1  1
  7 31  1  0
  7 32  1  0
  8 33  1  0
  8 34  1  0
 10 35  1  0
 13 36  1  0
 13 37  1  0
 14 38  1  0
 14 39  1  0
 16 40  1  0
 16 41  1  0
 16 42  1  0
 17 43  1  6
 18 44  1  0
 18 45  1  0
 19 46  1  0
 19 47  1  0
 20 48  1  6
 21 49  1  0
M  END
$$$$
