@<TRIPOS>MOLECULE
*****
 76 80 0 0 0
SMALL
GASTEIGER

@<TRIPOS>ATOM
      1 C           8.9074   -0.0283    3.6582 C.3     1  UNL1       -0.0306
      2 C           7.9927   -1.1726    3.2769 C.3     1  UNL1        0.0885
      3 O           7.1219   -0.8035    2.2241 O.3     1  UNL1       -0.4744
      4 C           7.6097   -0.3998    0.9918 C.ar    1  UNL1        0.2555
      5 N           8.8886   -0.2999    0.6215 N.ar    1  UNL1       -0.1317
      6 N           8.9789    0.1189   -0.6334 N.ar    1  UNL1       -0.2692
      7 C          10.1777    0.3521   -1.3994 C.3     1  UNL1        0.0304
      8 C           7.7086    0.2934   -1.0823 C.ar    1  UNL1        0.0503
      9 C           6.8246   -0.0256   -0.0806 C.ar    1  UNL1        0.1152
     10 N           5.4097    0.0060   -0.1000 N.pl3   1  UNL1       -0.2782
     11 C           4.6381    0.3998   -1.2191 C.ar    1  UNL1        0.2202
     12 N           5.1904    0.7939   -2.3811 N.ar    1  UNL1       -0.2224
     13 C           4.4600    1.1625   -3.4319 C.ar    1  UNL1        0.0361
     14 C           3.0552    1.1424   -3.3330 C.ar    1  UNL1       -0.0062
     15 C           2.2749    1.5927   -4.5089 C.3     1  UNL1       -0.0362
     16 C           2.4822    0.7483   -2.1751 C.ar    1  UNL1        0.0809
     17 C           1.0457    0.6954   -1.9427 C.ar    1  UNL1        0.0258
     18 C          -0.0219    0.8430   -2.7694 C.ar    1  UNL1        0.0120
     19 N          -1.1549    0.6626   -2.0799 N.ar    1  UNL1       -0.3586
     20 C          -0.8756    0.3969   -0.8106 C.ar    1  UNL1        0.0686
     21 C          -1.7354    0.1396    0.2749 C.ar    1  UNL1        0.0576
     22 N          -3.1537    0.1320    0.1234 N.am    1  UNL1       -0.2825
     23 C          -3.7921   -1.0738   -0.2098 C.2     1  UNL1        0.2345
     24 O          -3.0411   -2.1091   -0.3638 O.2     1  UNL1       -0.2737
     25 C          -5.2182   -1.3145   -0.4102 C.3     1  UNL1        0.0874
     26 C          -5.5495   -2.7032    0.0901 C.3     1  UNL1       -0.0317
     27 C          -5.2292   -2.8851    1.5567 C.3     1  UNL1       -0.0634
     28 N          -6.1275   -0.2953   -0.0632 N.3     1  UNL1       -0.2891
     29 C          -7.5039   -0.6145   -0.4179 C.3     1  UNL1        0.0124
     30 C          -8.3911    0.5507   -0.0361 C.3     1  UNL1        0.0114
     31 N          -8.4883    0.5593    1.3971 N.3     1  UNL1       -0.3029
     32 C          -9.0005    1.8449    1.8152 C.3     1  UNL1       -0.0127
     33 C          -7.2801    0.1879    2.0610 C.3     1  UNL1        0.0114
     34 C          -6.0301    0.3091    1.2191 C.3     1  UNL1        0.0124
     35 C          -1.1663   -0.1067    1.4981 C.ar    1  UNL1       -0.0384
     36 C           0.2006   -0.1006    1.6502 C.ar    1  UNL1       -0.0593
     37 C           1.0487    0.1562    0.5649 C.ar    1  UNL1       -0.0518
     38 C           0.4908    0.4075   -0.6807 C.ar    1  UNL1        0.0107
     39 N           3.3139    0.3921   -1.1610 N.ar    1  UNL1       -0.2139
     40 H           9.9038   -0.0914    3.1929 H       1  UNL1        0.0262
     41 H           8.9996    0.0339    4.7633 H       1  UNL1        0.0262
     42 H           8.4330    0.9080    3.2990 H       1  UNL1        0.0262
     43 H           7.3678   -1.4239    4.1533 H       1  UNL1        0.0694
     44 H           8.5988   -2.0647    2.9912 H       1  UNL1        0.0694
     45 H          10.0276    0.0935   -2.4879 H       1  UNL1        0.0473
     46 H          11.0378   -0.2267   -0.9891 H       1  UNL1        0.0473
     47 H          10.4816    1.4181   -1.3906 H       1  UNL1        0.0473
     48 H           7.4984    0.6329   -2.0839 H       1  UNL1        0.0846
     49 H           4.8958   -0.2807    0.7705 H       1  UNL1        0.1552
     50 H           4.8969    1.4807   -4.3738 H       1  UNL1        0.0834
     51 H           1.8300    0.7941   -5.0920 H       1  UNL1        0.0279
     52 H           1.6301    2.4735   -4.2762 H       1  UNL1        0.0279
     53 H           3.0273    2.0736   -5.2366 H       1  UNL1        0.0279
     54 H           0.0112    1.0609   -3.8507 H       1  UNL1        0.0814
     55 H          -2.1304    0.7258   -2.4995 H       1  UNL1        0.1654
     56 H          -3.7354    0.9736    0.2389 H       1  UNL1        0.1549
     57 H          -5.3231   -1.4152   -1.5554 H       1  UNL1        0.0558
     58 H          -4.8326   -3.3928   -0.4495 H       1  UNL1        0.0282
     59 H          -6.5424   -3.0578   -0.1809 H       1  UNL1        0.0282
     60 H          -4.3354   -2.2805    1.8543 H       1  UNL1        0.0230
     61 H          -6.0969   -2.7563    2.2188 H       1  UNL1        0.0230
     62 H          -4.8846   -3.9483    1.7562 H       1  UNL1        0.0230
     63 H          -7.5584   -0.7460   -1.5062 H       1  UNL1        0.0439
     64 H          -7.8258   -1.5129    0.1042 H       1  UNL1        0.0439
     65 H          -7.9833    1.4953   -0.4401 H       1  UNL1        0.0439
     66 H          -9.4201    0.3713   -0.4371 H       1  UNL1        0.0439
     67 H          -9.8776    1.6977    2.4869 H       1  UNL1        0.0391
     68 H          -9.3308    2.4772    0.9465 H       1  UNL1        0.0391
     69 H          -8.1801    2.4163    2.3076 H       1  UNL1        0.0391
     70 H          -7.3569   -0.7781    2.5979 H       1  UNL1        0.0439
     71 H          -7.1455    0.9414    2.8967 H       1  UNL1        0.0439
     72 H          -5.8810    1.4201    1.0662 H       1  UNL1        0.0439
     73 H          -5.1922   -0.0624    1.7913 H       1  UNL1        0.0439
     74 H          -1.8155   -0.3053    2.3383 H       1  UNL1        0.0637
     75 H           0.6415   -0.2947    2.6146 H       1  UNL1        0.0618
     76 H           2.1057    0.1532    0.7280 H       1  UNL1        0.0624
@<TRIPOS>BOND
     1     1     2    1
     2     2     3    1
     3     3     4    1
     4     4     5   ar
     5     5     6   ar
     6     6     7    1
     7     6     8   ar
     8     8     9   ar
     9     9    10    1
    10    10    11    1
    11    11    12   ar
    12    12    13   ar
    13    13    14   ar
    14    14    15    1
    15    14    16   ar
    16    16    17    1
    17    17    18   ar
    18    18    19   ar
    19    19    20   ar
    20    20    21   ar
    21    21    22    1
    22    22    23   am
    23    23    24    2
    24    23    25    1
    25    25    26    1
    26    26    27    1
    27    25    28    1
    28    28    29    1
    29    29    30    1
    30    30    31    1
    31    31    32    1
    32    31    33    1
    33    33    34    1
    34    21    35   ar
    35    35    36   ar
    36    36    37   ar
    37    37    38   ar
    38    16    39   ar
    39     9     4   ar
    40    39    11   ar
    41    38    17   ar
    42    38    20   ar
    43    34    28    1
    44     1    40    1
    45     1    41    1
    46     1    42    1
    47     2    43    1
    48     2    44    1
    49     7    45    1
    50     7    46    1
    51     7    47    1
    52     8    48    1
    53    10    49    1
    54    13    50    1
    55    15    51    1
    56    15    52    1
    57    15    53    1
    58    18    54    1
    59    19    55    1
    60    22    56    1
    61    25    57    1
    62    26    58    1
    63    26    59    1
    64    27    60    1
    65    27    61    1
    66    27    62    1
    67    29    63    1
    68    29    64    1
    69    30    65    1
    70    30    66    1
    71    32    67    1
    72    32    68    1
    73    32    69    1
    74    33    70    1
    75    33    71    1
    76    34    72    1
    77    34    73    1
    78    35    74    1
    79    36    75    1
    80    37    76    1
