
     RDKit          3D

 76 80  0  0  0  0  0  0  0  0999 V2000
    8.9074   -0.0283    3.6582 C   0  0  0  0  0  0  0  0  0  0  0  0
    7.9927   -1.1726    3.2769 C   0  0  0  0  0  0  0  0  0  0  0  0
    7.1219   -0.8035    2.2241 O   0  0  0  0  0  0  0  0  0  0  0  0
    7.6097   -0.3998    0.9918 C   0  0  0  0  0  0  0  0  0  0  0  0
    8.8886   -0.2999    0.6215 N   0  0  0  0  0  0  0  0  0  0  0  0
    8.9789    0.1189   -0.6334 N   0  0  0  0  0  0  0  0  0  0  0  0
   10.1777    0.3521   -1.3994 C   0  0  0  0  0  0  0  0  0  0  0  0
    7.7086    0.2934   -1.0823 C   0  0  0  0  0  0  0  0  0  0  0  0
    6.8246   -0.0256   -0.0806 C   0  0  0  0  0  0  0  0  0  0  0  0
    5.4097    0.0060   -0.1000 N   0  0  0  0  0  0  0  0  0  0  0  0
    4.6381    0.3998   -1.2191 C   0  0  0  0  0  0  0  0  0  0  0  0
    5.1904    0.7939   -2.3811 N   0  0  0  0  0  0  0  0  0  0  0  0
    4.4600    1.1625   -3.4319 C   0  0  0  0  0  0  0  0  0  0  0  0
    3.0552    1.1424   -3.3330 C   0  0  0  0  0  0  0  0  0  0  0  0
    2.2749    1.5927   -4.5089 C   0  0  0  0  0  0  0  0  0  0  0  0
    2.4822    0.7483   -2.1751 C   0  0  0  0  0  0  0  0  0  0  0  0
    1.0457    0.6954   -1.9427 C   0  0  0  0  0  0  0  0  0  0  0  0
   -0.0219    0.8430   -2.7694 C   0  0  0  0  0  0  0  0  0  0  0  0
   -1.1549    0.6626   -2.0799 N   0  0  0  0  0  0  0  0  0  0  0  0
   -0.8756    0.3969   -0.8106 C   0  0  0  0  0  0  0  0  0  0  0  0
   -1.7354    0.1396    0.2749 C   0  0  0  0  0  0  0  0  0  0  0  0
   -3.1537    0.1320    0.1234 N   0  0  0  0  0  0  0  0  0  0  0  0
   -3.7921   -1.0738   -0.2098 C   0  0  0  0  0  0  0  0  0  0  0  0
   -3.0411   -2.1091   -0.3638 O   0  0  0  0  0  0  0  0  0  0  0  0
   -5.2182   -1.3145   -0.4102 C   0  0  1  0  0  0  0  0  0  0  0  0
   -5.5495   -2.7032    0.0901 C   0  0  0  0  0  0  0  0  0  0  0  0
   -5.2292   -2.8851    1.5567 C   0  0  0  0  0  0  0  0  0  0  0  0
   -6.1275   -0.2953   -0.0632 N   0  0  0  0  0  0  0  0  0  0  0  0
   -7.5039   -0.6145   -0.4179 C   0  0  0  0  0  0  0  0  0  0  0  0
   -8.3911    0.5507   -0.0361 C   0  0  0  0  0  0  0  0  0  0  0  0
   -8.4883    0.5593    1.3971 N   0  0  0  0  0  0  0  0  0  0  0  0
   -9.0005    1.8449    1.8152 C   0  0  0  0  0  0  0  0  0  0  0  0
   -7.2801    0.1879    2.0610 C   0  0  0  0  0  0  0  0  0  0  0  0
   -6.0301    0.3091    1.2191 C   0  0  0  0  0  0  0  0  0  0  0  0
   -1.1663   -0.1067    1.4981 C   0  0  0  0  0  0  0  0  0  0  0  0
    0.2006   -0.1006    1.6502 C   0  0  0  0  0  0  0  0  0  0  0  0
    1.0487    0.1562    0.5649 C   0  0  0  0  0  0  0  0  0  0  0  0
    0.4908    0.4075   -0.6807 C   0  0  0  0  0  0  0  0  0  0  0  0
    3.3139    0.3921   -1.1610 N   0  0  0  0  0  0  0  0  0  0  0  0
    9.9038   -0.0914    3.1929 H   0  0  0  0  0  0  0  0  0  0  0  0
    8.9996    0.0339    4.7633 H   0  0  0  0  0  0  0  0  0  0  0  0
    8.4330    0.9080    3.2990 H   0  0  0  0  0  0  0  0  0  0  0  0
    7.3678   -1.4239    4.1533 H   0  0  0  0  0  0  0  0  0  0  0  0
    8.5988   -2.0647    2.9912 H   0  0  0  0  0  0  0  0  0  0  0  0
   10.0276    0.0935   -2.4879 H   0  0  0  0  0  0  0  0  0  0  0  0
   11.0378   -0.2267   -0.9891 H   0  0  0  0  0  0  0  0  0  0  0  0
   10.4816    1.4181   -1.3906 H   0  0  0  0  0  0  0  0  0  0  0  0
    7.4984    0.6329   -2.0839 H   0  0  0  0  0  0  0  0  0  0  0  0
    4.8958   -0.2807    0.7705 H   0  0  0  0  0  0  0  0  0  0  0  0
    4.8969    1.4807   -4.3738 H   0  0  0  0  0  0  0  0  0  0  0  0
    1.8300    0.7941   -5.0920 H   0  0  0  0  0  0  0  0  0  0  0  0
    1.6301    2.4735   -4.2762 H   0  0  0  0  0  0  0  0  0  0  0  0
    3.0273    2.0736   -5.2366 H   0  0  0  0  0  0  0  0  0  0  0  0
    0.0112    1.0609   -3.8507 H   0  0  0  0  0  0  0  0  0  0  0  0
   -2.1304    0.7258   -2.4995 H   0  0  0  0  0  0  0  0  0  0  0  0
   -3.7354    0.9736    0.2389 H   0  0  0  0  0  0  0  0  0  0  0  0
   -5.3231   -1.4152   -1.5554 H   0  0  0  0  0  0  0  0  0  0  0  0
   -4.8326   -3.3928   -0.4495 H   0  0  0  0  0  0  0  0  0  0  0  0
   -6.5424   -3.0578   -0.1809 H   0  0  0  0  0  0  0  0  0  0  0  0
   -4.3354   -2.2805    1.8543 H   0  0  0  0  0  0  0  0  0  0  0  0
   -6.0969   -2.7563    2.2188 H   0  0  0  0  0  0  0  0  0  0  0  0
   -4.8846   -3.9483    1.7562 H   0  0  0  0  0  0  0  0  0  0  0  0
   -7.5584   -0.7460   -1.5062 H   0  0  0  0  0  0  0  0  0  0  0  0
   -7.8258   -1.5129    0.1042 H   0  0  0  0  0  0  0  0  0  0  0  0
   -7.9833    1.4953   -0.4401 H   0  0  0  0  0  0  0  0  0  0  0  0
   -9.4201    0.3713   -0.4371 H   0  0  0  0  0  0  0  0  0  0  0  0
   -9.8776    1.6977    2.4869 H   0  0  0  0  0  0  0  0  0  0  0  0
   -9.3308    2.4772    0.9465 H   0  0  0  0  0  0  0  0  0  0  0  0
   -8.1801    2.4163    2.3076 H   0  0  0  0  0  0  0  0  0  0  0  0
   -7.3569   -0.7781    2.5979 H   0  0  0  0  0  0  0  0  0  0  0  0
   -7.1455    0.9414    2.8967 H   0  0  0  0  0  0  0  0  0  0  0  0
   -5.8810    1.4201    1.0662 H   0  0  0  0  0  0  0  0  0  0  0  0
   -5.1922   -0.0624    1.7913 H   0  0  0  0  0  0  0  0  0  0  0  0
   -1.8155   -0.3053    2.3383 H   0  0  0  0  0  0  0  0  0  0  0  0
    0.6415   -0.2947    2.6146 H   0  0  0  0  0  0  0  0  0  0  0  0
    2.1057    0.1532    0.7280 H   0  0  0  0  0  0  0  0  0  0  0  0
  1  2  1  0
  2  3  1  0
  3  4  1  0
  4  5  2  0
  5  6  1  0
  6  7  1  0
  6  8  1  0
  8  9  2  0
  9 10  1  0
 10 11  1  0
 11 12  2  0
 12 13  1  0
 13 14  2  0
 14 15  1  0
 14 16  1  0
 16 17  1  0
 17 18  2  0
 18 19  1  0
 19 20  1  0
 20 21  2  0
 21 22  1  0
 22 23  1  0
 23 24  2  0
 23 25  1  0
 25 26  1  0
 26 27  1  0
 25 28  1  0
 28 29  1  0
 29 30  1  0
 30 31  1  0
 31 32  1  0
 31 33  1  0
 33 34  1  0
 21 35  1  0
 35 36  2  0
 36 37  1  0
 37 38  2  0
 16 39  2  0
  9  4  1  0
 39 11  1  0
 38 17  1  0
 38 20  1  0
 34 28  1  0
  1 40  1  0
  1 41  1  0
  1 42  1  0
  2 43  1  0
  2 44  1  0
  7 45  1  0
  7 46  1  0
  7 47  1  0
  8 48  1  0
 10 49  1  0
 13 50  1  0
 15 51  1  0
 15 52  1  0
 15 53  1  0
 18 54  1  0
 19 55  1  0
 22 56  1  0
 25 57  1  6
 26 58  1  0
 26 59  1  0
 27 60  1  0
 27 61  1  0
 27 62  1  0
 29 63  1  0
 29 64  1  0
 30 65  1  0
 30 66  1  0
 32 67  1  0
 32 68  1  0
 32 69  1  0
 33 70  1  0
 33 71  1  0
 34 72  1  0
 34 73  1  0
 35 74  1  0
 36 75  1  0
 37 76  1  0
M  END
$$$$
