@<TRIPOS>MOLECULE
*****
 30 31 0 0 0
SMALL
GASTEIGER

@<TRIPOS>ATOM
      1 C          -1.2177    0.7555    0.3388 C.3     1  UNL1        0.1133
      2 C          -1.9810    1.7151    1.2123 C.3     1  UNL1        0.0730
      3 O          -1.3172    2.9351    1.3051 O.3     1  UNL1       -0.3924
      4 O           0.0454    0.5270    0.8640 O.3     1  UNL1       -0.3346
      5 C           0.8490   -0.2519    0.0967 C.3     1  UNL1        0.2734
      6 N           1.8096   -0.8798    0.9830 N.2     1  UNL1       -0.1881
      7 C           2.9904   -0.4440    0.7379 C.2     1  UNL1        0.3120
      8 O           4.0425   -0.9499    1.5078 O.2     1  UNL1       -0.4799
      9 N           3.0809    0.5132   -0.3019 N.am    1  UNL1       -0.0961
     10 O           4.1722    1.1315   -0.7666 O.3     1  UNL1       -0.2841
     11 C           1.7238    0.6367   -0.7103 C.2     1  UNL1        0.3040
     12 O           1.2942    1.3982   -1.6381 O.2     1  UNL1       -0.2675
     13 C           0.2155   -1.3320   -0.6960 C.3     1  UNL1        0.1420
     14 O           0.8091   -1.2936   -1.9805 O.3     1  UNL1       -0.3838
     15 C          -1.2512   -1.2638   -0.9106 C.3     1  UNL1        0.1144
     16 O          -1.7966   -2.5145   -1.1571 O.3     1  UNL1       -0.3864
     17 C          -1.8694   -0.6117    0.3243 C.3     1  UNL1        0.1119
     18 O          -3.2517   -0.5654    0.2734 O.3     1  UNL1       -0.3865
     19 H          -1.1030    1.1862   -0.6714 H       1  UNL1        0.0647
     20 H          -2.9474    1.9355    0.6715 H       1  UNL1        0.0584
     21 H          -2.2521    1.2943    2.1794 H       1  UNL1        0.0584
     22 H          -1.6808    3.6107    0.6531 H       1  UNL1        0.2095
     23 H           3.9162   -1.2887    2.4451 H       1  UNL1        0.2951
     24 H           4.1406    2.0891   -0.5438 H       1  UNL1        0.2423
     25 H           0.4505   -2.3501   -0.3216 H       1  UNL1        0.0674
     26 H           0.1977   -0.9236   -2.6595 H       1  UNL1        0.2101
     27 H          -1.4873   -0.5747   -1.7575 H       1  UNL1        0.0648
     28 H          -2.4892   -2.4944   -1.8758 H       1  UNL1        0.2100
     29 H          -1.5168   -1.2238    1.1927 H       1  UNL1        0.0647
     30 H          -3.5765   -0.7661    1.2059 H       1  UNL1        0.2100
@<TRIPOS>BOND
     1     1     2    1
     2     2     3    1
     3     1     4    1
     4     5     4    1
     5     5     6    1
     6     6     7    2
     7     7     8    1
     8     7     9    1
     9     9    10    1
    10     9    11   am
    11    11    12    2
    12     5    13    1
    13    13    14    1
    14    13    15    1
    15    15    16    1
    16    15    17    1
    17    17    18    1
    18    17     1    1
    19    11     5    1
    20     1    19    1
    21     2    20    1
    22     2    21    1
    23     3    22    1
    24     8    23    1
    25    10    24    1
    26    13    25    1
    27    14    26    1
    28    15    27    1
    29    16    28    1
    30    17    29    1
    31    18    30    1
