@<TRIPOS>MOLECULE
*****
 48 51 0 0 0
SMALL
GASTEIGER

@<TRIPOS>ATOM
      1 CL         -7.3103   -0.3329   -3.7528 Cl      1  UNL1       -0.0835
      2 C          -6.6850   -0.3351   -2.1171 C.ar    1  UNL1        0.0427
      3 C          -7.6606   -0.3762   -1.1148 C.ar    1  UNL1       -0.0433
      4 C          -7.1885   -0.3797    0.1796 C.ar    1  UNL1       -0.0586
      5 C          -5.8449   -0.3452    0.4847 C.ar    1  UNL1       -0.0406
      6 C          -4.8946   -0.3049   -0.5138 C.ar    1  UNL1        0.0311
      7 C          -5.3433   -0.3009   -1.8092 C.ar    1  UNL1       -0.0223
      8 N          -3.4969   -0.2698   -0.2763 N.pl3   1  UNL1       -0.3274
      9 C          -2.5523   -0.1693   -1.3369 C.3     1  UNL1        0.0250
     10 C          -1.1759    0.2275   -0.9923 C.3     1  UNL1        0.0147
     11 N          -0.9415    0.8642    0.2565 N.3     1  UNL1       -0.2993
     12 C           0.1140    0.2617    1.0378 C.3     1  UNL1        0.0007
     13 C           1.4870    0.4261    0.4578 C.3     1  UNL1       -0.0204
     14 C           2.4401   -0.2701    1.4167 C.3     1  UNL1        0.0479
     15 N           3.8059   -0.1963    0.9920 N.ar    1  UNL1       -0.2123
     16 N           4.3622   -1.1159    0.2083 N.ar    1  UNL1       -0.1488
     17 C           5.6453   -0.8170   -0.0442 C.ar    1  UNL1        0.1617
     18 C           6.5409   -1.5408   -0.8203 C.ar    1  UNL1       -0.0170
     19 C           7.8133   -1.0065   -0.9182 C.ar    1  UNL1       -0.0569
     20 C           8.1301    0.1819   -0.2643 C.ar    1  UNL1       -0.0449
     21 C           7.1530    0.8312    0.4921 C.ar    1  UNL1        0.0161
     22 N           5.9207    0.3298    0.5973 N.ar    1  UNL1       -0.2508
     23 C           4.7853    0.6898    1.2220 C.ar    1  UNL1        0.3510
     24 O           4.6414    1.7073    1.9257 O.2     1  UNL1       -0.2444
     25 C          -2.0873    0.9812    1.1104 C.3     1  UNL1        0.0147
     26 C          -2.8730   -0.3322    1.0281 C.3     1  UNL1        0.0250
     27 H          -8.7282   -0.4045   -1.2671 H       1  UNL1        0.0632
     28 H          -7.8883   -0.4101    0.9944 H       1  UNL1        0.0619
     29 H          -5.5457   -0.3496    1.5153 H       1  UNL1        0.0636
     30 H          -4.7451   -0.2738   -2.6824 H       1  UNL1        0.0651
     31 H          -2.5384   -1.1795   -1.8367 H       1  UNL1        0.0476
     32 H          -2.9604    0.5108   -2.1424 H       1  UNL1        0.0476
     33 H          -0.4846   -0.6662   -1.0321 H       1  UNL1        0.0442
     34 H          -0.7766    0.9107   -1.7797 H       1  UNL1        0.0442
     35 H           0.0902    0.7820    2.0185 H       1  UNL1        0.0427
     36 H          -0.1267   -0.7973    1.2470 H       1  UNL1        0.0427
     37 H           1.7760    1.4966    0.4620 H       1  UNL1        0.0295
     38 H           1.5905    0.0558   -0.5705 H       1  UNL1        0.0295
     39 H           2.1062   -1.3193    1.4971 H       1  UNL1        0.0511
     40 H           2.3867    0.1819    2.4281 H       1  UNL1        0.0511
     41 H           6.2299   -2.4671   -1.3080 H       1  UNL1        0.0655
     42 H           8.5231   -1.5627   -1.5222 H       1  UNL1        0.0619
     43 H           9.1376    0.5609   -0.3709 H       1  UNL1        0.0632
     44 H           7.4020    1.7575    1.0010 H       1  UNL1        0.0815
     45 H          -2.7735    1.7907    0.8723 H       1  UNL1        0.0442
     46 H          -1.7503    1.0854    2.1507 H       1  UNL1        0.0442
     47 H          -3.5549   -0.4098    1.8704 H       1  UNL1        0.0476
     48 H          -2.1546   -1.1958    1.0063 H       1  UNL1        0.0476
@<TRIPOS>BOND
     1     1     2    1
     2     2     3   ar
     3     3     4   ar
     4     4     5   ar
     5     5     6   ar
     6     6     7   ar
     7     6     8    1
     8     8     9    1
     9     9    10    1
    10    10    11    1
    11    11    12    1
    12    12    13    1
    13    13    14    1
    14    14    15    1
    15    15    16   ar
    16    16    17   ar
    17    17    18   ar
    18    18    19   ar
    19    19    20   ar
    20    20    21   ar
    21    21    22   ar
    22    22    23   ar
    23    23    24    2
    24    11    25    1
    25    25    26    1
    26     7     2   ar
    27    26     8    1
    28    23    15   ar
    29    22    17   ar
    30     3    27    1
    31     4    28    1
    32     5    29    1
    33     7    30    1
    34     9    31    1
    35     9    32    1
    36    10    33    1
    37    10    34    1
    38    12    35    1
    39    12    36    1
    40    13    37    1
    41    13    38    1
    42    14    39    1
    43    14    40    1
    44    18    41    1
    45    19    42    1
    46    20    43    1
    47    21    44    1
    48    25    45    1
    49    25    46    1
    50    26    47    1
    51    26    48    1
