
     RDKit          3D

 48 51  0  0  0  0  0  0  0  0999 V2000
   -7.3103   -0.3329   -3.7528 Cl  0  0  0  0  0  0  0  0  0  0  0  0
   -6.6850   -0.3351   -2.1171 C   0  0  0  0  0  0  0  0  0  0  0  0
   -7.6606   -0.3762   -1.1148 C   0  0  0  0  0  0  0  0  0  0  0  0
   -7.1885   -0.3797    0.1796 C   0  0  0  0  0  0  0  0  0  0  0  0
   -5.8449   -0.3452    0.4847 C   0  0  0  0  0  0  0  0  0  0  0  0
   -4.8946   -0.3049   -0.5138 C   0  0  0  0  0  0  0  0  0  0  0  0
   -5.3433   -0.3009   -1.8092 C   0  0  0  0  0  0  0  0  0  0  0  0
   -3.4969   -0.2698   -0.2763 N   0  0  0  0  0  0  0  0  0  0  0  0
   -2.5523   -0.1693   -1.3369 C   0  0  0  0  0  0  0  0  0  0  0  0
   -1.1759    0.2275   -0.9923 C   0  0  0  0  0  0  0  0  0  0  0  0
   -0.9415    0.8642    0.2565 N   0  0  0  0  0  0  0  0  0  0  0  0
    0.1140    0.2617    1.0378 C   0  0  0  0  0  0  0  0  0  0  0  0
    1.4870    0.4261    0.4578 C   0  0  0  0  0  0  0  0  0  0  0  0
    2.4401   -0.2701    1.4167 C   0  0  0  0  0  0  0  0  0  0  0  0
    3.8059   -0.1963    0.9920 N   0  0  0  0  0  0  0  0  0  0  0  0
    4.3622   -1.1159    0.2083 N   0  0  0  0  0  0  0  0  0  0  0  0
    5.6453   -0.8170   -0.0442 C   0  0  0  0  0  0  0  0  0  0  0  0
    6.5409   -1.5408   -0.8203 C   0  0  0  0  0  0  0  0  0  0  0  0
    7.8133   -1.0065   -0.9182 C   0  0  0  0  0  0  0  0  0  0  0  0
    8.1301    0.1819   -0.2643 C   0  0  0  0  0  0  0  0  0  0  0  0
    7.1530    0.8312    0.4921 C   0  0  0  0  0  0  0  0  0  0  0  0
    5.9207    0.3298    0.5973 N   0  0  0  0  0  0  0  0  0  0  0  0
    4.7853    0.6898    1.2220 C   0  0  0  0  0  0  0  0  0  0  0  0
    4.6414    1.7073    1.9257 O   0  0  0  0  0  0  0  0  0  0  0  0
   -2.0873    0.9812    1.1104 C   0  0  0  0  0  0  0  0  0  0  0  0
   -2.8730   -0.3322    1.0281 C   0  0  0  0  0  0  0  0  0  0  0  0
   -8.7282   -0.4045   -1.2671 H   0  0  0  0  0  0  0  0  0  0  0  0
   -7.8883   -0.4101    0.9944 H   0  0  0  0  0  0  0  0  0  0  0  0
   -5.5457   -0.3496    1.5153 H   0  0  0  0  0  0  0  0  0  0  0  0
   -4.7451   -0.2738   -2.6824 H   0  0  0  0  0  0  0  0  0  0  0  0
   -2.5384   -1.1795   -1.8367 H   0  0  0  0  0  0  0  0  0  0  0  0
   -2.9604    0.5108   -2.1424 H   0  0  0  0  0  0  0  0  0  0  0  0
   -0.4846   -0.6662   -1.0321 H   0  0  0  0  0  0  0  0  0  0  0  0
   -0.7766    0.9107   -1.7797 H   0  0  0  0  0  0  0  0  0  0  0  0
    0.0902    0.7820    2.0185 H   0  0  0  0  0  0  0  0  0  0  0  0
   -0.1267   -0.7973    1.2470 H   0  0  0  0  0  0  0  0  0  0  0  0
    1.7760    1.4966    0.4620 H   0  0  0  0  0  0  0  0  0  0  0  0
    1.5905    0.0558   -0.5705 H   0  0  0  0  0  0  0  0  0  0  0  0
    2.1062   -1.3193    1.4971 H   0  0  0  0  0  0  0  0  0  0  0  0
    2.3867    0.1819    2.4281 H   0  0  0  0  0  0  0  0  0  0  0  0
    6.2299   -2.4671   -1.3080 H   0  0  0  0  0  0  0  0  0  0  0  0
    8.5231   -1.5627   -1.5222 H   0  0  0  0  0  0  0  0  0  0  0  0
    9.1376    0.5609   -0.3709 H   0  0  0  0  0  0  0  0  0  0  0  0
    7.4020    1.7575    1.0010 H   0  0  0  0  0  0  0  0  0  0  0  0
   -2.7735    1.7907    0.8723 H   0  0  0  0  0  0  0  0  0  0  0  0
   -1.7503    1.0854    2.1507 H   0  0  0  0  0  0  0  0  0  0  0  0
   -3.5549   -0.4098    1.8704 H   0  0  0  0  0  0  0  0  0  0  0  0
   -2.1546   -1.1958    1.0063 H   0  0  0  0  0  0  0  0  0  0  0  0
  1  2  1  0
  2  3  2  0
  3  4  1  0
  4  5  2  0
  5  6  1  0
  6  7  2  0
  6  8  1  0
  8  9  1  0
  9 10  1  0
 10 11  1  0
 11 12  1  0
 12 13  1  0
 13 14  1  0
 14 15  1  0
 15 16  1  0
 16 17  2  0
 17 18  1  0
 18 19  2  0
 19 20  1  0
 20 21  2  0
 21 22  1  0
 22 23  1  0
 23 24  2  0
 11 25  1  0
 25 26  1  0
  7  2  1  0
 26  8  1  0
 23 15  1  0
 22 17  1  0
  3 27  1  0
  4 28  1  0
  5 29  1  0
  7 30  1  0
  9 31  1  0
  9 32  1  0
 10 33  1  0
 10 34  1  0
 12 35  1  0
 12 36  1  0
 13 37  1  0
 13 38  1  0
 14 39  1  0
 14 40  1  0
 18 41  1  0
 19 42  1  0
 20 43  1  0
 21 44  1  0
 25 45  1  0
 25 46  1  0
 26 47  1  0
 26 48  1  0
M  END
$$$$
