@<TRIPOS>MOLECULE
*****
 52 55 0 0 0
SMALL
GASTEIGER

@<TRIPOS>ATOM
      1 N          -4.7827    0.9208    1.5903 N.pl3   1  UNL1       -0.3421
      2 C          -6.1710    0.8885    1.2034 C.ar    1  UNL1        0.1337
      3 N          -7.0603    1.4933    2.0964 N.ar    1  UNL1       -0.1948
      4 S          -8.6725    1.3146    1.3248 S.2     1  UNL1        0.0138
      5 C          -8.0603    0.4661   -0.0982 C.ar    1  UNL1        0.0419
      6 C          -8.7394   -0.0426   -1.2152 C.ar    1  UNL1       -0.0459
      7 C          -8.0059   -0.6907   -2.2096 C.ar    1  UNL1       -0.0599
      8 C          -6.6739   -0.7824   -2.0179 C.ar    1  UNL1       -0.0489
      9 C          -5.9893   -0.2892   -0.9258 C.ar    1  UNL1        0.0485
     10 C          -4.5825   -0.5274   -0.8802 C.2     1  UNL1        0.2490
     11 O          -4.1614   -1.7363   -0.7309 O.2     1  UNL1       -0.2698
     12 N          -3.5137    0.4143   -0.9865 N.am    1  UNL1       -0.2815
     13 C          -2.1598   -0.0214   -0.9345 C.ar    1  UNL1        0.0340
     14 C          -1.6351   -0.4775   -2.1434 C.ar    1  UNL1       -0.0405
     15 C          -0.3802   -0.9850   -2.2536 C.ar    1  UNL1       -0.0597
     16 C           0.3922   -1.0359   -1.0776 C.ar    1  UNL1       -0.0570
     17 C          -0.0609   -0.6047    0.1328 C.ar    1  UNL1       -0.0285
     18 C           0.6844   -0.7117    1.3953 C.3     1  UNL1        0.0384
     19 N           1.7277    0.2696    1.5155 N.am    1  UNL1       -0.2950
     20 C           3.0562   -0.0374    1.0529 C.2     1  UNL1        0.3041
     21 O           3.2203   -1.1673    0.5829 O.2     1  UNL1       -0.2525
     22 N           4.1431    0.8498    1.1126 N.am    1  UNL1       -0.2695
     23 C           5.4752    0.5707    0.6817 C.ar    1  UNL1        0.0348
     24 C           5.8769   -0.5398    0.0091 C.ar    1  UNL1       -0.0399
     25 C           7.2378   -0.7027   -0.2955 C.ar    1  UNL1       -0.0484
     26 C           8.1966    0.2156    0.0546 C.ar    1  UNL1        0.0549
     27 C           9.6220   -0.0065   -0.2779 C.3     1  UNL1        0.4174
     28 F           9.8925   -1.3274    0.0402 F       1  UNL1       -0.1659
     29 F           9.8114    0.0827   -1.6547 F       1  UNL1       -0.1659
     30 F          10.4497    0.8662    0.3778 F       1  UNL1       -0.1659
     31 C           7.7829    1.3341    0.7318 C.ar    1  UNL1       -0.0484
     32 C           6.4646    1.5025    1.0343 C.ar    1  UNL1       -0.0399
     33 C          -1.3857   -0.0852    0.1698 C.ar    1  UNL1       -0.0358
     34 C          -6.7111    0.3745    0.0968 C.ar    1  UNL1        0.0423
     35 H          -4.2485    1.7979    1.4962 H       1  UNL1        0.1437
     36 H          -4.3324    0.0732    1.9588 H       1  UNL1        0.1437
     37 H          -9.8065    0.0571   -1.3178 H       1  UNL1        0.0629
     38 H          -8.5454   -1.0775   -3.0558 H       1  UNL1        0.0618
     39 H          -6.1016   -1.2958   -2.8012 H       1  UNL1        0.0625
     40 H          -3.7612    1.4104   -1.0995 H       1  UNL1        0.1551
     41 H          -2.2353   -0.4319   -3.0388 H       1  UNL1        0.0636
     42 H           0.0727   -1.3531   -3.1548 H       1  UNL1        0.0618
     43 H           1.3929   -1.4581   -1.2095 H       1  UNL1        0.0621
     44 H           0.0082   -0.6321    2.2811 H       1  UNL1        0.0512
     45 H           1.1313   -1.7532    1.4739 H       1  UNL1        0.0512
     46 H           1.5397    1.2064    1.9307 H       1  UNL1        0.1506
     47 H           3.9240    1.8088    1.5146 H       1  UNL1        0.1564
     48 H           5.1759   -1.2914   -0.3002 H       1  UNL1        0.0636
     49 H           7.5560   -1.5914   -0.8361 H       1  UNL1        0.0624
     50 H           8.5215    2.0841    1.0185 H       1  UNL1        0.0624
     51 H           6.1798    2.4009    1.5710 H       1  UNL1        0.0636
     52 H          -1.7586    0.2537    1.1046 H       1  UNL1        0.0639
@<TRIPOS>BOND
     1     1     2    1
     2     2     3   ar
     3     3     4   ar
     4     4     5   ar
     5     5     6   ar
     6     6     7   ar
     7     7     8   ar
     8     8     9   ar
     9     9    10    1
    10    10    11    2
    11    10    12   am
    12    12    13    1
    13    13    14   ar
    14    14    15   ar
    15    15    16   ar
    16    16    17   ar
    17    17    18    1
    18    18    19    1
    19    19    20   am
    20    20    21    2
    21    20    22   am
    22    22    23    1
    23    23    24   ar
    24    24    25   ar
    25    25    26   ar
    26    26    27    1
    27    27    28    1
    28    27    29    1
    29    27    30    1
    30    26    31   ar
    31    31    32   ar
    32    17    33   ar
    33     9    34   ar
    34    34     2   ar
    35    34     5   ar
    36    33    13   ar
    37    32    23   ar
    38     1    35    1
    39     1    36    1
    40     6    37    1
    41     7    38    1
    42     8    39    1
    43    12    40    1
    44    14    41    1
    45    15    42    1
    46    16    43    1
    47    18    44    1
    48    18    45    1
    49    19    46    1
    50    22    47    1
    51    24    48    1
    52    25    49    1
    53    31    50    1
    54    32    51    1
    55    33    52    1
