@<TRIPOS>MOLECULE
*****
 32 34 0 0 0
SMALL
GASTEIGER

@<TRIPOS>ATOM
      1 O          -4.4151    2.3518   -0.2043 O.2     1  UNL1       -0.2451
      2 C          -3.4553    2.2292   -1.0086 C.2     1  UNL1        0.3389
      3 O          -3.4262    3.0977   -2.0822 O.3     1  UNL1       -0.4771
      4 C          -2.4191    1.2114   -0.8118 C.ar    1  UNL1        0.0858
      5 C          -1.3214    0.9609   -1.5990 C.ar    1  UNL1        0.0441
      6 N          -0.6205   -0.0601   -1.0656 N.ar    1  UNL1       -0.2174
      7 S           0.8333   -0.6727   -1.7467 S.O2    1  UNL1        0.0842
      8 O           1.1343    0.0875   -2.9982 O.2     1  UNL1       -0.1476
      9 O           0.6761   -2.1516   -2.0446 O.2     1  UNL1       -0.1476
     10 C           2.2133   -0.4978   -0.6990 C.ar    1  UNL1        0.1110
     11 C           2.8853    0.7268   -0.6590 C.ar    1  UNL1       -0.0338
     12 C           3.9826    0.8735    0.1514 C.ar    1  UNL1       -0.0459
     13 C           4.4406   -0.1805    0.9380 C.ar    1  UNL1        0.0180
     14 BR          5.9692    0.0489    2.0572 Br      1  UNL1       -0.0503
     15 C           3.7435   -1.3698    0.8638 C.ar    1  UNL1       -0.0459
     16 C           2.6449   -1.5523    0.0666 C.ar    1  UNL1       -0.0338
     17 C          -1.2161   -0.4984    0.0518 C.ar    1  UNL1        0.0730
     18 C          -0.9095   -1.4991    0.9461 C.ar    1  UNL1       -0.0359
     19 C          -1.7583   -1.6982    2.0229 C.ar    1  UNL1       -0.0597
     20 C          -2.8820   -0.9429    2.2295 C.ar    1  UNL1       -0.0611
     21 C          -3.1589    0.0478    1.3172 C.ar    1  UNL1       -0.0517
     22 C          -2.3425    0.2943    0.2154 C.ar    1  UNL1        0.0156
     23 H          -3.7098    4.0804   -2.0026 H       1  UNL1        0.2954
     24 H          -1.0956    1.5242   -2.5008 H       1  UNL1        0.0837
     25 H           2.5284    1.5407   -1.2690 H       1  UNL1        0.0637
     26 H           4.5257    1.8141    0.2035 H       1  UNL1        0.0629
     27 H           4.1237   -2.1779    1.4900 H       1  UNL1        0.0629
     28 H           2.1418   -2.5039    0.0435 H       1  UNL1        0.0637
     29 H          -0.0512   -2.1431    0.8616 H       1  UNL1        0.0639
     30 H          -1.5206   -2.4873    2.7325 H       1  UNL1        0.0618
     31 H          -3.5023   -1.1429    3.0821 H       1  UNL1        0.0618
     32 H          -4.0382    0.6893    1.4182 H       1  UNL1        0.0624
@<TRIPOS>BOND
     1     1     2    2
     2     2     3    1
     3     2     4    1
     4     4     5   ar
     5     5     6   ar
     6     6     7    1
     7     7     8    2
     8     7     9    2
     9     7    10    1
    10    10    11   ar
    11    11    12   ar
    12    12    13   ar
    13    13    14    1
    14    13    15   ar
    15    15    16   ar
    16     6    17   ar
    17    17    18   ar
    18    18    19   ar
    19    19    20   ar
    20    20    21   ar
    21    21    22   ar
    22    22     4   ar
    23    16    10   ar
    24    22    17   ar
    25     3    23    1
    26     5    24    1
    27    11    25    1
    28    12    26    1
    29    15    27    1
    30    16    28    1
    31    18    29    1
    32    19    30    1
    33    20    31    1
    34    21    32    1
