
     RDKit          3D

 32 34  0  0  0  0  0  0  0  0999 V2000
   -4.4151    2.3518   -0.2043 O   0  0  0  0  0  0  0  0  0  0  0  0
   -3.4553    2.2292   -1.0086 C   0  0  0  0  0  0  0  0  0  0  0  0
   -3.4262    3.0977   -2.0822 O   0  0  0  0  0  0  0  0  0  0  0  0
   -2.4191    1.2114   -0.8118 C   0  0  0  0  0  0  0  0  0  0  0  0
   -1.3214    0.9609   -1.5990 C   0  0  0  0  0  0  0  0  0  0  0  0
   -0.6205   -0.0601   -1.0656 N   0  0  0  0  0  0  0  0  0  0  0  0
    0.8333   -0.6727   -1.7467 S   0  0  0  0  0  6  0  0  0  0  0  0
    1.1343    0.0875   -2.9982 O   0  0  0  0  0  0  0  0  0  0  0  0
    0.6761   -2.1516   -2.0446 O   0  0  0  0  0  0  0  0  0  0  0  0
    2.2133   -0.4978   -0.6990 C   0  0  0  0  0  0  0  0  0  0  0  0
    2.8853    0.7268   -0.6590 C   0  0  0  0  0  0  0  0  0  0  0  0
    3.9826    0.8735    0.1514 C   0  0  0  0  0  0  0  0  0  0  0  0
    4.4406   -0.1805    0.9380 C   0  0  0  0  0  0  0  0  0  0  0  0
    5.9692    0.0489    2.0572 Br  0  0  0  0  0  0  0  0  0  0  0  0
    3.7435   -1.3698    0.8638 C   0  0  0  0  0  0  0  0  0  0  0  0
    2.6449   -1.5523    0.0666 C   0  0  0  0  0  0  0  0  0  0  0  0
   -1.2161   -0.4984    0.0518 C   0  0  0  0  0  0  0  0  0  0  0  0
   -0.9095   -1.4991    0.9461 C   0  0  0  0  0  0  0  0  0  0  0  0
   -1.7583   -1.6982    2.0229 C   0  0  0  0  0  0  0  0  0  0  0  0
   -2.8820   -0.9429    2.2295 C   0  0  0  0  0  0  0  0  0  0  0  0
   -3.1589    0.0478    1.3172 C   0  0  0  0  0  0  0  0  0  0  0  0
   -2.3425    0.2943    0.2154 C   0  0  0  0  0  0  0  0  0  0  0  0
   -3.7098    4.0804   -2.0026 H   0  0  0  0  0  0  0  0  0  0  0  0
   -1.0956    1.5242   -2.5008 H   0  0  0  0  0  0  0  0  0  0  0  0
    2.5284    1.5407   -1.2690 H   0  0  0  0  0  0  0  0  0  0  0  0
    4.5257    1.8141    0.2035 H   0  0  0  0  0  0  0  0  0  0  0  0
    4.1237   -2.1779    1.4900 H   0  0  0  0  0  0  0  0  0  0  0  0
    2.1418   -2.5039    0.0435 H   0  0  0  0  0  0  0  0  0  0  0  0
   -0.0512   -2.1431    0.8616 H   0  0  0  0  0  0  0  0  0  0  0  0
   -1.5206   -2.4873    2.7325 H   0  0  0  0  0  0  0  0  0  0  0  0
   -3.5023   -1.1429    3.0821 H   0  0  0  0  0  0  0  0  0  0  0  0
   -4.0382    0.6893    1.4182 H   0  0  0  0  0  0  0  0  0  0  0  0
  1  2  2  0
  2  3  1  0
  2  4  1  0
  4  5  2  0
  5  6  1  0
  6  7  1  0
  7  8  2  0
  7  9  2  0
  7 10  1  0
 10 11  2  0
 11 12  1  0
 12 13  2  0
 13 14  1  0
 13 15  1  0
 15 16  2  0
  6 17  1  0
 17 18  2  0
 18 19  1  0
 19 20  2  0
 20 21  1  0
 21 22  2  0
 22  4  1  0
 16 10  1  0
 22 17  1  0
  3 23  1  0
  5 24  1  0
 11 25  1  0
 12 26  1  0
 15 27  1  0
 16 28  1  0
 18 29  1  0
 19 30  1  0
 20 31  1  0
 21 32  1  0
M  END
$$$$
