@<TRIPOS>MOLECULE
*****
 80 83 0 0 0
SMALL
GASTEIGER

@<TRIPOS>ATOM
      1 C           1.0012    3.6537   -2.8759 C.3     1  UNL1       -0.0494
      2 C           0.3456    4.2396   -1.6733 C.3     1  UNL1        0.0097
      3 N          -0.2155    3.3279   -0.7355 N.pl3   1  UNL1       -0.3267
      4 C          -0.0594    1.8937   -0.7521 C.ar    1  UNL1        0.0347
      5 C          -1.2501    1.1282   -0.6951 C.ar    1  UNL1       -0.0249
      6 C          -1.1999   -0.2151   -0.7904 C.ar    1  UNL1        0.0274
      7 C          -2.2794   -1.1094   -0.2943 C.1     1  UNL1       -0.0659
      8 C          -3.1689   -1.8329    0.0984 C.1     1  UNL1       -0.0935
      9 C          -4.2101   -2.6851    0.5793 C.3     1  UNL1        0.0233
     10 C          -5.3623   -1.8153    1.1384 C.3     1  UNL1       -0.0264
     11 C          -6.1844   -2.8460    1.8969 C.3     1  UNL1       -0.0003
     12 N          -6.7614   -3.8325    1.0470 N.3     1  UNL1       -0.3053
     13 C          -8.1973   -3.7450    0.8653 C.3     1  UNL1       -0.0128
     14 C          -6.0142   -4.3114   -0.0159 C.3     1  UNL1       -0.0003
     15 C          -4.7898   -3.5635   -0.4758 C.3     1  UNL1       -0.0264
     16 C           0.0274   -0.8482   -0.9589 C.ar    1  UNL1       -0.0338
     17 C           1.1900   -0.1106   -1.0064 C.ar    1  UNL1        0.0425
     18 C           2.4151   -0.8763   -1.2402 C.2     1  UNL1        0.2447
     19 O           3.2406   -0.6121   -2.0298 O.2     1  UNL1       -0.2702
     20 N           2.4899   -2.0433   -0.3793 N.am    1  UNL1       -0.3070
     21 C           3.4697   -3.0296   -0.3241 C.3     1  UNL1        0.0425
     22 C           4.7774   -2.6665    0.1822 C.ar    1  UNL1        0.0368
     23 C           5.8267   -2.2764   -0.5577 C.ar    1  UNL1       -0.0390
     24 C           5.8257   -2.1262   -2.0239 C.3     1  UNL1       -0.0392
     25 C           7.0504   -2.0108    0.0682 C.ar    1  UNL1       -0.0393
     26 C           7.1914   -2.1406    1.4052 C.ar    1  UNL1        0.0162
     27 C           8.5251   -1.9391    2.0300 C.3     1  UNL1       -0.0244
     28 N           6.0922   -2.5351    2.1360 N.ar    1  UNL1       -0.3262
     29 C           4.9297   -2.7947    1.5967 C.ar    1  UNL1        0.2539
     30 O           3.9454   -3.1642    2.3127 O.2     1  UNL1       -0.2675
     31 C           1.1208    1.2666   -0.8911 C.ar    1  UNL1       -0.0173
     32 C           2.4311    1.9656   -0.6084 C.3     1  UNL1       -0.0372
     33 C          -1.1078    3.8559    0.3012 C.3     1  UNL1        0.0277
     34 C          -0.4410    5.0219    0.9651 C.3     1  UNL1       -0.0108
     35 C          -1.4386    5.7205    1.8697 C.3     1  UNL1        0.0493
     36 O          -2.5588    6.0968    1.1748 O.3     1  UNL1       -0.3796
     37 C          -2.5393    5.8352   -0.1628 C.3     1  UNL1        0.0493
     38 C          -2.3809    4.3670   -0.4116 C.3     1  UNL1       -0.0108
     39 H           0.7836    2.6055   -3.0508 H       1  UNL1        0.0245
     40 H           0.7523    4.3036   -3.7498 H       1  UNL1        0.0245
     41 H           2.1144    3.7851   -2.7822 H       1  UNL1        0.0245
     42 H          -0.4146    5.0003   -2.0197 H       1  UNL1        0.0461
     43 H           1.1061    4.9235   -1.1413 H       1  UNL1        0.0461
     44 H          -2.2182    1.5953   -0.5556 H       1  UNL1        0.0648
     45 H          -3.8103   -3.3202    1.4326 H       1  UNL1        0.0434
     46 H          -4.9777   -1.1031    1.8545 H       1  UNL1        0.0289
     47 H          -5.8890   -1.4113    0.2531 H       1  UNL1        0.0289
     48 H          -7.0044   -2.2767    2.4095 H       1  UNL1        0.0427
     49 H          -5.5401   -3.2229    2.7320 H       1  UNL1        0.0427
     50 H          -8.7038   -4.2357    1.7581 H       1  UNL1        0.0391
     51 H          -8.4941   -4.1765   -0.0833 H       1  UNL1        0.0391
     52 H          -8.4606   -2.6514    0.8955 H       1  UNL1        0.0391
     53 H          -5.6612   -5.3650    0.2679 H       1  UNL1        0.0427
     54 H          -6.6221   -4.4883   -0.9047 H       1  UNL1        0.0427
     55 H          -5.0119   -2.9176   -1.3476 H       1  UNL1        0.0289
     56 H          -4.0248   -4.2660   -0.8156 H       1  UNL1        0.0289
     57 H           0.0452   -1.9355   -1.0958 H       1  UNL1        0.0637
     58 H           1.6636   -2.1627    0.3189 H       1  UNL1        0.1493
     59 H           3.1156   -3.9308    0.2825 H       1  UNL1        0.0513
     60 H           3.5711   -3.5236   -1.3498 H       1  UNL1        0.0513
     61 H           4.9863   -2.6182   -2.4922 H       1  UNL1        0.0278
     62 H           5.8623   -1.0206   -2.2342 H       1  UNL1        0.0278
     63 H           6.8015   -2.5022   -2.4081 H       1  UNL1        0.0278
     64 H           7.9251   -1.7076   -0.5375 H       1  UNL1        0.0637
     65 H           8.4618   -2.4330    3.0202 H       1  UNL1        0.0292
     66 H           8.7923   -0.8787    2.0518 H       1  UNL1        0.0292
     67 H           9.2729   -2.5528    1.4415 H       1  UNL1        0.0292
     68 H           6.2923   -2.5811    3.1868 H       1  UNL1        0.1686
     69 H           2.5532    1.7098    0.5414 H       1  UNL1        0.0278
     70 H           3.2966    1.4217   -1.0033 H       1  UNL1        0.0278
     71 H           2.4324    3.0364   -0.5973 H       1  UNL1        0.0278
     72 H          -1.4004    3.0533    1.0119 H       1  UNL1        0.0501
     73 H          -0.1082    5.7621    0.2166 H       1  UNL1        0.0305
     74 H           0.4272    4.6517    1.5897 H       1  UNL1        0.0305
     75 H          -0.9539    6.5750    2.3335 H       1  UNL1        0.0560
     76 H          -1.7864    5.0107    2.6756 H       1  UNL1        0.0560
     77 H          -1.7863    6.4388   -0.7081 H       1  UNL1        0.0560
     78 H          -3.5350    6.1198   -0.5900 H       1  UNL1        0.0560
     79 H          -3.2885    3.8560   -0.0495 H       1  UNL1        0.0305
     80 H          -2.3005    4.1900   -1.5216 H       1  UNL1        0.0305
@<TRIPOS>BOND
     1     1     2    1
     2     2     3    1
     3     3     4    1
     4     4     5   ar
     5     5     6   ar
     6     6     7    1
     7     7     8    3
     8     8     9    1
     9     9    10    1
    10    10    11    1
    11    11    12    1
    12    12    13    1
    13    12    14    1
    14    14    15    1
    15     6    16   ar
    16    16    17   ar
    17    17    18    1
    18    18    19    2
    19    18    20   am
    20    20    21    1
    21    21    22    1
    22    22    23   ar
    23    23    24    1
    24    23    25   ar
    25    25    26   ar
    26    26    27    1
    27    26    28   ar
    28    28    29   ar
    29    29    30    2
    30    17    31   ar
    31    31    32    1
    32     3    33    1
    33    33    34    1
    34    34    35    1
    35    35    36    1
    36    36    37    1
    37    37    38    1
    38    31     4   ar
    39    38    33    1
    40    15     9    1
    41    29    22   ar
    42     1    39    1
    43     1    40    1
    44     1    41    1
    45     2    42    1
    46     2    43    1
    47     5    44    1
    48     9    45    1
    49    10    46    1
    50    10    47    1
    51    11    48    1
    52    11    49    1
    53    13    50    1
    54    13    51    1
    55    13    52    1
    56    14    53    1
    57    14    54    1
    58    15    55    1
    59    15    56    1
    60    16    57    1
    61    20    58    1
    62    21    59    1
    63    21    60    1
    64    24    61    1
    65    24    62    1
    66    24    63    1
    67    25    64    1
    68    27    65    1
    69    27    66    1
    70    27    67    1
    71    28    68    1
    72    32    69    1
    73    32    70    1
    74    32    71    1
    75    33    72    1
    76    34    73    1
    77    34    74    1
    78    35    75    1
    79    35    76    1
    80    37    77    1
    81    37    78    1
    82    38    79    1
    83    38    80    1
