
     RDKit          3D

 68 73  0  0  0  0  0  0  0  0999 V2000
   -7.1966    1.2903   -1.1127 C   0  0  0  0  0  0  0  0  0  0  0  0
   -7.7247    1.5495    0.2157 N   0  0  0  0  0  0  0  0  0  0  0  0
   -9.1308    1.7922    0.4258 C   0  0  0  0  0  0  0  0  0  0  0  0
   -6.8233    1.5578    1.2983 C   0  0  0  0  0  0  0  0  0  0  0  0
   -7.2898    1.7861    2.4580 O   0  0  0  0  0  0  0  0  0  0  0  0
   -5.3826    1.3132    1.1186 C   0  0  0  0  0  0  0  0  0  0  0  0
   -4.4080    2.2818    1.3627 C   0  0  0  0  0  0  0  0  0  0  0  0
   -3.1788    1.7391    1.1028 C   0  0  0  0  0  0  0  0  0  0  0  0
   -1.8565    2.1686    1.1496 C   0  0  0  0  0  0  0  0  0  0  0  0
   -0.8443    1.3541    0.8173 N   0  0  0  0  0  0  0  0  0  0  0  0
   -1.0859    0.1025    0.4312 C   0  0  0  0  0  0  0  0  0  0  0  0
   -0.0845   -0.8011    0.0721 N   0  0  0  0  0  0  0  0  0  0  0  0
    1.3232   -0.5485    0.0728 C   0  0  0  0  0  0  0  0  0  0  0  0
    1.9352    0.6157    0.4286 C   0  0  0  0  0  0  0  0  0  0  0  0
    3.3297    0.7784    0.4004 C   0  0  0  0  0  0  0  0  0  0  0  0
    4.1314   -0.2619    0.0021 C   0  0  0  0  0  0  0  0  0  0  0  0
    5.5523   -0.1518   -0.0423 N   0  0  0  0  0  0  0  0  0  0  0  0
    6.4602   -0.4819    1.0664 C   0  0  0  0  0  0  0  0  0  0  0  0
    7.6924   -0.9091    0.2548 C   0  0  0  0  0  0  0  0  0  0  0  0
    7.7302    0.2042   -0.7770 C   0  0  0  0  0  0  0  0  0  0  0  0
    8.6448   -0.1217   -1.9330 C   0  0  0  0  0  0  0  0  0  0  0  0
    9.9109    0.5969   -1.5434 C   0  0  0  0  0  0  0  0  0  0  0  0
    9.6570    1.2048   -0.2005 C   0  0  0  0  0  0  0  0  0  0  0  0
    8.2372    1.4213   -0.1869 N   0  0  0  0  0  0  0  0  0  0  0  0
    6.3030    0.2921   -1.1657 C   0  0  0  0  0  0  0  0  0  0  0  0
    5.8158    0.6822   -2.2729 O   0  0  0  0  0  0  0  0  0  0  0  0
    3.4789   -1.4261   -0.3518 C   0  0  0  0  0  0  0  0  0  0  0  0
    2.1557   -1.5699   -0.3215 N   0  0  0  0  0  0  0  0  0  0  0  0
   -2.3797   -0.3340    0.3806 N   0  0  0  0  0  0  0  0  0  0  0  0
   -3.4001    0.4411    0.7007 C   0  0  0  0  0  0  0  0  0  0  0  0
   -4.7417    0.2042    0.7175 N   0  0  0  0  0  0  0  0  0  0  0  0
   -5.3760   -1.0366    0.3662 C   0  0  0  0  0  0  0  0  0  0  0  0
   -5.0279   -1.5235   -1.0255 C   0  0  0  0  0  0  0  0  0  0  0  0
   -5.6273   -2.9376   -0.9760 C   0  0  0  0  0  0  0  0  0  0  0  0
   -5.4908   -3.3740    0.4797 C   0  0  0  0  0  0  0  0  0  0  0  0
   -4.8720   -2.1953    1.2072 C   0  0  0  0  0  0  0  0  0  0  0  0
   -6.1023    1.4394   -1.1575 H   0  0  0  0  0  0  0  0  0  0  0  0
   -7.5034    0.2762   -1.4439 H   0  0  0  0  0  0  0  0  0  0  0  0
   -7.6838    2.0153   -1.7964 H   0  0  0  0  0  0  0  0  0  0  0  0
   -9.2681    2.7740    0.9277 H   0  0  0  0  0  0  0  0  0  0  0  0
   -9.7186    1.7329   -0.5081 H   0  0  0  0  0  0  0  0  0  0  0  0
   -9.4946    1.0224    1.1488 H   0  0  0  0  0  0  0  0  0  0  0  0
   -4.5817    3.2900    1.6998 H   0  0  0  0  0  0  0  0  0  0  0  0
   -1.6538    3.1747    1.4603 H   0  0  0  0  0  0  0  0  0  0  0  0
   -0.4144   -1.7690   -0.2304 H   0  0  0  0  0  0  0  0  0  0  0  0
    1.3250    1.4634    0.7501 H   0  0  0  0  0  0  0  0  0  0  0  0
    3.7572    1.7263    0.6928 H   0  0  0  0  0  0  0  0  0  0  0  0
    6.6850    0.3966    1.6893 H   0  0  0  0  0  0  0  0  0  0  0  0
    6.0867   -1.3552    1.6261 H   0  0  0  0  0  0  0  0  0  0  0  0
    8.5863   -0.9715    0.8752 H   0  0  0  0  0  0  0  0  0  0  0  0
    7.4171   -1.8581   -0.2352 H   0  0  0  0  0  0  0  0  0  0  0  0
    8.2357    0.2734   -2.8994 H   0  0  0  0  0  0  0  0  0  0  0  0
    8.8555   -1.2088   -1.9805 H   0  0  0  0  0  0  0  0  0  0  0  0
   10.1248    1.4339   -2.2521 H   0  0  0  0  0  0  0  0  0  0  0  0
   10.7743   -0.1168   -1.5274 H   0  0  0  0  0  0  0  0  0  0  0  0
   10.1615    2.1872   -0.0643 H   0  0  0  0  0  0  0  0  0  0  0  0
    9.9255    0.5443    0.6413 H   0  0  0  0  0  0  0  0  0  0  0  0
    7.9214    2.2300   -0.7646 H   0  0  0  0  0  0  0  0  0  0  0  0
    4.1466   -2.2475   -0.6711 H   0  0  0  0  0  0  0  0  0  0  0  0
   -6.4605   -1.0239    0.4688 H   0  0  0  0  0  0  0  0  0  0  0  0
   -3.9315   -1.6322   -1.1751 H   0  0  0  0  0  0  0  0  0  0  0  0
   -5.4663   -0.9294   -1.8325 H   0  0  0  0  0  0  0  0  0  0  0  0
   -6.7231   -2.8018   -1.1977 H   0  0  0  0  0  0  0  0  0  0  0  0
   -5.1300   -3.6141   -1.6750 H   0  0  0  0  0  0  0  0  0  0  0  0
   -6.4883   -3.5333    0.9443 H   0  0  0  0  0  0  0  0  0  0  0  0
   -4.8522   -4.2611    0.5009 H   0  0  0  0  0  0  0  0  0  0  0  0
   -3.7656   -2.3245    1.1108 H   0  0  0  0  0  0  0  0  0  0  0  0
   -5.2014   -2.1203    2.2555 H   0  0  0  0  0  0  0  0  0  0  0  0
  1  2  1  0
  2  3  1  0
  2  4  1  0
  4  5  2  0
  4  6  1  0
  6  7  2  0
  7  8  1  0
  8  9  2  0
  9 10  1  0
 10 11  2  0
 11 12  1  0
 12 13  1  0
 13 14  2  0
 14 15  1  0
 15 16  2  0
 16 17  1  0
 17 18  1  0
 18 19  1  0
 19 20  1  0
 20 21  1  0
 21 22  1  0
 22 23  1  0
 23 24  1  0
 20 25  1  0
 25 26  2  0
 16 27  1  0
 27 28  2  0
 11 29  1  0
 29 30  2  0
 30 31  1  0
 31 32  1  0
 32 33  1  0
 33 34  1  0
 34 35  1  0
 35 36  1  0
 31  6  1  0
 36 32  1  0
 30  8  1  0
 28 13  1  0
 25 17  1  0
 24 20  1  0
  1 37  1  0
  1 38  1  0
  1 39  1  0
  3 40  1  0
  3 41  1  0
  3 42  1  0
  7 43  1  0
  9 44  1  0
 12 45  1  0
 14 46  1  0
 15 47  1  0
 18 48  1  0
 18 49  1  0
 19 50  1  0
 19 51  1  0
 21 52  1  0
 21 53  1  0
 22 54  1  0
 22 55  1  0
 23 56  1  0
 23 57  1  0
 24 58  1  0
 27 59  1  0
 32 60  1  0
 33 61  1  0
 33 62  1  0
 34 63  1  0
 34 64  1  0
 35 65  1  0
 35 66  1  0
 36 67  1  0
 36 68  1  0
M  END
$$$$
