@<TRIPOS>MOLECULE
*****
 68 73 0 0 0
SMALL
GASTEIGER

@<TRIPOS>ATOM
      1 C          -7.1966    1.2903   -1.1127 C.3     1  UNL1        0.0032
      2 N          -7.7247    1.5495    0.2157 N.am    1  UNL1       -0.3024
      3 C          -9.1308    1.7922    0.4258 C.3     1  UNL1        0.0032
      4 C          -6.8233    1.5578    1.2983 C.2     1  UNL1        0.2627
      5 O          -7.2898    1.7861    2.4580 O.2     1  UNL1       -0.2684
      6 C          -5.3826    1.3132    1.1186 C.ar    1  UNL1        0.1070
      7 C          -4.4080    2.2818    1.3627 C.ar    1  UNL1       -0.0209
      8 C          -3.1788    1.7391    1.1028 C.ar    1  UNL1        0.0378
      9 C          -1.8565    2.1686    1.1496 C.ar    1  UNL1        0.0419
     10 N          -0.8443    1.3541    0.8173 N.ar    1  UNL1       -0.2219
     11 C          -1.0859    0.1025    0.4312 C.ar    1  UNL1        0.2224
     12 N          -0.0845   -0.8011    0.0721 N.pl3   1  UNL1       -0.2684
     13 C           1.3232   -0.5485    0.0728 C.ar    1  UNL1        0.1251
     14 C           1.9352    0.6157    0.4286 C.ar    1  UNL1       -0.0197
     15 C           3.3297    0.7784    0.4004 C.ar    1  UNL1       -0.0355
     16 C           4.1314   -0.2619    0.0021 C.ar    1  UNL1        0.0545
     17 N           5.5523   -0.1518   -0.0423 N.am    1  UNL1       -0.2684
     18 C           6.4602   -0.4819    1.0664 C.3     1  UNL1        0.0220
     19 C           7.6924   -0.9091    0.2548 C.3     1  UNL1       -0.0098
     20 C           7.7302    0.2042   -0.7770 C.3     1  UNL1        0.0981
     21 C           8.6448   -0.1217   -1.9330 C.3     1  UNL1       -0.0249
     22 C           9.9109    0.5969   -1.5434 C.3     1  UNL1       -0.0383
     23 C           9.6570    1.2048   -0.2005 C.3     1  UNL1       -0.0031
     24 N           8.2372    1.4213   -0.1869 N.3     1  UNL1       -0.3031
     25 C           6.3030    0.2921   -1.1657 C.2     1  UNL1        0.2400
     26 O           5.8158    0.6822   -2.2729 O.2     1  UNL1       -0.2732
     27 C           3.4789   -1.4261   -0.3518 C.ar    1  UNL1        0.0511
     28 N           2.1557   -1.5699   -0.3215 N.ar    1  UNL1       -0.2383
     29 N          -2.3797   -0.3340    0.3806 N.ar    1  UNL1       -0.1962
     30 C          -3.4001    0.4411    0.7007 C.ar    1  UNL1        0.1466
     31 N          -4.7417    0.2042    0.7175 N.ar    1  UNL1       -0.3180
     32 C          -5.3760   -1.0366    0.3662 C.3     1  UNL1        0.0366
     33 C          -5.0279   -1.5235   -1.0255 C.3     1  UNL1       -0.0320
     34 C          -5.6273   -2.9376   -0.9760 C.3     1  UNL1       -0.0511
     35 C          -5.4908   -3.3740    0.4797 C.3     1  UNL1       -0.0511
     36 C          -4.8720   -2.1953    1.2072 C.3     1  UNL1       -0.0320
     37 H          -6.1023    1.4394   -1.1575 H       1  UNL1        0.0428
     38 H          -7.5034    0.2762   -1.4439 H       1  UNL1        0.0428
     39 H          -7.6838    2.0153   -1.7964 H       1  UNL1        0.0428
     40 H          -9.2681    2.7740    0.9277 H       1  UNL1        0.0428
     41 H          -9.7186    1.7329   -0.5081 H       1  UNL1        0.0428
     42 H          -9.4946    1.0224    1.1488 H       1  UNL1        0.0428
     43 H          -4.5817    3.2900    1.6998 H       1  UNL1        0.0647
     44 H          -1.6538    3.1747    1.4603 H       1  UNL1        0.0838
     45 H          -0.4144   -1.7690   -0.2304 H       1  UNL1        0.1564
     46 H           1.3250    1.4634    0.7501 H       1  UNL1        0.0652
     47 H           3.7572    1.7263    0.6928 H       1  UNL1        0.0638
     48 H           6.6850    0.3966    1.6893 H       1  UNL1        0.0469
     49 H           6.0867   -1.3552    1.6261 H       1  UNL1        0.0469
     50 H           8.5863   -0.9715    0.8752 H       1  UNL1        0.0303
     51 H           7.4171   -1.8581   -0.2352 H       1  UNL1        0.0303
     52 H           8.2357    0.2734   -2.8994 H       1  UNL1        0.0288
     53 H           8.8555   -1.2088   -1.9805 H       1  UNL1        0.0288
     54 H          10.1248    1.4339   -2.2521 H       1  UNL1        0.0278
     55 H          10.7743   -0.1168   -1.5274 H       1  UNL1        0.0278
     56 H          10.1615    2.1872   -0.0643 H       1  UNL1        0.0424
     57 H           9.9255    0.5443    0.6413 H       1  UNL1        0.0424
     58 H           7.9214    2.2300   -0.7646 H       1  UNL1        0.1229
     59 H           4.1466   -2.2475   -0.6711 H       1  UNL1        0.0849
     60 H          -6.4605   -1.0239    0.4688 H       1  UNL1        0.0528
     61 H          -3.9315   -1.6322   -1.1751 H       1  UNL1        0.0285
     62 H          -5.4663   -0.9294   -1.8325 H       1  UNL1        0.0285
     63 H          -6.7231   -2.8018   -1.1977 H       1  UNL1        0.0266
     64 H          -5.1300   -3.6141   -1.6750 H       1  UNL1        0.0266
     65 H          -6.4883   -3.5333    0.9443 H       1  UNL1        0.0266
     66 H          -4.8522   -4.2611    0.5009 H       1  UNL1        0.0266
     67 H          -3.7656   -2.3245    1.1108 H       1  UNL1        0.0285
     68 H          -5.2014   -2.1203    2.2555 H       1  UNL1        0.0285
@<TRIPOS>BOND
     1     1     2    1
     2     2     3    1
     3     2     4   am
     4     4     5    2
     5     4     6    1
     6     6     7   ar
     7     7     8   ar
     8     8     9   ar
     9     9    10   ar
    10    10    11   ar
    11    11    12    1
    12    12    13    1
    13    13    14   ar
    14    14    15   ar
    15    15    16   ar
    16    16    17    1
    17    17    18    1
    18    18    19    1
    19    19    20    1
    20    20    21    1
    21    21    22    1
    22    22    23    1
    23    23    24    1
    24    20    25    1
    25    25    26    2
    26    16    27   ar
    27    27    28   ar
    28    11    29   ar
    29    29    30   ar
    30    30    31   ar
    31    31    32    1
    32    32    33    1
    33    33    34    1
    34    34    35    1
    35    35    36    1
    36    31     6   ar
    37    36    32    1
    38    30     8   ar
    39    28    13   ar
    40    25    17   am
    41    24    20    1
    42     1    37    1
    43     1    38    1
    44     1    39    1
    45     3    40    1
    46     3    41    1
    47     3    42    1
    48     7    43    1
    49     9    44    1
    50    12    45    1
    51    14    46    1
    52    15    47    1
    53    18    48    1
    54    18    49    1
    55    19    50    1
    56    19    51    1
    57    21    52    1
    58    21    53    1
    59    22    54    1
    60    22    55    1
    61    23    56    1
    62    23    57    1
    63    24    58    1
    64    27    59    1
    65    32    60    1
    66    33    61    1
    67    33    62    1
    68    34    63    1
    69    34    64    1
    70    35    65    1
    71    35    66    1
    72    36    67    1
    73    36    68    1
