@<TRIPOS>MOLECULE
*****
 42 44 0 0 0
SMALL
GASTEIGER

@<TRIPOS>ATOM
      1 C          -3.3509    1.6599   -2.1486 C.3     1  UNL1       -0.0369
      2 C          -2.5527    1.3596   -0.9200 C.3     1  UNL1        0.0742
      3 O          -3.2794    1.6517    0.2080 O.3     1  UNL1       -0.3735
      4 C          -2.6136    1.4089    1.3891 C.3     1  UNL1        0.0638
      5 C          -2.1822   -0.0591    1.5267 C.3     1  UNL1        0.0386
      6 N          -1.4965   -0.3781    0.2909 N.pl3   1  UNL1       -0.2935
      7 C          -0.1574   -0.8395    0.3340 C.ar    1  UNL1        0.2016
      8 N           0.8776   -0.0325    0.0624 N.ar    1  UNL1       -0.2154
      9 C           2.1735   -0.4973    0.1110 C.ar    1  UNL1        0.0825
     10 C           3.2472    0.4473   -0.1626 C.ar    1  UNL1        0.0387
     11 C           2.9203    1.8215   -0.2673 C.ar    1  UNL1       -0.0316
     12 C           3.8878    2.7504   -0.5351 C.ar    1  UNL1        0.0284
     13 N           5.1806    2.4054   -0.7102 N.ar    1  UNL1       -0.2604
     14 C           5.5264    1.1319   -0.6207 C.ar    1  UNL1        0.0634
     15 C           4.5671    0.1739   -0.3512 C.ar    1  UNL1        0.1505
     16 F           4.9824   -1.1188   -0.2936 F       1  UNL1       -0.2032
     17 C           2.3941   -1.7922    0.4398 C.ar    1  UNL1        0.0292
     18 C           1.3094   -2.6471    0.7271 C.ar    1  UNL1        0.2555
     19 O           1.5435   -3.8637    1.0339 O.2     1  UNL1       -0.2675
     20 N           0.0859   -2.1257    0.6598 N.ar    1  UNL1       -0.2839
     21 C          -1.0511   -2.9659    0.9707 C.3     1  UNL1        0.0178
     22 C          -2.2718   -0.1504   -0.9092 C.3     1  UNL1        0.0493
     23 C          -1.6309   -0.6002   -2.1685 C.3     1  UNL1       -0.0440
     24 H          -2.6735    1.6548   -3.0471 H       1  UNL1        0.0255
     25 H          -3.7706    2.7075   -2.1292 H       1  UNL1        0.0255
     26 H          -4.1940    0.9853   -2.2900 H       1  UNL1        0.0255
     27 H          -1.5771    1.8914   -0.9796 H       1  UNL1        0.0611
     28 H          -3.2694    1.6654    2.2368 H       1  UNL1        0.0575
     29 H          -1.6682    2.0097    1.4556 H       1  UNL1        0.0575
     30 H          -1.5459   -0.1182    2.4228 H       1  UNL1        0.0487
     31 H          -3.0748   -0.7065    1.7036 H       1  UNL1        0.0487
     32 H           1.8906    2.1273   -0.1317 H       1  UNL1        0.0640
     33 H           3.6692    3.8191   -0.6199 H       1  UNL1        0.0830
     34 H           6.5559    0.7856   -0.7501 H       1  UNL1        0.0859
     35 H           3.3731   -2.2109    0.5055 H       1  UNL1        0.0693
     36 H          -1.8371   -2.9661    0.2114 H       1  UNL1        0.0458
     37 H          -0.7154   -4.0112    1.1125 H       1  UNL1        0.0458
     38 H          -1.4650   -2.6611    1.9713 H       1  UNL1        0.0458
     39 H          -3.2907   -0.6077   -0.7518 H       1  UNL1        0.0523
     40 H          -2.4501   -0.8329   -2.9112 H       1  UNL1        0.0248
     41 H          -1.0445    0.2305   -2.6574 H       1  UNL1        0.0248
     42 H          -1.0221   -1.5020   -2.0952 H       1  UNL1        0.0248
@<TRIPOS>BOND
     1     1     2    1
     2     2     3    1
     3     3     4    1
     4     4     5    1
     5     5     6    1
     6     6     7    1
     7     7     8   ar
     8     8     9   ar
     9     9    10    1
    10    10    11   ar
    11    11    12   ar
    12    12    13   ar
    13    13    14   ar
    14    14    15   ar
    15    15    16    1
    16     9    17   ar
    17    17    18   ar
    18    18    19    2
    19    18    20   ar
    20    20    21    1
    21     6    22    1
    22    22    23    1
    23    22     2    1
    24    20     7   ar
    25    15    10   ar
    26     1    24    1
    27     1    25    1
    28     1    26    1
    29     2    27    1
    30     4    28    1
    31     4    29    1
    32     5    30    1
    33     5    31    1
    34    11    32    1
    35    12    33    1
    36    14    34    1
    37    17    35    1
    38    21    36    1
    39    21    37    1
    40    21    38    1
    41    22    39    1
    42    23    40    1
    43    23    41    1
    44    23    42    1
