@<TRIPOS>MOLECULE
*****
 50 52 0 0 0
SMALL
GASTEIGER

@<TRIPOS>ATOM
      1 O           7.9895    2.4662    1.0017 O.3     1  UNL1       -0.4771
      2 C           7.3379    1.8415   -0.0746 C.2     1  UNL1        0.3368
      3 O           7.9048    1.9420   -1.2009 O.2     1  UNL1       -0.2451
      4 C           6.0880    1.1366    0.1578 C.ar    1  UNL1        0.0589
      5 C           5.4353    1.0015    1.3643 C.ar    1  UNL1       -0.0460
      6 C           4.2482    0.3070    1.4689 C.ar    1  UNL1       -0.0397
      7 C           3.6673   -0.2815    0.3622 C.ar    1  UNL1        0.0335
      8 N           2.4424   -0.9920    0.4980 N.am    1  UNL1       -0.2840
      9 C           1.3130   -0.1499    0.3108 C.2     1  UNL1        0.2379
     10 O           1.4113    1.0747    0.0564 O.2     1  UNL1       -0.2734
     11 C          -0.0711   -0.7096    0.4135 C.3     1  UNL1        0.1039
     12 C          -0.1934   -1.8650   -0.5553 C.3     1  UNL1       -0.0006
     13 C          -1.5374   -2.4984   -0.5353 C.ar    1  UNL1       -0.0449
     14 C          -2.5366   -2.0296   -1.3898 C.ar    1  UNL1       -0.0551
     15 C          -3.7953   -2.6297   -1.3649 C.ar    1  UNL1       -0.0199
     16 C          -4.1035   -3.6892   -0.5147 C.ar    1  UNL1        0.1169
     17 O          -5.3863   -4.2192   -0.5649 O.3     1  UNL1       -0.5068
     18 C          -3.1070   -4.1531    0.3340 C.ar    1  UNL1       -0.0199
     19 C          -1.8672   -3.5501    0.2985 C.ar    1  UNL1       -0.0551
     20 N          -1.0431    0.3115    0.1906 N.am    1  UNL1       -0.2997
     21 C          -2.0761    0.8915    0.9473 C.2     1  UNL1        0.2447
     22 O          -2.1713    0.3935    2.1015 O.2     1  UNL1       -0.2702
     23 C          -2.8949    1.9504    0.3686 C.ar    1  UNL1        0.0367
     24 C          -2.8128    2.5148   -0.8940 C.ar    1  UNL1       -0.0496
     25 C          -3.6956    3.5163   -1.2413 C.ar    1  UNL1       -0.0610
     26 C          -4.6546    3.9832   -0.3955 C.ar    1  UNL1       -0.0617
     27 C          -4.7524    3.4259    0.8820 C.ar    1  UNL1       -0.0610
     28 C          -3.8626    2.4180    1.2291 C.ar    1  UNL1       -0.0496
     29 C           4.3086   -0.1542   -0.8489 C.ar    1  UNL1       -0.0397
     30 C           5.5127    0.5491   -0.9599 C.ar    1  UNL1       -0.0460
     31 H           8.8364    2.9974    0.8872 H       1  UNL1        0.2954
     32 H           5.9472    1.4904    2.2015 H       1  UNL1        0.0626
     33 H           3.7950    0.2465    2.4615 H       1  UNL1        0.0636
     34 H           2.3417   -2.0039    0.7081 H       1  UNL1        0.1549
     35 H          -0.1774   -1.1308    1.4350 H       1  UNL1        0.0598
     36 H           0.0269   -1.5813   -1.5943 H       1  UNL1        0.0336
     37 H           0.5171   -2.6694   -0.2765 H       1  UNL1        0.0336
     38 H          -2.3790   -1.2156   -2.0763 H       1  UNL1        0.0621
     39 H          -4.5640   -2.2637   -2.0272 H       1  UNL1        0.0654
     40 H          -5.6117   -4.9840    0.0604 H       1  UNL1        0.2921
     41 H          -3.3426   -4.9745    0.9945 H       1  UNL1        0.0654
     42 H          -1.0799   -3.9182    0.9706 H       1  UNL1        0.0621
     43 H          -0.8138    0.6041   -0.8061 H       1  UNL1        0.1498
     44 H          -2.0263    2.0893   -1.5039 H       1  UNL1        0.0625
     45 H          -3.5253    3.8708   -2.2529 H       1  UNL1        0.0618
     46 H          -5.3049    4.7729   -0.7539 H       1  UNL1        0.0618
     47 H          -5.5214    3.8108    1.5394 H       1  UNL1        0.0618
     48 H          -4.0282    2.0625    2.2340 H       1  UNL1        0.0625
     49 H           3.8553   -0.6144   -1.7171 H       1  UNL1        0.0636
     50 H           5.9571    0.6093   -1.9293 H       1  UNL1        0.0626
@<TRIPOS>BOND
     1     1     2    1
     2     2     3    2
     3     2     4    1
     4     4     5   ar
     5     5     6   ar
     6     6     7   ar
     7     7     8    1
     8     8     9   am
     9     9    10    2
    10     9    11    1
    11    11    12    1
    12    12    13    1
    13    13    14   ar
    14    14    15   ar
    15    15    16   ar
    16    16    17    1
    17    16    18   ar
    18    18    19   ar
    19    11    20    1
    20    20    21   am
    21    21    22    2
    22    21    23    1
    23    23    24   ar
    24    24    25   ar
    25    25    26   ar
    26    26    27   ar
    27    27    28   ar
    28     7    29   ar
    29    29    30   ar
    30    30     4   ar
    31    19    13   ar
    32    28    23   ar
    33     1    31    1
    34     5    32    1
    35     6    33    1
    36     8    34    1
    37    11    35    1
    38    12    36    1
    39    12    37    1
    40    14    38    1
    41    15    39    1
    42    17    40    1
    43    18    41    1
    44    19    42    1
    45    20    43    1
    46    24    44    1
    47    25    45    1
    48    26    46    1
    49    27    47    1
    50    28    48    1
    51    29    49    1
    52    30    50    1
