
     RDKit          3D

 27 26  0  0  0  0  0  0  0  0999 V2000
    4.0731   -0.2245   -0.9521 C   0  0  0  0  0  0  0  0  0  0  0  0
    2.8698    0.6028   -0.5386 C   0  0  0  0  0  0  0  0  0  0  0  0
    1.7072   -0.3362   -0.4236 C   0  0  0  0  0  0  0  0  0  0  0  0
    0.4547    0.4038   -0.0131 C   0  0  0  0  0  0  0  0  0  0  0  0
   -0.6809   -0.5936    0.0862 C   0  0  0  0  0  0  0  0  0  0  0  0
   -1.9184    0.1556    0.4948 C   0  0  2  0  0  0  0  0  0  0  0  0
   -1.6605    0.8075    1.8299 C   0  0  0  0  0  0  0  0  0  0  0  0
   -3.1057   -0.6417    0.4610 N   0  0  0  0  0  0  0  0  0  0  0  0
   -4.3450   -0.6448   -0.2386 C   0  0  0  0  0  0  0  0  0  0  0  0
   -4.4507    0.3197   -1.0712 O   0  0  0  0  0  0  0  0  0  0  0  0
    4.3716    0.0923   -1.9724 H   0  0  0  0  0  0  0  0  0  0  0  0
    4.9043   -0.0371   -0.2347 H   0  0  0  0  0  0  0  0  0  0  0  0
    3.8615   -1.3177   -0.9329 H   0  0  0  0  0  0  0  0  0  0  0  0
    2.6595    1.4058   -1.2566 H   0  0  0  0  0  0  0  0  0  0  0  0
    3.0503    1.0660    0.4604 H   0  0  0  0  0  0  0  0  0  0  0  0
    1.9270   -1.1252    0.3131 H   0  0  0  0  0  0  0  0  0  0  0  0
    1.5333   -0.7742   -1.4462 H   0  0  0  0  0  0  0  0  0  0  0  0
    0.1704    1.1356   -0.8034 H   0  0  0  0  0  0  0  0  0  0  0  0
    0.6276    0.9357    0.9442 H   0  0  0  0  0  0  0  0  0  0  0  0
   -0.4208   -1.4103    0.7818 H   0  0  0  0  0  0  0  0  0  0  0  0
   -0.8161   -1.0011   -0.9391 H   0  0  0  0  0  0  0  0  0  0  0  0
   -2.0560    0.9823   -0.2454 H   0  0  0  0  0  0  0  0  0  0  0  0
   -1.1412    0.1337    2.5450 H   0  0  0  0  0  0  0  0  0  0  0  0
   -2.6385    1.1297    2.2641 H   0  0  0  0  0  0  0  0  0  0  0  0
   -1.0795    1.7613    1.7011 H   0  0  0  0  0  0  0  0  0  0  0  0
   -2.8700   -1.3813    1.1870 H   0  0  0  0  0  0  0  0  0  0  0  0
   -5.0268   -1.4442    0.0156 H   0  0  0  0  0  0  0  0  0  0  0  0
  1  2  1  0
  2  3  1  0
  3  4  1  0
  4  5  1  0
  5  6  1  0
  6  7  1  0
  6  8  1  0
  8  9  1  0
  9 10  2  0
  1 11  1  0
  1 12  1  0
  1 13  1  0
  2 14  1  0
  2 15  1  0
  3 16  1  0
  3 17  1  0
  4 18  1  0
  4 19  1  0
  5 20  1  0
  5 21  1  0
  6 22  1  6
  7 23  1  0
  7 24  1  0
  7 25  1  0
  8 26  1  0
  9 27  1  0
M  END
$$$$
