@<TRIPOS>MOLECULE
*****
 27 26 0 0 0
SMALL
GASTEIGER

@<TRIPOS>ATOM
      1 C           4.0731   -0.2245   -0.9521 C.3     1  UNL1       -0.0653
      2 C           2.8698    0.6028   -0.5386 C.3     1  UNL1       -0.0559
      3 C           1.7072   -0.3362   -0.4236 C.3     1  UNL1       -0.0532
      4 C           0.4547    0.4038   -0.0131 C.3     1  UNL1       -0.0514
      5 C          -0.6809   -0.5936    0.0862 C.3     1  UNL1       -0.0348
      6 C          -1.9184    0.1556    0.4948 C.3     1  UNL1        0.0201
      7 C          -1.6605    0.8075    1.8299 C.3     1  UNL1       -0.0466
      8 N          -3.1057   -0.6417    0.4610 N.am    1  UNL1       -0.3153
      9 C          -4.3450   -0.6448   -0.2386 C.2     1  UNL1        0.2002
     10 O          -4.4507    0.3197   -1.0712 O.2     1  UNL1       -0.2795
     11 H           4.3716    0.0923   -1.9724 H       1  UNL1        0.0230
     12 H           4.9043   -0.0371   -0.2347 H       1  UNL1        0.0230
     13 H           3.8615   -1.3177   -0.9329 H       1  UNL1        0.0230
     14 H           2.6595    1.4058   -1.2566 H       1  UNL1        0.0263
     15 H           3.0503    1.0660    0.4604 H       1  UNL1        0.0263
     16 H           1.9270   -1.1252    0.3131 H       1  UNL1        0.0265
     17 H           1.5333   -0.7742   -1.4462 H       1  UNL1        0.0265
     18 H           0.1704    1.1356   -0.8034 H       1  UNL1        0.0266
     19 H           0.6276    0.9357    0.9442 H       1  UNL1        0.0266
     20 H          -0.4208   -1.4103    0.7818 H       1  UNL1        0.0283
     21 H          -0.8161   -1.0011   -0.9391 H       1  UNL1        0.0283
     22 H          -2.0560    0.9823   -0.2454 H       1  UNL1        0.0495
     23 H          -1.1412    0.1337    2.5450 H       1  UNL1        0.0247
     24 H          -2.6385    1.1297    2.2641 H       1  UNL1        0.0247
     25 H          -1.0795    1.7613    1.7011 H       1  UNL1        0.0247
     26 H          -2.8700   -1.3813    1.1870 H       1  UNL1        0.1487
     27 H          -5.0268   -1.4442    0.0156 H       1  UNL1        0.1251
@<TRIPOS>BOND
     1     1     2    1
     2     2     3    1
     3     3     4    1
     4     4     5    1
     5     5     6    1
     6     6     7    1
     7     6     8    1
     8     8     9   am
     9     9    10    2
    10     1    11    1
    11     1    12    1
    12     1    13    1
    13     2    14    1
    14     2    15    1
    15     3    16    1
    16     3    17    1
    17     4    18    1
    18     4    19    1
    19     5    20    1
    20     5    21    1
    21     6    22    1
    22     7    23    1
    23     7    24    1
    24     7    25    1
    25     8    26    1
    26     9    27    1
