
     RDKit          3D

 33 34  0  0  0  0  0  0  0  0999 V2000
   -0.8737    0.5892   -2.5979 O   0  0  0  0  0  0  0  0  0  0  0  0
   -0.3616   -0.0400   -1.1109 P   0  0  1  0  0  5  0  0  0  0  0  0
   -0.2993   -1.5407   -1.1358 O   0  0  0  0  0  0  0  0  0  0  0  0
    1.1719    0.5926   -0.7914 O   0  0  0  0  0  0  0  0  0  0  0  0
    1.8520   -0.3893   -0.0488 C   0  0  0  0  0  0  0  0  0  0  0  0
    3.2292    0.0701    0.2899 C   0  0  0  0  0  0  0  0  0  0  0  0
    4.2922   -0.1957   -0.5650 C   0  0  0  0  0  0  0  0  0  0  0  0
    5.5985    0.1968   -0.3215 C   0  0  0  0  0  0  0  0  0  0  0  0
    5.8211    0.8907    0.8482 C   0  0  0  0  0  0  0  0  0  0  0  0
    4.7808    1.1748    1.7279 C   0  0  0  0  0  0  0  0  0  0  0  0
    3.4738    0.7664    1.4562 C   0  0  0  0  0  0  0  0  0  0  0  0
   -1.4982    0.4321    0.0783 O   0  0  0  0  0  0  0  0  0  0  0  0
   -2.8170    0.0501   -0.1405 C   0  0  0  0  0  0  0  0  0  0  0  0
   -3.7238    0.4385    0.8283 C   0  0  0  0  0  0  0  0  0  0  0  0
   -3.4065    1.1988    2.0302 C   0  0  0  0  0  0  0  0  0  0  0  0
   -4.1769    1.5734    2.9301 O   0  0  0  0  0  0  0  0  0  0  0  0
   -5.0462    0.0779    0.6474 C   0  0  0  0  0  0  0  0  0  0  0  0
   -5.4752   -0.6427   -0.4492 C   0  0  0  0  0  0  0  0  0  0  0  0
   -4.5664   -1.0341   -1.4238 C   0  0  0  0  0  0  0  0  0  0  0  0
   -3.2487   -0.6702   -1.2358 C   0  0  0  0  0  0  0  0  0  0  0  0
   -0.6992   -0.1000   -3.2911 H   0  0  0  0  0  0  0  0  0  0  0  0
    1.8872   -1.2758   -0.7116 H   0  0  0  0  0  0  0  0  0  0  0  0
    1.2526   -0.6284    0.8444 H   0  0  0  0  0  0  0  0  0  0  0  0
    4.0992   -0.7419   -1.4794 H   0  0  0  0  0  0  0  0  0  0  0  0
    6.3969   -0.0311   -1.0146 H   0  0  0  0  0  0  0  0  0  0  0  0
    6.8412    1.2049    1.0522 H   0  0  0  0  0  0  0  0  0  0  0  0
    5.0191    1.7282    2.6393 H   0  0  0  0  0  0  0  0  0  0  0  0
    2.6644    0.9859    2.1378 H   0  0  0  0  0  0  0  0  0  0  0  0
   -2.4410    1.5545    2.3211 H   0  0  0  0  0  0  0  0  0  0  0  0
   -5.8427    0.3383    1.3596 H   0  0  0  0  0  0  0  0  0  0  0  0
   -6.5147   -0.9284   -0.5953 H   0  0  0  0  0  0  0  0  0  0  0  0
   -4.8730   -1.6010   -2.2969 H   0  0  0  0  0  0  0  0  0  0  0  0
   -2.5161   -0.9624   -1.9813 H   0  0  0  0  0  0  0  0  0  0  0  0
  2  1  1  6
  2  3  2  0
  2  4  1  0
  4  5  1  0
  5  6  1  0
  6  7  2  0
  7  8  1  0
  8  9  2  0
  9 10  1  0
 10 11  2  0
  2 12  1  0
 12 13  1  0
 13 14  2  0
 14 15  1  0
 15 16  2  0
 14 17  1  0
 17 18  2  0
 18 19  1  0
 19 20  2  0
 11  6  1  0
 20 13  1  0
  1 21  1  0
  5 22  1  0
  5 23  1  0
  7 24  1  0
  8 25  1  0
  9 26  1  0
 10 27  1  0
 11 28  1  0
 15 29  1  0
 17 30  1  0
 18 31  1  0
 19 32  1  0
 20 33  1  0
M  END
$$$$
