@<TRIPOS>MOLECULE
*****
 33 34 0 0 0
SMALL
GASTEIGER

@<TRIPOS>ATOM
      1 O          -0.8737    0.5892   -2.5979 O.3     1  UNL1       -0.2929
      2 P          -0.3616   -0.0400   -1.1109 P.3     1  UNL1        0.5309
      3 O          -0.2993   -1.5407   -1.1358 O.2     1  UNL1       -0.2154
      4 O           1.1719    0.5926   -0.7914 O.3     1  UNL1       -0.2724
      5 C           1.8520   -0.3893   -0.0488 C.3     1  UNL1        0.0851
      6 C           3.2292    0.0701    0.2899 C.ar    1  UNL1       -0.0213
      7 C           4.2922   -0.1957   -0.5650 C.ar    1  UNL1       -0.0564
      8 C           5.5985    0.1968   -0.3215 C.ar    1  UNL1       -0.0614
      9 C           5.8211    0.8907    0.8482 C.ar    1  UNL1       -0.0617
     10 C           4.7808    1.1748    1.7279 C.ar    1  UNL1       -0.0614
     11 C           3.4738    0.7664    1.4562 C.ar    1  UNL1       -0.0564
     12 O          -1.4982    0.4321    0.0783 O.3     1  UNL1       -0.4032
     13 C          -2.8170    0.0501   -0.1405 C.ar    1  UNL1        0.1423
     14 C          -3.7238    0.4385    0.8283 C.ar    1  UNL1        0.0563
     15 C          -3.4065    1.1988    2.0302 C.2     1  UNL1        0.1537
     16 O          -4.1769    1.5734    2.9301 O.2     1  UNL1       -0.2956
     17 C          -5.0462    0.0779    0.6474 C.ar    1  UNL1       -0.0480
     18 C          -5.4752   -0.6427   -0.4492 C.ar    1  UNL1       -0.0609
     19 C          -4.5664   -1.0341   -1.4238 C.ar    1  UNL1       -0.0583
     20 C          -3.2487   -0.6702   -1.2358 C.ar    1  UNL1       -0.0187
     21 H          -0.6992   -0.1000   -3.2911 H       1  UNL1        0.2231
     22 H           1.8872   -1.2758   -0.7116 H       1  UNL1        0.0616
     23 H           1.2526   -0.6284    0.8444 H       1  UNL1        0.0616
     24 H           4.0992   -0.7419   -1.4794 H       1  UNL1        0.0621
     25 H           6.3969   -0.0311   -1.0146 H       1  UNL1        0.0618
     26 H           6.8412    1.2049    1.0522 H       1  UNL1        0.0618
     27 H           5.0191    1.7282    2.6393 H       1  UNL1        0.0618
     28 H           2.6644    0.9859    2.1378 H       1  UNL1        0.0621
     29 H          -2.4410    1.5545    2.3211 H       1  UNL1        0.1083
     30 H          -5.8427    0.3383    1.3596 H       1  UNL1        0.0626
     31 H          -6.5147   -0.9284   -0.5953 H       1  UNL1        0.0618
     32 H          -4.8730   -1.6010   -2.2969 H       1  UNL1        0.0619
     33 H          -2.5161   -0.9624   -1.9813 H       1  UNL1        0.0654
@<TRIPOS>BOND
     1     2     1    1
     2     2     3    2
     3     2     4    1
     4     4     5    1
     5     5     6    1
     6     6     7   ar
     7     7     8   ar
     8     8     9   ar
     9     9    10   ar
    10    10    11   ar
    11     2    12    1
    12    12    13    1
    13    13    14   ar
    14    14    15    1
    15    15    16    2
    16    14    17   ar
    17    17    18   ar
    18    18    19   ar
    19    19    20   ar
    20    11     6   ar
    21    20    13   ar
    22     1    21    1
    23     5    22    1
    24     5    23    1
    25     7    24    1
    26     8    25    1
    27     9    26    1
    28    10    27    1
    29    11    28    1
    30    15    29    1
    31    17    30    1
    32    18    31    1
    33    19    32    1
    34    20    33    1
