
     RDKit          3D

 85 88  0  0  0  0  0  0  0  0999 V2000
    7.8295    2.2188   -0.7143 C   0  0  0  0  0  0  0  0  0  0  0  0
    7.8346    0.8178   -0.9102 O   0  0  0  0  0  0  0  0  0  0  0  0
    6.7139    0.1061   -0.5105 C   0  0  0  0  0  0  0  0  0  0  0  0
    5.5921    0.7138    0.0732 C   0  0  0  0  0  0  0  0  0  0  0  0
    4.4957   -0.0314    0.4573 C   0  0  0  0  0  0  0  0  0  0  0  0
    4.5851   -1.3850    0.2292 C   0  0  0  0  0  0  0  0  0  0  0  0
    5.6533   -2.0444   -0.3380 C   0  0  0  0  0  0  0  0  0  0  0  0
    5.6918   -3.4135   -0.5460 O   0  0  0  0  0  0  0  0  0  0  0  0
    4.5855   -4.1897   -0.1617 C   0  0  0  0  0  0  0  0  0  0  0  0
    6.7210   -1.2564   -0.7039 C   0  0  0  0  0  0  0  0  0  0  0  0
    7.8256   -1.8619   -1.2799 O   0  0  0  0  0  0  0  0  0  0  0  0
    7.9204   -2.0321   -2.6811 C   0  0  0  0  0  0  0  0  0  0  0  0
    3.4020    0.6792    1.0452 C   0  0  0  0  0  0  0  0  0  0  0  0
    3.5729    1.9405    1.1423 O   0  0  0  0  0  0  0  0  0  0  0  0
    2.1284    0.1997    1.5517 C   0  0  0  0  0  0  0  0  0  0  0  0
    1.9720   -1.0396    1.4471 O   0  0  0  0  0  0  0  0  0  0  0  0
    1.1335    1.0808    2.1248 N   0  0  0  0  0  0  0  0  0  0  0  0
    1.0245    2.5106    2.3653 C   0  0  0  0  0  0  0  0  0  0  0  0
   -0.3683    3.0012    1.9740 C   0  0  0  0  0  0  0  0  0  0  0  0
   -1.2771    2.4592    3.0765 C   0  0  0  0  0  0  0  0  0  0  0  0
   -0.7425    1.1801    3.6235 C   0  0  0  0  0  0  0  0  0  0  0  0
   -0.0566    0.3431    2.5818 C   0  0  1  0  0  0  0  0  0  0  0  0
   -0.9912    0.0156    1.5030 C   0  0  0  0  0  0  0  0  0  0  0  0
   -1.9748   -0.5469    2.0629 O   0  0  0  0  0  0  0  0  0  0  0  0
   -1.2316    0.0637    0.1654 O   0  0  0  0  0  0  0  0  0  0  0  0
   -2.3172   -0.4015   -0.5621 C   0  0  0  0  0  0  0  0  0  0  0  0
   -3.1271    0.7332   -1.2034 C   0  0  0  0  0  0  0  0  0  0  0  0
   -3.6700    1.6854   -0.1670 C   0  0  0  0  0  0  0  0  0  0  0  0
   -4.4688    2.8035   -0.8073 C   0  0  0  0  0  0  0  0  0  0  0  0
   -5.0010    3.7533    0.1778 C   0  0  0  0  0  0  0  0  0  0  0  0
   -6.2445    3.6480    0.8097 C   0  0  0  0  0  0  0  0  0  0  0  0
   -6.6160    4.5970    1.7055 N   0  0  0  0  0  0  0  0  0  0  0  0
   -5.7958    5.6089    1.9690 C   0  0  0  0  0  0  0  0  0  0  0  0
   -4.5670    5.8200    1.4225 C   0  0  0  0  0  0  0  0  0  0  0  0
   -4.1928    4.8367    0.4998 C   0  0  0  0  0  0  0  0  0  0  0  0
   -1.9171   -1.3942   -1.6358 C   0  0  0  0  0  0  0  0  0  0  0  0
   -1.2558   -2.5737   -1.0080 C   0  0  0  0  0  0  0  0  0  0  0  0
   -2.1336   -3.3779   -0.0863 C   0  0  0  0  0  0  0  0  0  0  0  0
   -3.2762   -3.8982   -0.9125 C   0  0  0  0  0  0  0  0  0  0  0  0
   -4.5152   -3.3531   -1.1462 C   0  0  0  0  0  0  0  0  0  0  0  0
   -5.4096   -3.9727   -1.9320 N   0  0  0  0  0  0  0  0  0  0  0  0
   -5.1364   -5.1430   -2.5213 C   0  0  0  0  0  0  0  0  0  0  0  0
   -3.9111   -5.7809   -2.3507 C   0  0  0  0  0  0  0  0  0  0  0  0
   -3.0134   -5.1171   -1.5362 C   0  0  0  0  0  0  0  0  0  0  0  0
    6.9931    2.6915   -1.2725 H   0  0  0  0  0  0  0  0  0  0  0  0
    7.6597    2.4073    0.3655 H   0  0  0  0  0  0  0  0  0  0  0  0
    8.8180    2.6523   -0.9912 H   0  0  0  0  0  0  0  0  0  0  0  0
    5.7175    1.7745    0.1665 H   0  0  0  0  0  0  0  0  0  0  0  0
    3.7710   -2.0168    0.5012 H   0  0  0  0  0  0  0  0  0  0  0  0
    3.6177   -3.7994   -0.5570 H   0  0  0  0  0  0  0  0  0  0  0  0
    4.7078   -5.2556   -0.5061 H   0  0  0  0  0  0  0  0  0  0  0  0
    4.4538   -4.2729    0.9399 H   0  0  0  0  0  0  0  0  0  0  0  0
    7.0274   -1.6651   -3.2135 H   0  0  0  0  0  0  0  0  0  0  0  0
    8.7995   -1.4741   -3.0662 H   0  0  0  0  0  0  0  0  0  0  0  0
    8.0161   -3.1180   -2.9425 H   0  0  0  0  0  0  0  0  0  0  0  0
    1.8101    3.1209    1.9279 H   0  0  0  0  0  0  0  0  0  0  0  0
    1.0810    2.6154    3.4865 H   0  0  0  0  0  0  0  0  0  0  0  0
   -0.3280    4.1108    2.0278 H   0  0  0  0  0  0  0  0  0  0  0  0
   -0.6350    2.6509    0.9779 H   0  0  0  0  0  0  0  0  0  0  0  0
   -2.3127    2.4599    2.7466 H   0  0  0  0  0  0  0  0  0  0  0  0
   -1.2498    3.1973    3.9381 H   0  0  0  0  0  0  0  0  0  0  0  0
   -0.1146    1.3366    4.5284 H   0  0  0  0  0  0  0  0  0  0  0  0
   -1.6030    0.5466    3.9913 H   0  0  0  0  0  0  0  0  0  0  0  0
    0.2736   -0.6425    3.0140 H   0  0  0  0  0  0  0  0  0  0  0  0
   -3.0250   -0.8963    0.1169 H   0  0  0  0  0  0  0  0  0  0  0  0
   -4.0199    0.2560   -1.6772 H   0  0  0  0  0  0  0  0  0  0  0  0
   -2.5355    1.2180   -1.9991 H   0  0  0  0  0  0  0  0  0  0  0  0
   -2.8814    2.0749    0.4928 H   0  0  0  0  0  0  0  0  0  0  0  0
   -4.3751    1.1141    0.4759 H   0  0  0  0  0  0  0  0  0  0  0  0
   -3.8614    3.3647   -1.5427 H   0  0  0  0  0  0  0  0  0  0  0  0
   -5.3677    2.3664   -1.3283 H   0  0  0  0  0  0  0  0  0  0  0  0
   -6.8362    2.7964    0.5302 H   0  0  0  0  0  0  0  0  0  0  0  0
   -6.1805    6.3143    2.6927 H   0  0  0  0  0  0  0  0  0  0  0  0
   -3.9407    6.6544    1.6679 H   0  0  0  0  0  0  0  0  0  0  0  0
   -3.2055    4.9515    0.0263 H   0  0  0  0  0  0  0  0  0  0  0  0
   -2.8603   -1.7584   -2.0940 H   0  0  0  0  0  0  0  0  0  0  0  0
   -1.2305   -0.9456   -2.3764 H   0  0  0  0  0  0  0  0  0  0  0  0
   -0.7520   -3.2327   -1.7549 H   0  0  0  0  0  0  0  0  0  0  0  0
   -0.4381   -2.1443   -0.3478 H   0  0  0  0  0  0  0  0  0  0  0  0
   -1.5965   -4.2221    0.3715 H   0  0  0  0  0  0  0  0  0  0  0  0
   -2.6037   -2.7865    0.7151 H   0  0  0  0  0  0  0  0  0  0  0  0
   -4.6765   -2.4229   -0.6509 H   0  0  0  0  0  0  0  0  0  0  0  0
   -5.8399   -5.6752   -3.1732 H   0  0  0  0  0  0  0  0  0  0  0  0
   -3.6911   -6.7118   -2.8228 H   0  0  0  0  0  0  0  0  0  0  0  0
   -2.0569   -5.6375   -1.4168 H   0  0  0  0  0  0  0  0  0  0  0  0
  1  2  1  0
  2  3  1  0
  3  4  2  0
  4  5  1  0
  5  6  2  0
  6  7  1  0
  7  8  1  0
  8  9  1  0
  7 10  2  0
 10 11  1  0
 11 12  1  0
  5 13  1  0
 13 14  2  0
 13 15  1  0
 15 16  2  0
 15 17  1  0
 17 18  1  0
 18 19  1  0
 19 20  1  0
 20 21  1  0
 21 22  1  0
 22 23  1  0
 23 24  2  0
 23 25  1  0
 25 26  1  0
 26 27  1  0
 27 28  1  0
 28 29  1  0
 29 30  1  0
 30 31  2  0
 31 32  1  0
 32 33  2  0
 33 34  1  0
 34 35  2  0
 26 36  1  0
 36 37  1  0
 37 38  1  0
 38 39  1  0
 39 40  2  0
 40 41  1  0
 41 42  2  0
 42 43  1  0
 43 44  2  0
 10  3  1  0
 22 17  1  0
 35 30  1  0
 44 39  1  0
  1 45  1  0
  1 46  1  0
  1 47  1  0
  4 48  1  0
  6 49  1  0
  9 50  1  0
  9 51  1  0
  9 52  1  0
 12 53  1  0
 12 54  1  0
 12 55  1  0
 18 56  1  0
 18 57  1  0
 19 58  1  0
 19 59  1  0
 20 60  1  0
 20 61  1  0
 21 62  1  0
 21 63  1  0
 22 64  1  1
 26 65  1  0
 27 66  1  0
 27 67  1  0
 28 68  1  0
 28 69  1  0
 29 70  1  0
 29 71  1  0
 31 72  1  0
 33 73  1  0
 34 74  1  0
 35 75  1  0
 36 76  1  0
 36 77  1  0
 37 78  1  0
 37 79  1  0
 38 80  1  0
 38 81  1  0
 40 82  1  0
 42 83  1  0
 43 84  1  0
 44 85  1  0
M  END
$$$$
