@<TRIPOS>MOLECULE
*****
 85 88 0 0 0
SMALL
GASTEIGER

@<TRIPOS>ATOM
      1 C           7.8295    2.2188   -0.7143 C.3     1  UNL1        0.0790
      2 O           7.8346    0.8178   -0.9102 O.3     1  UNL1       -0.4913
      3 C           6.7139    0.1061   -0.5105 C.ar    1  UNL1        0.1658
      4 C           5.5921    0.7138    0.0732 C.ar    1  UNL1       -0.0051
      5 C           4.4957   -0.0314    0.4573 C.ar    1  UNL1        0.0341
      6 C           4.5851   -1.3850    0.2292 C.ar    1  UNL1       -0.0051
      7 C           5.6533   -2.0444   -0.3380 C.ar    1  UNL1        0.1658
      8 O           5.6918   -3.4135   -0.5460 O.3     1  UNL1       -0.4913
      9 C           4.5855   -4.1897   -0.1617 C.3     1  UNL1        0.0790
     10 C           6.7210   -1.2564   -0.7039 C.ar    1  UNL1        0.2035
     11 O           7.8256   -1.8619   -1.2799 O.3     1  UNL1       -0.4885
     12 C           7.9204   -2.0321   -2.6811 C.3     1  UNL1        0.0791
     13 C           3.4020    0.6792    1.0452 C.2     1  UNL1        0.2477
     14 O           3.5729    1.9405    1.1423 O.2     1  UNL1       -0.2817
     15 C           2.1284    0.1997    1.5517 C.2     1  UNL1        0.2876
     16 O           1.9720   -1.0396    1.4471 O.2     1  UNL1       -0.2664
     17 N           1.1335    1.0808    2.1248 N.am    1  UNL1       -0.2814
     18 C           1.0245    2.5106    2.3653 C.3     1  UNL1        0.0159
     19 C          -0.3683    3.0012    1.9740 C.3     1  UNL1       -0.0370
     20 C          -1.2771    2.4592    3.0765 C.3     1  UNL1       -0.0494
     21 C          -0.7425    1.1801    3.6235 C.3     1  UNL1       -0.0238
     22 C          -0.0566    0.3431    2.5818 C.3     1  UNL1        0.1233
     23 C          -0.9912    0.0156    1.5030 C.2     1  UNL1        0.3281
     24 O          -1.9748   -0.5469    2.0629 O.2     1  UNL1       -0.2487
     25 O          -1.2316    0.0637    0.1654 O.3     1  UNL1       -0.4601
     26 C          -2.3172   -0.4015   -0.5621 C.3     1  UNL1        0.1032
     27 C          -3.1271    0.7332   -1.2034 C.3     1  UNL1       -0.0154
     28 C          -3.6700    1.6854   -0.1670 C.3     1  UNL1       -0.0457
     29 C          -4.4688    2.8035   -0.8073 C.3     1  UNL1       -0.0261
     30 C          -5.0010    3.7533    0.1778 C.ar    1  UNL1       -0.0293
     31 C          -6.2445    3.6480    0.8097 C.ar    1  UNL1        0.0307
     32 N          -6.6160    4.5970    1.7055 N.ar    1  UNL1       -0.2630
     33 C          -5.7958    5.6089    1.9690 C.ar    1  UNL1        0.0276
     34 C          -4.5670    5.8200    1.4225 C.ar    1  UNL1       -0.0433
     35 C          -4.1928    4.8367    0.4998 C.ar    1  UNL1       -0.0557
     36 C          -1.9171   -1.3942   -1.6358 C.3     1  UNL1       -0.0154
     37 C          -1.2558   -2.5737   -1.0080 C.3     1  UNL1       -0.0457
     38 C          -2.1336   -3.3779   -0.0863 C.3     1  UNL1       -0.0261
     39 C          -3.2762   -3.8982   -0.9125 C.ar    1  UNL1       -0.0293
     40 C          -4.5152   -3.3531   -1.1462 C.ar    1  UNL1        0.0307
     41 N          -5.4096   -3.9727   -1.9320 N.ar    1  UNL1       -0.2630
     42 C          -5.1364   -5.1430   -2.5213 C.ar    1  UNL1        0.0276
     43 C          -3.9111   -5.7809   -2.3507 C.ar    1  UNL1       -0.0433
     44 C          -3.0134   -5.1171   -1.5362 C.ar    1  UNL1       -0.0557
     45 H           6.9931    2.6915   -1.2725 H       1  UNL1        0.0660
     46 H           7.6597    2.4073    0.3655 H       1  UNL1        0.0660
     47 H           8.8180    2.6523   -0.9912 H       1  UNL1        0.0660
     48 H           5.7175    1.7745    0.1665 H       1  UNL1        0.0662
     49 H           3.7710   -2.0168    0.5012 H       1  UNL1        0.0662
     50 H           3.6177   -3.7994   -0.5570 H       1  UNL1        0.0660
     51 H           4.7078   -5.2556   -0.5061 H       1  UNL1        0.0660
     52 H           4.4538   -4.2729    0.9399 H       1  UNL1        0.0660
     53 H           7.0274   -1.6651   -3.2135 H       1  UNL1        0.0660
     54 H           8.7995   -1.4741   -3.0662 H       1  UNL1        0.0660
     55 H           8.0161   -3.1180   -2.9425 H       1  UNL1        0.0660
     56 H           1.8101    3.1209    1.9279 H       1  UNL1        0.0465
     57 H           1.0810    2.6154    3.4865 H       1  UNL1        0.0465
     58 H          -0.3280    4.1108    2.0278 H       1  UNL1        0.0280
     59 H          -0.6350    2.6509    0.9779 H       1  UNL1        0.0280
     60 H          -2.3127    2.4599    2.7466 H       1  UNL1        0.0266
     61 H          -1.2498    3.1973    3.9381 H       1  UNL1        0.0266
     62 H          -0.1146    1.3366    4.5284 H       1  UNL1        0.0288
     63 H          -1.6030    0.5466    3.9913 H       1  UNL1        0.0288
     64 H           0.2736   -0.6425    3.0140 H       1  UNL1        0.0616
     65 H          -3.0250   -0.8963    0.1169 H       1  UNL1        0.0734
     66 H          -4.0199    0.2560   -1.6772 H       1  UNL1        0.0301
     67 H          -2.5355    1.2180   -1.9991 H       1  UNL1        0.0301
     68 H          -2.8814    2.0749    0.4928 H       1  UNL1        0.0270
     69 H          -4.3751    1.1141    0.4759 H       1  UNL1        0.0270
     70 H          -3.8614    3.3647   -1.5427 H       1  UNL1        0.0314
     71 H          -5.3677    2.3664   -1.3283 H       1  UNL1        0.0314
     72 H          -6.8362    2.7964    0.5302 H       1  UNL1        0.0832
     73 H          -6.1805    6.3143    2.6927 H       1  UNL1        0.0829
     74 H          -3.9407    6.6544    1.6679 H       1  UNL1        0.0633
     75 H          -3.2055    4.9515    0.0263 H       1  UNL1        0.0621
     76 H          -2.8603   -1.7584   -2.0940 H       1  UNL1        0.0301
     77 H          -1.2305   -0.9456   -2.3764 H       1  UNL1        0.0301
     78 H          -0.7520   -3.2327   -1.7549 H       1  UNL1        0.0270
     79 H          -0.4381   -2.1443   -0.3478 H       1  UNL1        0.0270
     80 H          -1.5965   -4.2221    0.3715 H       1  UNL1        0.0314
     81 H          -2.6037   -2.7865    0.7151 H       1  UNL1        0.0314
     82 H          -4.6765   -2.4229   -0.6509 H       1  UNL1        0.0832
     83 H          -5.8399   -5.6752   -3.1732 H       1  UNL1        0.0829
     84 H          -3.6911   -6.7118   -2.8228 H       1  UNL1        0.0633
     85 H          -2.0569   -5.6375   -1.4168 H       1  UNL1        0.0621
@<TRIPOS>BOND
     1     1     2    1
     2     2     3    1
     3     3     4   ar
     4     4     5   ar
     5     5     6   ar
     6     6     7   ar
     7     7     8    1
     8     8     9    1
     9     7    10   ar
    10    10    11    1
    11    11    12    1
    12     5    13    1
    13    13    14    2
    14    13    15    1
    15    15    16    2
    16    15    17   am
    17    17    18    1
    18    18    19    1
    19    19    20    1
    20    20    21    1
    21    21    22    1
    22    22    23    1
    23    23    24    2
    24    23    25    1
    25    25    26    1
    26    26    27    1
    27    27    28    1
    28    28    29    1
    29    29    30    1
    30    30    31   ar
    31    31    32   ar
    32    32    33   ar
    33    33    34   ar
    34    34    35   ar
    35    26    36    1
    36    36    37    1
    37    37    38    1
    38    38    39    1
    39    39    40   ar
    40    40    41   ar
    41    41    42   ar
    42    42    43   ar
    43    43    44   ar
    44    10     3   ar
    45    22    17    1
    46    35    30   ar
    47    44    39   ar
    48     1    45    1
    49     1    46    1
    50     1    47    1
    51     4    48    1
    52     6    49    1
    53     9    50    1
    54     9    51    1
    55     9    52    1
    56    12    53    1
    57    12    54    1
    58    12    55    1
    59    18    56    1
    60    18    57    1
    61    19    58    1
    62    19    59    1
    63    20    60    1
    64    20    61    1
    65    21    62    1
    66    21    63    1
    67    22    64    1
    68    26    65    1
    69    27    66    1
    70    27    67    1
    71    28    68    1
    72    28    69    1
    73    29    70    1
    74    29    71    1
    75    31    72    1
    76    33    73    1
    77    34    74    1
    78    35    75    1
    79    36    76    1
    80    36    77    1
    81    37    78    1
    82    37    79    1
    83    38    80    1
    84    38    81    1
    85    40    82    1
    86    42    83    1
    87    43    84    1
    88    44    85    1
