@<TRIPOS>MOLECULE
*****
 35 35 0 0 0
SMALL
GASTEIGER

@<TRIPOS>ATOM
      1 C           4.3170    0.8111   -0.4389 C.3     1  UNL1       -0.0496
      2 C           3.8864    0.5247    0.9711 C.3     1  UNL1        0.0063
      3 N           2.6304   -0.1632    0.9619 N.pl3   1  UNL1       -0.3426
      4 C           1.4568    0.4758    0.5041 C.ar    1  UNL1        0.0517
      5 C           1.5084    1.7904    0.0962 C.ar    1  UNL1        0.0488
      6 N           0.3833    2.4266   -0.3260 N.ar    1  UNL1       -0.2596
      7 C          -0.7967    1.7840   -0.3524 C.ar    1  UNL1        0.0490
      8 C          -0.8766    0.4617    0.0522 C.ar    1  UNL1        0.0540
      9 N          -2.1272   -0.2061   -0.0054 N.pl3   1  UNL1       -0.3318
     10 C          -2.4125   -1.2909   -0.9353 C.3     1  UNL1        0.0007
     11 C          -3.1546    0.2431    0.9353 C.3     1  UNL1        0.0091
     12 C          -4.3038    0.9253    0.2469 C.3     1  UNL1       -0.0494
     13 C           0.2402   -0.2171    0.4869 C.ar    1  UNL1        0.0109
     14 C           0.0830   -1.6125    0.9021 C.3     1  UNL1        0.0222
     15 N           0.5180   -2.5474   -0.1053 N.3     1  UNL1       -0.3260
     16 H           4.7086    1.8382   -0.5241 H       1  UNL1        0.0245
     17 H           5.1488    0.0766   -0.6572 H       1  UNL1        0.0245
     18 H           3.5505    0.6595   -1.2060 H       1  UNL1        0.0245
     19 H           3.7375    1.4652    1.5635 H       1  UNL1        0.0458
     20 H           4.6258   -0.0951    1.5206 H       1  UNL1        0.0458
     21 H           2.5900   -1.1677    1.3067 H       1  UNL1        0.1461
     22 H           2.4628    2.2933    0.1317 H       1  UNL1        0.0848
     23 H          -1.7089    2.2609   -0.6819 H       1  UNL1        0.0848
     24 H          -2.5513   -2.2643   -0.4388 H       1  UNL1        0.0428
     25 H          -3.4254   -1.0701   -1.3978 H       1  UNL1        0.0428
     26 H          -1.7243   -1.3035   -1.7978 H       1  UNL1        0.0428
     27 H          -3.5698   -0.6124    1.5047 H       1  UNL1        0.0461
     28 H          -2.7391    0.9529    1.6762 H       1  UNL1        0.0461
     29 H          -4.1416    2.0302    0.1183 H       1  UNL1        0.0245
     30 H          -4.5701    0.4794   -0.7291 H       1  UNL1        0.0245
     31 H          -5.1999    0.8616    0.9218 H       1  UNL1        0.0245
     32 H          -0.9476   -1.8527    1.2413 H       1  UNL1        0.0472
     33 H           0.7535   -1.7735    1.8002 H       1  UNL1        0.0472
     34 H           0.1049   -3.5117    0.0675 H       1  UNL1        0.1185
     35 H           1.5434   -2.6725   -0.1760 H       1  UNL1        0.1185
@<TRIPOS>BOND
     1     1     2    1
     2     2     3    1
     3     3     4    1
     4     4     5   ar
     5     5     6   ar
     6     6     7   ar
     7     7     8   ar
     8     8     9    1
     9     9    10    1
    10     9    11    1
    11    11    12    1
    12     8    13   ar
    13    13    14    1
    14    14    15    1
    15    13     4   ar
    16     1    16    1
    17     1    17    1
    18     1    18    1
    19     2    19    1
    20     2    20    1
    21     3    21    1
    22     5    22    1
    23     7    23    1
    24    10    24    1
    25    10    25    1
    26    10    26    1
    27    11    27    1
    28    11    28    1
    29    12    29    1
    30    12    30    1
    31    12    31    1
    32    14    32    1
    33    14    33    1
    34    15    34    1
    35    15    35    1
