
     RDKit          3D

 35 35  0  0  0  0  0  0  0  0999 V2000
    4.3170    0.8111   -0.4389 C   0  0  0  0  0  0  0  0  0  0  0  0
    3.8864    0.5247    0.9711 C   0  0  0  0  0  0  0  0  0  0  0  0
    2.6304   -0.1632    0.9619 N   0  0  0  0  0  0  0  0  0  0  0  0
    1.4568    0.4758    0.5041 C   0  0  0  0  0  0  0  0  0  0  0  0
    1.5084    1.7904    0.0962 C   0  0  0  0  0  0  0  0  0  0  0  0
    0.3833    2.4266   -0.3260 N   0  0  0  0  0  0  0  0  0  0  0  0
   -0.7967    1.7840   -0.3524 C   0  0  0  0  0  0  0  0  0  0  0  0
   -0.8766    0.4617    0.0522 C   0  0  0  0  0  0  0  0  0  0  0  0
   -2.1272   -0.2061   -0.0054 N   0  0  0  0  0  0  0  0  0  0  0  0
   -2.4125   -1.2909   -0.9353 C   0  0  0  0  0  0  0  0  0  0  0  0
   -3.1546    0.2431    0.9353 C   0  0  0  0  0  0  0  0  0  0  0  0
   -4.3038    0.9253    0.2469 C   0  0  0  0  0  0  0  0  0  0  0  0
    0.2402   -0.2171    0.4869 C   0  0  0  0  0  0  0  0  0  0  0  0
    0.0830   -1.6125    0.9021 C   0  0  0  0  0  0  0  0  0  0  0  0
    0.5180   -2.5474   -0.1053 N   0  0  0  0  0  0  0  0  0  0  0  0
    4.7086    1.8382   -0.5241 H   0  0  0  0  0  0  0  0  0  0  0  0
    5.1488    0.0766   -0.6572 H   0  0  0  0  0  0  0  0  0  0  0  0
    3.5505    0.6595   -1.2060 H   0  0  0  0  0  0  0  0  0  0  0  0
    3.7375    1.4652    1.5635 H   0  0  0  0  0  0  0  0  0  0  0  0
    4.6258   -0.0951    1.5206 H   0  0  0  0  0  0  0  0  0  0  0  0
    2.5900   -1.1677    1.3067 H   0  0  0  0  0  0  0  0  0  0  0  0
    2.4628    2.2933    0.1317 H   0  0  0  0  0  0  0  0  0  0  0  0
   -1.7089    2.2609   -0.6819 H   0  0  0  0  0  0  0  0  0  0  0  0
   -2.5513   -2.2643   -0.4388 H   0  0  0  0  0  0  0  0  0  0  0  0
   -3.4254   -1.0701   -1.3978 H   0  0  0  0  0  0  0  0  0  0  0  0
   -1.7243   -1.3035   -1.7978 H   0  0  0  0  0  0  0  0  0  0  0  0
   -3.5698   -0.6124    1.5047 H   0  0  0  0  0  0  0  0  0  0  0  0
   -2.7391    0.9529    1.6762 H   0  0  0  0  0  0  0  0  0  0  0  0
   -4.1416    2.0302    0.1183 H   0  0  0  0  0  0  0  0  0  0  0  0
   -4.5701    0.4794   -0.7291 H   0  0  0  0  0  0  0  0  0  0  0  0
   -5.1999    0.8616    0.9218 H   0  0  0  0  0  0  0  0  0  0  0  0
   -0.9476   -1.8527    1.2413 H   0  0  0  0  0  0  0  0  0  0  0  0
    0.7535   -1.7735    1.8002 H   0  0  0  0  0  0  0  0  0  0  0  0
    0.1049   -3.5117    0.0675 H   0  0  0  0  0  0  0  0  0  0  0  0
    1.5434   -2.6725   -0.1760 H   0  0  0  0  0  0  0  0  0  0  0  0
  1  2  1  0
  2  3  1  0
  3  4  1  0
  4  5  2  0
  5  6  1  0
  6  7  2  0
  7  8  1  0
  8  9  1  0
  9 10  1  0
  9 11  1  0
 11 12  1  0
  8 13  2  0
 13 14  1  0
 14 15  1  0
 13  4  1  0
  1 16  1  0
  1 17  1  0
  1 18  1  0
  2 19  1  0
  2 20  1  0
  3 21  1  0
  5 22  1  0
  7 23  1  0
 10 24  1  0
 10 25  1  0
 10 26  1  0
 11 27  1  0
 11 28  1  0
 12 29  1  0
 12 30  1  0
 12 31  1  0
 14 32  1  0
 14 33  1  0
 15 34  1  0
 15 35  1  0
M  END
$$$$
