@<TRIPOS>MOLECULE
*****
 30 32 0 0 0
SMALL
GASTEIGER

@<TRIPOS>ATOM
      1 C          -0.7060   -2.5306   -2.0806 C.3     1  UNL1        0.0326
      2 N          -0.4020   -1.4417   -1.1838 N.ar    1  UNL1       -0.2460
      3 N           0.8500   -1.0847   -0.8748 N.ar    1  UNL1       -0.1479
      4 C           1.1321   -0.0711   -0.0401 C.ar    1  UNL1        0.1990
      5 C           2.5230    0.2578    0.2477 C.ar    1  UNL1        0.1095
      6 C           3.5601   -0.4497   -0.3189 C.ar    1  UNL1       -0.0326
      7 C           4.8568   -0.0965   -0.0125 C.ar    1  UNL1       -0.0582
      8 C           5.1330    0.9416    0.8423 C.ar    1  UNL1       -0.0436
      9 C           4.0550    1.6270    1.3902 C.ar    1  UNL1        0.0284
     10 N           2.7955    1.2817    1.0907 N.ar    1  UNL1       -0.2518
     11 N           0.1299    0.6349    0.5256 N.ar    1  UNL1       -0.2159
     12 C          -1.1623    0.3548    0.2791 C.ar    1  UNL1        0.1744
     13 C          -2.2278    1.0363    0.8239 C.ar    1  UNL1        0.2841
     14 O          -2.0060    1.9851    1.6047 O.2     1  UNL1       -0.2651
     15 N          -3.5149    0.7061    0.5364 N.ar    1  UNL1       -0.2607
     16 C          -4.6281    1.4303    1.1156 C.3     1  UNL1        0.0197
     17 C          -3.7113   -0.3183   -0.3060 C.ar    1  UNL1        0.3529
     18 O          -4.9069   -0.6563   -0.5988 O.2     1  UNL1       -0.2443
     19 N          -2.7206   -1.0297   -0.8763 N.ar    1  UNL1       -0.1717
     20 C          -1.4303   -0.7514   -0.6314 C.ar    1  UNL1        0.1858
     21 H          -1.5016   -2.2086   -2.8136 H       1  UNL1        0.0473
     22 H           0.1570   -2.8612   -2.6652 H       1  UNL1        0.0473
     23 H          -1.0586   -3.4062   -1.4778 H       1  UNL1        0.0473
     24 H           3.3544   -1.2848   -1.0064 H       1  UNL1        0.0640
     25 H           5.6992   -0.6371   -0.4448 H       1  UNL1        0.0619
     26 H           6.1533    1.2171    1.0814 H       1  UNL1        0.0633
     27 H           4.3063    2.4393    2.0595 H       1  UNL1        0.0830
     28 H          -5.1376    1.9556    0.2710 H       1  UNL1        0.0458
     29 H          -5.3373    0.7738    1.6398 H       1  UNL1        0.0458
     30 H          -4.2545    2.1864    1.8229 H       1  UNL1        0.0458
@<TRIPOS>BOND
     1     1     2    1
     2     2     3   ar
     3     3     4   ar
     4     4     5    1
     5     5     6   ar
     6     6     7   ar
     7     7     8   ar
     8     8     9   ar
     9     9    10   ar
    10     4    11   ar
    11    11    12   ar
    12    12    13   ar
    13    13    14    2
    14    13    15   ar
    15    15    16    1
    16    15    17   ar
    17    17    18    2
    18    17    19   ar
    19    19    20   ar
    20    20     2   ar
    21    10     5   ar
    22    20    12    1
    23     1    21    1
    24     1    22    1
    25     1    23    1
    26     6    24    1
    27     7    25    1
    28     8    26    1
    29     9    27    1
    30    16    28    1
    31    16    29    1
    32    16    30    1
