
     RDKit          3D

 30 32  0  0  0  0  0  0  0  0999 V2000
   -0.7060   -2.5306   -2.0806 C   0  0  0  0  0  0  0  0  0  0  0  0
   -0.4020   -1.4417   -1.1838 N   0  0  0  0  0  0  0  0  0  0  0  0
    0.8500   -1.0847   -0.8748 N   0  0  0  0  0  0  0  0  0  0  0  0
    1.1321   -0.0711   -0.0401 C   0  0  0  0  0  0  0  0  0  0  0  0
    2.5230    0.2578    0.2477 C   0  0  0  0  0  0  0  0  0  0  0  0
    3.5601   -0.4497   -0.3189 C   0  0  0  0  0  0  0  0  0  0  0  0
    4.8568   -0.0965   -0.0125 C   0  0  0  0  0  0  0  0  0  0  0  0
    5.1330    0.9416    0.8423 C   0  0  0  0  0  0  0  0  0  0  0  0
    4.0550    1.6270    1.3902 C   0  0  0  0  0  0  0  0  0  0  0  0
    2.7955    1.2817    1.0907 N   0  0  0  0  0  0  0  0  0  0  0  0
    0.1299    0.6349    0.5256 N   0  0  0  0  0  0  0  0  0  0  0  0
   -1.1623    0.3548    0.2791 C   0  0  0  0  0  0  0  0  0  0  0  0
   -2.2278    1.0363    0.8239 C   0  0  0  0  0  0  0  0  0  0  0  0
   -2.0060    1.9851    1.6047 O   0  0  0  0  0  0  0  0  0  0  0  0
   -3.5149    0.7061    0.5364 N   0  0  0  0  0  0  0  0  0  0  0  0
   -4.6281    1.4303    1.1156 C   0  0  0  0  0  0  0  0  0  0  0  0
   -3.7113   -0.3183   -0.3060 C   0  0  0  0  0  0  0  0  0  0  0  0
   -4.9069   -0.6563   -0.5988 O   0  0  0  0  0  0  0  0  0  0  0  0
   -2.7206   -1.0297   -0.8763 N   0  0  0  0  0  0  0  0  0  0  0  0
   -1.4303   -0.7514   -0.6314 C   0  0  0  0  0  0  0  0  0  0  0  0
   -1.5016   -2.2086   -2.8136 H   0  0  0  0  0  0  0  0  0  0  0  0
    0.1570   -2.8612   -2.6652 H   0  0  0  0  0  0  0  0  0  0  0  0
   -1.0586   -3.4062   -1.4778 H   0  0  0  0  0  0  0  0  0  0  0  0
    3.3544   -1.2848   -1.0064 H   0  0  0  0  0  0  0  0  0  0  0  0
    5.6992   -0.6371   -0.4448 H   0  0  0  0  0  0  0  0  0  0  0  0
    6.1533    1.2171    1.0814 H   0  0  0  0  0  0  0  0  0  0  0  0
    4.3063    2.4393    2.0595 H   0  0  0  0  0  0  0  0  0  0  0  0
   -5.1376    1.9556    0.2710 H   0  0  0  0  0  0  0  0  0  0  0  0
   -5.3373    0.7738    1.6398 H   0  0  0  0  0  0  0  0  0  0  0  0
   -4.2545    2.1864    1.8229 H   0  0  0  0  0  0  0  0  0  0  0  0
  1  2  1  0
  2  3  1  0
  3  4  2  0
  4  5  1  0
  5  6  2  0
  6  7  1  0
  7  8  2  0
  8  9  1  0
  9 10  2  0
  4 11  1  0
 11 12  2  0
 12 13  1  0
 13 14  2  0
 13 15  1  0
 15 16  1  0
 15 17  1  0
 17 18  2  0
 17 19  1  0
 19 20  2  0
 20  2  1  0
 10  5  1  0
 20 12  1  0
  1 21  1  0
  1 22  1  0
  1 23  1  0
  6 24  1  0
  7 25  1  0
  8 26  1  0
  9 27  1  0
 16 28  1  0
 16 29  1  0
 16 30  1  0
M  END
$$$$
