
     RDKit          3D

 60 64  0  0  0  0  0  0  0  0999 V2000
    1.3782    2.7341    2.0394 O   0  0  0  0  0  0  0  0  0  0  0  0
    1.8708    1.7498    1.4200 C   0  0  0  0  0  0  0  0  0  0  0  0
    3.2866    1.4268    1.7871 C   0  0  0  0  0  0  0  0  0  0  0  0
    3.8570    0.4220    1.0551 N   0  0  0  0  0  0  0  0  0  0  0  0
    4.4268   -0.5818    0.3237 C   0  0  0  0  0  0  0  0  0  0  0  0
    3.9466   -1.7767   -0.0524 N   0  0  0  0  0  0  0  0  0  0  0  0
    4.6592   -2.6103   -0.8227 C   0  0  0  0  0  0  0  0  0  0  0  0
    5.8911   -2.3069   -1.2640 N   0  0  0  0  0  0  0  0  0  0  0  0
    6.4315   -1.1341   -0.9280 C   0  0  0  0  0  0  0  0  0  0  0  0
    7.7290   -0.8150   -1.3755 C   0  0  0  0  0  0  0  0  0  0  0  0
    8.2749    0.3917   -1.0044 C   0  0  0  0  0  0  0  0  0  0  0  0
    7.6020    1.2993   -0.2141 C   0  0  0  0  0  0  0  0  0  0  0  0
    8.1816    2.6113    0.2079 C   0  0  0  0  0  0  0  0  0  0  0  0
    7.2495    3.3765    0.8667 F   0  0  0  0  0  0  0  0  0  0  0  0
    9.2898    2.4175    1.0378 F   0  0  0  0  0  0  0  0  0  0  0  0
    8.5527    3.2790   -0.9413 F   0  0  0  0  0  0  0  0  0  0  0  0
    6.3332    0.9461    0.2009 C   0  0  0  0  0  0  0  0  0  0  0  0
    5.7395   -0.2715   -0.1528 C   0  0  0  0  0  0  0  0  0  0  0  0
    1.1174    1.0493    0.4840 N   0  0  0  0  0  0  0  0  0  0  0  0
   -0.2493    1.3836    0.1368 C   0  0  0  0  0  0  0  0  0  0  0  0
   -0.9119    0.5683   -0.9221 C   0  0  0  0  0  0  0  0  0  0  0  0
   -1.6794   -0.0826    0.0700 N   0  0  0  0  0  0  0  0  0  0  0  0
   -3.0139   -0.4682   -0.1201 C   0  0  1  0  0  0  0  0  0  0  0  0
   -3.4915   -1.0357    1.2080 C   0  0  0  0  0  0  0  0  0  0  0  0
   -4.9667   -1.1908    1.1884 C   0  0  0  0  0  0  0  0  0  0  0  0
   -5.5721   -1.2515   -0.1994 C   0  0  1  0  0  0  0  0  0  0  0  0
   -5.1146   -2.3333   -0.9112 O   0  0  0  0  0  0  0  0  0  0  0  0
   -7.0621   -1.3013   -0.0112 C   0  0  0  0  0  0  0  0  0  0  0  0
   -7.7658   -1.3030    1.2294 C   0  0  0  0  0  0  0  0  0  0  0  0
   -9.0611   -1.3529    1.0866 N   0  0  0  0  0  0  0  0  0  0  0  0
   -9.7185   -1.3953    0.1339 C   0  0  0  0  0  0  0  0  0  0  0  0
   -8.3470   -1.3710   -1.1749 S   0  0  0  0  0  0  0  0  0  0  0  0
   -5.2905    0.0444   -0.9486 C   0  0  0  0  0  0  0  0  0  0  0  0
   -3.9480    0.6171   -0.5407 C   0  0  0  0  0  0  0  0  0  0  0  0
   -1.2740    0.7752    1.1130 C   0  0  0  0  0  0  0  0  0  0  0  0
    3.3602    1.2018    2.8923 H   0  0  0  0  0  0  0  0  0  0  0  0
    3.7922    2.4439    1.7142 H   0  0  0  0  0  0  0  0  0  0  0  0
    2.8119   -0.3890    1.3816 H   0  0  0  0  0  0  0  0  0  0  0  0
    4.2249   -3.5763   -1.1035 H   0  0  0  0  0  0  0  0  0  0  0  0
    8.2624   -1.5098   -1.9857 H   0  0  0  0  0  0  0  0  0  0  0  0
    9.2744    0.6282   -1.3464 H   0  0  0  0  0  0  0  0  0  0  0  0
    5.7632    1.6031    0.8186 H   0  0  0  0  0  0  0  0  0  0  0  0
    1.5396    0.2394   -0.0107 H   0  0  0  0  0  0  0  0  0  0  0  0
   -0.4169    2.4500    0.1432 H   0  0  0  0  0  0  0  0  0  0  0  0
   -1.4708    1.1333   -1.6991 H   0  0  0  0  0  0  0  0  0  0  0  0
   -0.1396   -0.1242   -1.3784 H   0  0  0  0  0  0  0  0  0  0  0  0
   -3.0427   -1.2975   -0.8644 H   0  0  0  0  0  0  0  0  0  0  0  0
   -2.9280   -2.0006    1.3649 H   0  0  0  0  0  0  0  0  0  0  0  0
   -3.1781   -0.3679    2.0533 H   0  0  0  0  0  0  0  0  0  0  0  0
   -5.2574   -2.1094    1.7292 H   0  0  0  0  0  0  0  0  0  0  0  0
   -5.4107   -0.3417    1.7730 H   0  0  0  0  0  0  0  0  0  0  0  0
   -5.8754   -2.6615   -1.4881 H   0  0  0  0  0  0  0  0  0  0  0  0
   -7.2221   -1.2654    2.2024 H   0  0  0  0  0  0  0  0  0  0  0  0
  -10.7574   -1.4428   -0.2961 H   0  0  0  0  0  0  0  0  0  0  0  0
   -6.1207    0.7531   -0.8344 H   0  0  0  0  0  0  0  0  0  0  0  0
   -5.2223   -0.2171   -2.0207 H   0  0  0  0  0  0  0  0  0  0  0  0
   -4.0913    1.3674    0.2585 H   0  0  0  0  0  0  0  0  0  0  0  0
   -3.4885    1.1743   -1.3950 H   0  0  0  0  0  0  0  0  0  0  0  0
   -2.0344    1.5251    1.4667 H   0  0  0  0  0  0  0  0  0  0  0  0
   -0.7236    0.2735    1.9318 H   0  0  0  0  0  0  0  0  0  0  0  0
  1  2  2  0
  2  3  1  0
  3  4  1  0
  4  5  1  0
  5  6  2  0
  6  7  1  0
  7  8  2  0
  8  9  1  0
  9 10  2  0
 10 11  1  0
 11 12  2  0
 12 13  1  0
 13 14  1  0
 13 15  1  0
 13 16  1  0
 12 17  1  0
 17 18  2  0
  2 19  1  0
 19 20  1  0
 20 21  1  0
 21 22  1  0
 22 23  1  0
 23 24  1  0
 24 25  1  0
 25 26  1  0
 26 27  1  6
 26 28  1  0
 28 29  2  0
 29 30  1  0
 30 31  2  0
 31 32  1  0
 26 33  1  0
 33 34  1  0
 22 35  1  0
 18  5  1  0
 35 20  1  0
 18  9  1  0
 34 23  1  0
 32 28  1  0
  3 36  1  0
  3 37  1  0
  4 38  1  0
  7 39  1  0
 10 40  1  0
 11 41  1  0
 17 42  1  0
 19 43  1  0
 20 44  1  0
 21 45  1  0
 21 46  1  0
 23 47  1  6
 24 48  1  0
 24 49  1  0
 25 50  1  0
 25 51  1  0
 27 52  1  0
 29 53  1  0
 31 54  1  0
 33 55  1  0
 33 56  1  0
 34 57  1  0
 34 58  1  0
 35 59  1  0
 35 60  1  0
M  END
$$$$
