@<TRIPOS>MOLECULE
*****
 60 64 0 0 0
SMALL
GASTEIGER

@<TRIPOS>ATOM
      1 O           1.3782    2.7341    2.0394 O.2     1  UNL1       -0.2741
      2 C           1.8708    1.7498    1.4200 C.2     1  UNL1        0.2304
      3 C           3.2866    1.4268    1.7871 C.3     1  UNL1        0.0870
      4 N           3.8570    0.4220    1.0551 N.pl3   1  UNL1       -0.3199
      5 C           4.4268   -0.5818    0.3237 C.ar    1  UNL1        0.1301
      6 N           3.9466   -1.7767   -0.0524 N.ar    1  UNL1       -0.2203
      7 C           4.6592   -2.6103   -0.8227 C.ar    1  UNL1        0.1187
      8 N           5.8911   -2.3069   -1.2640 N.ar    1  UNL1       -0.2353
      9 C           6.4315   -1.1341   -0.9280 C.ar    1  UNL1        0.0760
     10 C           7.7290   -0.8150   -1.3755 C.ar    1  UNL1       -0.0350
     11 C           8.2749    0.3917   -1.0044 C.ar    1  UNL1       -0.0481
     12 C           7.6020    1.2993   -0.2141 C.ar    1  UNL1        0.0556
     13 C           8.1816    2.6113    0.2079 C.3     1  UNL1        0.4174
     14 F           7.2495    3.3765    0.8667 F       1  UNL1       -0.1659
     15 F           9.2898    2.4175    1.0378 F       1  UNL1       -0.1659
     16 F           8.5527    3.2790   -0.9413 F       1  UNL1       -0.1659
     17 C           6.3332    0.9461    0.2009 C.ar    1  UNL1       -0.0376
     18 C           5.7395   -0.2715   -0.1528 C.ar    1  UNL1        0.0406
     19 N           1.1174    1.0493    0.4840 N.am    1  UNL1       -0.3087
     20 C          -0.2493    1.3836    0.1368 C.3     1  UNL1        0.0486
     21 C          -0.9119    0.5683   -0.9221 C.3     1  UNL1        0.0189
     22 N          -1.6794   -0.0826    0.0700 N.3     1  UNL1       -0.2958
     23 C          -3.0139   -0.4682   -0.1201 C.3     1  UNL1        0.0107
     24 C          -3.4915   -1.0357    1.2080 C.3     1  UNL1       -0.0344
     25 C          -4.9667   -1.1908    1.1884 C.3     1  UNL1       -0.0179
     26 C          -5.5721   -1.2515   -0.1994 C.3     1  UNL1        0.0985
     27 O          -5.1146   -2.3333   -0.9112 O.3     1  UNL1       -0.3834
     28 C          -7.0621   -1.3013   -0.0112 C.ar    1  UNL1        0.0405
     29 C          -7.7658   -1.3030    1.2294 C.ar    1  UNL1        0.0406
     30 N          -9.0611   -1.3529    1.0866 N.ar    1  UNL1       -0.2553
     31 C          -9.7185   -1.3953    0.1339 C.ar    1  UNL1        0.0650
     32 S          -8.3470   -1.3710   -1.1749 S.2     1  UNL1       -0.0775
     33 C          -5.2905    0.0444   -0.9486 C.3     1  UNL1       -0.0179
     34 C          -3.9480    0.6171   -0.5407 C.3     1  UNL1       -0.0344
     35 C          -1.2740    0.7752    1.1130 C.3     1  UNL1        0.0189
     36 H           3.3602    1.2018    2.8923 H       1  UNL1        0.0557
     37 H           3.7922    2.4439    1.7142 H       1  UNL1        0.0557
     38 H           2.8119   -0.3890    1.3816 H       1  UNL1        0.1480
     39 H           4.2249   -3.5763   -1.1035 H       1  UNL1        0.1048
     40 H           8.2624   -1.5098   -1.9857 H       1  UNL1        0.0639
     41 H           9.2744    0.6282   -1.3464 H       1  UNL1        0.0624
     42 H           5.7632    1.6031    0.8186 H       1  UNL1        0.0631
     43 H           1.5396    0.2394   -0.0107 H       1  UNL1        0.1491
     44 H          -0.4169    2.4500    0.1432 H       1  UNL1        0.0523
     45 H          -1.4708    1.1333   -1.6991 H       1  UNL1        0.0445
     46 H          -0.1396   -0.1242   -1.3784 H       1  UNL1        0.0445
     47 H          -3.0427   -1.2975   -0.8644 H       1  UNL1        0.0462
     48 H          -2.9280   -2.0006    1.3649 H       1  UNL1        0.0281
     49 H          -3.1781   -0.3679    2.0533 H       1  UNL1        0.0281
     50 H          -5.2574   -2.1094    1.7292 H       1  UNL1        0.0297
     51 H          -5.4107   -0.3417    1.7730 H       1  UNL1        0.0297
     52 H          -5.8754   -2.6615   -1.4881 H       1  UNL1        0.2106
     53 H          -7.2221   -1.2654    2.2024 H       1  UNL1        0.0839
     54 H         -10.7574   -1.4428   -0.2961 H       1  UNL1        0.0907
     55 H          -6.1207    0.7531   -0.8344 H       1  UNL1        0.0297
     56 H          -5.2223   -0.2171   -2.0207 H       1  UNL1        0.0297
     57 H          -4.0913    1.3674    0.2585 H       1  UNL1        0.0281
     58 H          -3.4885    1.1743   -1.3950 H       1  UNL1        0.0281
     59 H          -2.0344    1.5251    1.4667 H       1  UNL1        0.0445
     60 H          -0.7236    0.2735    1.9318 H       1  UNL1        0.0445
@<TRIPOS>BOND
     1     1     2    2
     2     2     3    1
     3     3     4    1
     4     4     5    1
     5     5     6   ar
     6     6     7   ar
     7     7     8   ar
     8     8     9   ar
     9     9    10   ar
    10    10    11   ar
    11    11    12   ar
    12    12    13    1
    13    13    14    1
    14    13    15    1
    15    13    16    1
    16    12    17   ar
    17    17    18   ar
    18     2    19   am
    19    19    20    1
    20    20    21    1
    21    21    22    1
    22    22    23    1
    23    23    24    1
    24    24    25    1
    25    25    26    1
    26    26    27    1
    27    26    28    1
    28    28    29   ar
    29    29    30   ar
    30    30    31   ar
    31    31    32   ar
    32    26    33    1
    33    33    34    1
    34    22    35    1
    35    18     5   ar
    36    35    20    1
    37    18     9   ar
    38    34    23    1
    39    32    28   ar
    40     3    36    1
    41     3    37    1
    42     4    38    1
    43     7    39    1
    44    10    40    1
    45    11    41    1
    46    17    42    1
    47    19    43    1
    48    20    44    1
    49    21    45    1
    50    21    46    1
    51    23    47    1
    52    24    48    1
    53    24    49    1
    54    25    50    1
    55    25    51    1
    56    27    52    1
    57    29    53    1
    58    31    54    1
    59    33    55    1
    60    33    56    1
    61    34    57    1
    62    34    58    1
    63    35    59    1
    64    35    60    1
