@<TRIPOS>MOLECULE
*****
 60 63 0 0 0
SMALL
GASTEIGER

@<TRIPOS>ATOM
      1 C           2.6050   -2.5483   -0.8242 C.3     1  UNL1       -0.0211
      2 C           3.4772   -1.4324   -0.2751 C.ar    1  UNL1        0.0582
      3 N           4.7746   -1.5657   -0.1166 N.ar    1  UNL1       -0.2434
      4 C           5.5540   -0.8025    0.2877 C.ar    1  UNL1        0.1107
      5 C           7.0074   -0.6292    0.5767 C.ar    1  UNL1        0.0252
      6 C           7.5536    0.5644    0.9933 C.ar    1  UNL1       -0.0492
      7 C           8.9298    0.6401    1.2670 C.ar    1  UNL1       -0.0430
      8 C           9.7350   -0.4722    1.1225 C.ar    1  UNL1        0.0276
      9 N           9.1625   -1.6204    0.7135 N.ar    1  UNL1       -0.2626
     10 C           7.8234   -1.7108    0.4417 C.ar    1  UNL1        0.0372
     11 S           4.4301    0.6540    0.6400 S.2     1  UNL1       -0.0623
     12 C           2.9430   -0.2259    0.0812 C.ar    1  UNL1        0.0967
     13 C           1.6506    0.3658    0.1151 C.2     1  UNL1        0.2529
     14 O           1.5300    1.5511    0.5583 O.2     1  UNL1       -0.2696
     15 N           0.4797   -0.2630   -0.3099 N.am    1  UNL1       -0.3046
     16 C          -0.8254    0.4169   -0.2345 C.3     1  UNL1        0.0436
     17 C          -1.8453   -0.3686    0.4745 C.2     1  UNL1       -0.0460
     18 C          -2.5673   -1.3073   -0.1239 C.2     1  UNL1        0.0552
     19 S          -3.7835   -2.2173    0.7990 S.O2    1  UNL1        0.0182
     20 O          -5.0342   -2.2764    0.0048 O.2     1  UNL1       -0.1649
     21 O          -3.2659   -3.6169    0.9872 O.2     1  UNL1       -0.1649
     22 C          -3.9991   -1.5023    2.3743 C.ar    1  UNL1        0.0929
     23 C          -4.9303   -0.5213    2.6211 C.ar    1  UNL1       -0.0365
     24 C          -5.0997    0.0480    3.8708 C.ar    1  UNL1       -0.0599
     25 C          -4.3169   -0.3633    4.9377 C.ar    1  UNL1       -0.0616
     26 C          -3.3754   -1.3536    4.6965 C.ar    1  UNL1       -0.0599
     27 C          -3.2163   -1.9113    3.4497 C.ar    1  UNL1       -0.0365
     28 C          -1.2539    0.8898   -1.6109 C.3     1  UNL1       -0.0269
     29 C          -2.6024    1.5840   -1.4892 C.3     1  UNL1       -0.0257
     30 C          -3.0760    2.0848   -2.7846 C.ar    1  UNL1       -0.0473
     31 C          -3.8330    1.2604   -3.5852 C.ar    1  UNL1       -0.0586
     32 C          -4.2990    1.7125   -4.8169 C.ar    1  UNL1       -0.0615
     33 C          -4.0265    2.9795   -5.2757 C.ar    1  UNL1       -0.0617
     34 C          -3.2594    3.8250   -4.4731 C.ar    1  UNL1       -0.0615
     35 C          -2.8131    3.3480   -3.2590 C.ar    1  UNL1       -0.0586
     36 H           3.2943   -3.4278   -1.0066 H       1  UNL1        0.0293
     37 H           1.9007   -2.9149   -0.0775 H       1  UNL1        0.0293
     38 H           2.1588   -2.2823   -1.7883 H       1  UNL1        0.0293
     39 H           6.9066    1.4111    1.0929 H       1  UNL1        0.0625
     40 H           9.3446    1.5961    1.5955 H       1  UNL1        0.0633
     41 H          10.8014   -0.4024    1.3382 H       1  UNL1        0.0829
     42 H           7.3760   -2.6572    0.1111 H       1  UNL1        0.0836
     43 H           0.4530   -1.2260   -0.6969 H       1  UNL1        0.1496
     44 H          -0.6389    1.3485    0.3495 H       1  UNL1        0.0543
     45 H          -2.0682   -0.2196    1.5486 H       1  UNL1        0.0603
     46 H          -2.4017   -1.5057   -1.1723 H       1  UNL1        0.0821
     47 H          -5.5599   -0.1675    1.8225 H       1  UNL1        0.0637
     48 H          -5.8501    0.8276    4.0392 H       1  UNL1        0.0618
     49 H          -4.4541    0.0806    5.8984 H       1  UNL1        0.0618
     50 H          -2.7705   -1.6595    5.5501 H       1  UNL1        0.0618
     51 H          -2.4779   -2.6782    3.2902 H       1  UNL1        0.0637
     52 H          -1.3070    0.0141   -2.2645 H       1  UNL1        0.0289
     53 H          -0.5601    1.6729   -1.9858 H       1  UNL1        0.0289
     54 H          -3.3371    1.0030   -0.9162 H       1  UNL1        0.0314
     55 H          -2.3863    2.4975   -0.8560 H       1  UNL1        0.0314
     56 H          -4.0878    0.2465   -3.2848 H       1  UNL1        0.0620
     57 H          -4.8994    1.0653   -5.4666 H       1  UNL1        0.0618
     58 H          -4.3968    3.3349   -6.2478 H       1  UNL1        0.0618
     59 H          -3.0505    4.8191   -4.8401 H       1  UNL1        0.0618
     60 H          -2.2228    4.0081   -2.6457 H       1  UNL1        0.0620
@<TRIPOS>BOND
     1     1     2    1
     2     2     3   ar
     3     3     4   ar
     4     4     5    1
     5     5     6   ar
     6     6     7   ar
     7     7     8   ar
     8     8     9   ar
     9     9    10   ar
    10     4    11   ar
    11    11    12   ar
    12    12    13    1
    13    13    14    2
    14    13    15   am
    15    15    16    1
    16    16    17    1
    17    17    18    2
    18    18    19    1
    19    19    20    2
    20    19    21    2
    21    19    22    1
    22    22    23   ar
    23    23    24   ar
    24    24    25   ar
    25    25    26   ar
    26    26    27   ar
    27    16    28    1
    28    28    29    1
    29    29    30    1
    30    30    31   ar
    31    31    32   ar
    32    32    33   ar
    33    33    34   ar
    34    34    35   ar
    35    12     2   ar
    36    27    22   ar
    37    35    30   ar
    38    10     5   ar
    39     1    36    1
    40     1    37    1
    41     1    38    1
    42     6    39    1
    43     7    40    1
    44     8    41    1
    45    10    42    1
    46    15    43    1
    47    16    44    1
    48    17    45    1
    49    18    46    1
    50    23    47    1
    51    24    48    1
    52    25    49    1
    53    26    50    1
    54    27    51    1
    55    28    52    1
    56    28    53    1
    57    29    54    1
    58    29    55    1
    59    31    56    1
    60    32    57    1
    61    33    58    1
    62    34    59    1
    63    35    60    1
