@<TRIPOS>MOLECULE
*****
 47 49 0 0 0
SMALL
GASTEIGER

@<TRIPOS>ATOM
      1 O          -0.1876    2.5806   -3.3886 O.2     1  UNL1        0.0416
      2 N          -0.6864    1.5402   -2.8474 N.pl3   1  UNL1        0.0848
      3 O          -1.9942    1.3249   -3.1575 O.co2   1  UNL1       -0.5759
      4 C           0.1313    0.7478   -2.0150 C.ar    1  UNL1        0.3303
      5 C           1.5011    0.7446   -2.2886 C.ar    1  UNL1        0.1117
      6 N           2.2893    0.0049   -1.5201 N.ar    1  UNL1       -0.2160
      7 C           1.9294   -0.7596   -0.4882 C.ar    1  UNL1        0.2175
      8 N           2.7858   -1.5362    0.3102 N.pl3   1  UNL1       -0.3093
      9 C           4.1752   -1.7260    0.2938 C.3     1  UNL1        0.0384
     10 C           5.0518   -0.5707    0.5057 C.ar    1  UNL1       -0.0120
     11 C           5.3392   -0.1823    1.8245 C.ar    1  UNL1       -0.0557
     12 C           6.0878    0.9269    2.1138 C.ar    1  UNL1       -0.0614
     13 C           6.5715    1.6830    1.0591 C.ar    1  UNL1       -0.0604
     14 C           6.3151    1.3387   -0.2436 C.ar    1  UNL1       -0.0431
     15 C           5.5585    0.2128   -0.4957 C.ar    1  UNL1        0.0456
     16 CL          5.3723   -0.2142   -2.2029 Cl      1  UNL1       -0.0832
     17 N           0.5851   -0.7484   -0.2291 N.ar    1  UNL1       -0.1928
     18 C          -0.2882   -0.0208   -0.9634 C.ar    1  UNL1        0.2018
     19 N          -1.6730   -0.0283   -0.6256 N.pl3   1  UNL1       -0.3233
     20 C          -2.1663   -0.8283    0.4751 C.3     1  UNL1        0.0135
     21 C          -3.6368   -0.6900    0.6823 C.3     1  UNL1       -0.0232
     22 C          -4.4384   -1.1135   -0.5357 C.3     1  UNL1       -0.0361
     23 C          -5.9036   -1.0658   -0.0742 C.3     1  UNL1       -0.0038
     24 N          -6.2089    0.3432    0.1158 N.3     1  UNL1       -0.3160
     25 C          -5.4669    0.9325    1.2025 C.3     1  UNL1       -0.0038
     26 C          -3.9848    0.7322    1.0242 C.3     1  UNL1       -0.0361
     27 H           1.8510    1.3492   -3.1176 H       1  UNL1        0.0901
     28 H           2.2662   -2.0956    1.0917 H       1  UNL1        0.1492
     29 H           4.4459   -2.5152    1.0651 H       1  UNL1        0.0512
     30 H           4.5333   -2.2160   -0.6734 H       1  UNL1        0.0512
     31 H           4.9605   -0.7738    2.6735 H       1  UNL1        0.0621
     32 H           6.3133    1.2298    3.1459 H       1  UNL1        0.0618
     33 H           7.1700    2.5706    1.3340 H       1  UNL1        0.0618
     34 H           6.6985    1.9364   -1.0549 H       1  UNL1        0.0632
     35 H          -2.3452    0.5324   -1.1451 H       1  UNL1        0.1477
     36 H          -1.6680   -0.5482    1.4342 H       1  UNL1        0.0464
     37 H          -1.9103   -1.9121    0.3287 H       1  UNL1        0.0464
     38 H          -3.9352   -1.3291    1.5277 H       1  UNL1        0.0317
     39 H          -4.2733   -0.4370   -1.3993 H       1  UNL1        0.0281
     40 H          -4.1889   -2.1666   -0.7753 H       1  UNL1        0.0281
     41 H          -6.5746   -1.4657   -0.8395 H       1  UNL1        0.0424
     42 H          -5.9437   -1.5919    0.8916 H       1  UNL1        0.0424
     43 H          -5.9378    0.8404   -0.7714 H       1  UNL1        0.1219
     44 H          -5.6385    2.0358    1.1379 H       1  UNL1        0.0424
     45 H          -5.7973    0.5564    2.1782 H       1  UNL1        0.0424
     46 H          -3.6107    1.3794    0.2104 H       1  UNL1        0.0281
     47 H          -3.4733    0.9921    1.9773 H       1  UNL1        0.0281
@<TRIPOS>UNITY_ATOM_ATTR
2 1
charge 1
3 1
charge -1
@<TRIPOS>BOND
     1     1     2    2
     2     2     3    1
     3     2     4    1
     4     4     5   ar
     5     5     6   ar
     6     6     7   ar
     7     7     8    1
     8     8     9    1
     9     9    10    1
    10    10    11   ar
    11    11    12   ar
    12    12    13   ar
    13    13    14   ar
    14    14    15   ar
    15    15    16    1
    16     7    17   ar
    17    17    18   ar
    18    18    19    1
    19    19    20    1
    20    20    21    1
    21    21    22    1
    22    22    23    1
    23    23    24    1
    24    24    25    1
    25    25    26    1
    26    18     4   ar
    27    26    21    1
    28    15    10   ar
    29     5    27    1
    30     8    28    1
    31     9    29    1
    32     9    30    1
    33    11    31    1
    34    12    32    1
    35    13    33    1
    36    14    34    1
    37    19    35    1
    38    20    36    1
    39    20    37    1
    40    21    38    1
    41    22    39    1
    42    22    40    1
    43    23    41    1
    44    23    42    1
    45    24    43    1
    46    25    44    1
    47    25    45    1
    48    26    46    1
    49    26    47    1
