@<TRIPOS>MOLECULE
*****
 101 107 0 0 0
SMALL
GASTEIGER

@<TRIPOS>ATOM
      1 C           7.5661    3.5784   -3.9637 C.3     1  UNL1        0.0789
      2 O           6.3297    3.1836   -3.4205 O.3     1  UNL1       -0.4932
      3 C           6.1490    2.2461   -2.4254 C.ar    1  UNL1        0.1419
      4 C           7.1935    1.5813   -1.8301 C.ar    1  UNL1       -0.0060
      5 C           7.0176    0.6604   -0.8508 C.ar    1  UNL1        0.0403
      6 C           8.0704   -0.0763   -0.1546 C.2     1  UNL1        0.2442
      7 O           7.7554   -0.9188    0.7065 O.2     1  UNL1       -0.2702
      8 N           9.4284    0.1275   -0.4163 N.am    1  UNL1       -0.3101
      9 C          10.5659   -0.5124    0.1839 C.3     1  UNL1        0.0247
     10 C          10.6916   -1.9733    0.0439 C.3     1  UNL1        0.0146
     11 N           9.7392   -2.8315    0.6254 N.3     1  UNL1       -0.2965
     12 C           9.7177   -2.9348    2.0462 C.3     1  UNL1        0.0225
     13 C          10.9517   -3.6049    2.5490 C.3     1  UNL1        0.0604
     14 O          10.9390   -4.9364    2.1078 O.3     1  UNL1       -0.3772
     15 C          11.0755   -4.8960    0.7232 C.3     1  UNL1        0.0604
     16 C           9.9322   -4.1613    0.0651 C.3     1  UNL1        0.0225
     17 C           5.7010    0.4091   -0.4637 C.ar    1  UNL1       -0.0477
     18 C           4.6201    1.0549   -1.0363 C.ar    1  UNL1       -0.0362
     19 C           4.8419    1.9770   -2.0202 C.ar    1  UNL1        0.0758
     20 N           3.7519    2.6538   -2.6076 N.pl3   1  UNL1       -0.2806
     21 C           2.4213    2.3185   -2.2286 C.ar    1  UNL1        0.2226
     22 N           1.7004    1.4393   -2.9875 N.ar    1  UNL1       -0.2225
     23 C           0.4422    1.1015   -2.6898 C.ar    1  UNL1        0.0362
     24 C          -0.1709    1.6445   -1.5844 C.ar    1  UNL1        0.0186
     25 C           0.5550    2.5372   -0.8082 C.ar    1  UNL1        0.2249
     26 O          -0.0362    3.1120    0.3404 O.3     1  UNL1       -0.4373
     27 C          -1.3826    2.8759    0.6283 C.ar    1  UNL1        0.1381
     28 C          -1.7569    2.1364    1.7210 C.ar    1  UNL1       -0.0169
     29 C          -3.1188    1.9327    1.9658 C.ar    1  UNL1       -0.0363
     30 C          -4.0793    2.4527    1.1450 C.ar    1  UNL1        0.0427
     31 N          -5.4405    2.2434    1.4149 N.am    1  UNL1       -0.2686
     32 C          -6.1216    1.1334    0.8476 C.2     1  UNL1        0.3092
     33 O          -5.5441    0.2977    0.1091 O.2     1  UNL1       -0.2521
     34 N          -7.5153    0.9186    1.0937 N.am    1  UNL1       -0.2538
     35 C          -8.2689   -0.1501    0.5447 C.ar    1  UNL1        0.1299
     36 C          -8.8740   -0.0300   -0.7088 C.ar    1  UNL1        0.0018
     37 C          -9.5428   -1.2109   -0.9617 C.ar    1  UNL1        0.0679
     38 C         -10.3214   -1.4747   -2.2228 C.3     1  UNL1       -0.0025
     39 C          -9.3641   -1.3473   -3.3904 C.3     1  UNL1       -0.0572
     40 C         -11.3378   -0.3453   -2.3954 C.3     1  UNL1       -0.0572
     41 N          -9.3376   -1.9831    0.0932 N.ar    1  UNL1       -0.1694
     42 N          -8.5744   -1.3585    1.0053 N.ar    1  UNL1       -0.2181
     43 C          -8.1713   -1.8901    2.2530 C.ar    1  UNL1        0.0674
     44 C          -8.2813   -1.1534    3.4029 C.ar    1  UNL1       -0.0359
     45 C          -7.8957   -1.6644    4.6406 C.ar    1  UNL1       -0.0568
     46 C          -7.3867   -2.9459    4.7276 C.ar    1  UNL1       -0.0503
     47 C          -6.9736   -3.5153    6.0578 C.3     1  UNL1       -0.0397
     48 C          -7.2755   -3.6847    3.5790 C.ar    1  UNL1       -0.0568
     49 C          -7.6643   -3.1624    2.3506 C.ar    1  UNL1       -0.0359
     50 C          -3.6649    3.1965    0.0495 C.ar    1  UNL1        0.0069
     51 C          -4.6241    3.7350   -0.7653 C.ar    1  UNL1       -0.0521
     52 C          -4.2450    4.5023   -1.8612 C.ar    1  UNL1       -0.0611
     53 C          -2.9126    4.7279   -2.1379 C.ar    1  UNL1       -0.0611
     54 C          -1.9236    4.1795   -1.3087 C.ar    1  UNL1       -0.0505
     55 C          -2.3328    3.4278   -0.2384 C.ar    1  UNL1        0.0262
     56 N           1.8074    2.8310   -1.1630 N.ar    1  UNL1       -0.1789
     57 H           8.0441    4.4329   -3.4881 H       1  UNL1        0.0660
     58 H           8.3053    2.7474   -3.9773 H       1  UNL1        0.0660
     59 H           7.3737    3.8060   -5.0558 H       1  UNL1        0.0660
     60 H           8.2250    1.7995   -2.1602 H       1  UNL1        0.0662
     61 H           9.6271    0.8732   -1.1773 H       1  UNL1        0.1490
     62 H          10.6801   -0.1597    1.2476 H       1  UNL1        0.0475
     63 H          11.4868   -0.0690   -0.3060 H       1  UNL1        0.0475
     64 H          10.6695   -2.1919   -1.0781 H       1  UNL1        0.0442
     65 H          11.7317   -2.3072    0.3178 H       1  UNL1        0.0442
     66 H           9.4989   -1.9731    2.5592 H       1  UNL1        0.0449
     67 H           8.8469   -3.6052    2.3130 H       1  UNL1        0.0449
     68 H          11.8623   -3.1346    2.1650 H       1  UNL1        0.0572
     69 H          10.9385   -3.6505    3.6640 H       1  UNL1        0.0572
     70 H          12.0534   -4.4629    0.4989 H       1  UNL1        0.0572
     71 H          11.0597   -5.9365    0.3566 H       1  UNL1        0.0572
     72 H           9.0216   -4.7963    0.1610 H       1  UNL1        0.0449
     73 H          10.1794   -4.0242   -1.0059 H       1  UNL1        0.0449
     74 H           5.4839   -0.3044    0.3043 H       1  UNL1        0.0626
     75 H           3.6000    0.8316   -0.7043 H       1  UNL1        0.0637
     76 H           3.9476    3.4015   -3.3225 H       1  UNL1        0.1551
     77 H          -0.1222    0.3962   -3.3068 H       1  UNL1        0.0832
     78 H          -1.1880    1.3932   -1.3108 H       1  UNL1        0.0686
     79 H          -1.0343    1.7076    2.3960 H       1  UNL1        0.0655
     80 H          -3.3704    1.3327    2.8522 H       1  UNL1        0.0637
     81 H          -5.9385    2.9287    2.0431 H       1  UNL1        0.1564
     82 H          -8.0413    1.6002    1.7170 H       1  UNL1        0.1578
     83 H          -8.8200    0.8422   -1.3578 H       1  UNL1        0.0671
     84 H         -10.8141   -2.4352   -2.2082 H       1  UNL1        0.0359
     85 H          -8.6077   -0.5846   -3.1631 H       1  UNL1        0.0236
     86 H          -8.8831   -2.2861   -3.6737 H       1  UNL1        0.0236
     87 H          -9.9728   -1.0132   -4.2647 H       1  UNL1        0.0236
     88 H         -10.7331    0.5557   -2.7193 H       1  UNL1        0.0236
     89 H         -12.0613   -0.5920   -3.1956 H       1  UNL1        0.0236
     90 H         -11.8259   -0.0569   -1.4540 H       1  UNL1        0.0236
     91 H          -8.6823   -0.1438    3.3336 H       1  UNL1        0.0639
     92 H          -7.9856   -1.0713    5.5513 H       1  UNL1        0.0621
     93 H          -7.8945   -4.0300    6.4662 H       1  UNL1        0.0278
     94 H          -6.1871   -4.2737    5.9208 H       1  UNL1        0.0278
     95 H          -6.6793   -2.7138    6.7528 H       1  UNL1        0.0278
     96 H          -6.8718   -4.7032    3.6464 H       1  UNL1        0.0621
     97 H          -7.5713   -3.7567    1.4381 H       1  UNL1        0.0639
     98 H          -5.6641    3.5521   -0.5410 H       1  UNL1        0.0624
     99 H          -5.0184    4.9286   -2.5063 H       1  UNL1        0.0618
    100 H          -2.6124    5.3208   -2.9841 H       1  UNL1        0.0618
    101 H          -0.8821    4.3719   -1.5181 H       1  UNL1        0.0625
@<TRIPOS>BOND
     1     1     2    1
     2     2     3    1
     3     3     4   ar
     4     4     5   ar
     5     5     6    1
     6     6     7    2
     7     6     8   am
     8     8     9    1
     9     9    10    1
    10    10    11    1
    11    11    12    1
    12    12    13    1
    13    13    14    1
    14    14    15    1
    15    15    16    1
    16     5    17   ar
    17    17    18   ar
    18    18    19   ar
    19    19    20    1
    20    20    21    1
    21    21    22   ar
    22    22    23   ar
    23    23    24   ar
    24    24    25   ar
    25    25    26    1
    26    26    27    1
    27    27    28   ar
    28    28    29   ar
    29    29    30   ar
    30    30    31    1
    31    31    32   am
    32    32    33    2
    33    32    34   am
    34    34    35    1
    35    35    36   ar
    36    36    37   ar
    37    37    38    1
    38    38    39    1
    39    38    40    1
    40    37    41   ar
    41    41    42   ar
    42    42    43    1
    43    43    44   ar
    44    44    45   ar
    45    45    46   ar
    46    46    47    1
    47    46    48   ar
    48    48    49   ar
    49    30    50   ar
    50    50    51   ar
    51    51    52   ar
    52    52    53   ar
    53    53    54   ar
    54    54    55   ar
    55    25    56   ar
    56    19     3   ar
    57    56    21   ar
    58    16    11    1
    59    55    27   ar
    60    42    35   ar
    61    49    43   ar
    62    55    50   ar
    63     1    57    1
    64     1    58    1
    65     1    59    1
    66     4    60    1
    67     8    61    1
    68     9    62    1
    69     9    63    1
    70    10    64    1
    71    10    65    1
    72    12    66    1
    73    12    67    1
    74    13    68    1
    75    13    69    1
    76    15    70    1
    77    15    71    1
    78    16    72    1
    79    16    73    1
    80    17    74    1
    81    18    75    1
    82    20    76    1
    83    23    77    1
    84    24    78    1
    85    28    79    1
    86    29    80    1
    87    31    81    1
    88    34    82    1
    89    36    83    1
    90    38    84    1
    91    39    85    1
    92    39    86    1
    93    39    87    1
    94    40    88    1
    95    40    89    1
    96    40    90    1
    97    44    91    1
    98    45    92    1
    99    47    93    1
   100    47    94    1
   101    47    95    1
   102    48    96    1
   103    49    97    1
   104    51    98    1
   105    52    99    1
   106    53   100    1
   107    54   101    1
