
     RDKit          3D

101107  0  0  0  0  0  0  0  0999 V2000
    7.5661    3.5784   -3.9637 C   0  0  0  0  0  0  0  0  0  0  0  0
    6.3297    3.1836   -3.4205 O   0  0  0  0  0  0  0  0  0  0  0  0
    6.1490    2.2461   -2.4254 C   0  0  0  0  0  0  0  0  0  0  0  0
    7.1935    1.5813   -1.8301 C   0  0  0  0  0  0  0  0  0  0  0  0
    7.0176    0.6604   -0.8508 C   0  0  0  0  0  0  0  0  0  0  0  0
    8.0704   -0.0763   -0.1546 C   0  0  0  0  0  0  0  0  0  0  0  0
    7.7554   -0.9188    0.7065 O   0  0  0  0  0  0  0  0  0  0  0  0
    9.4284    0.1275   -0.4163 N   0  0  0  0  0  0  0  0  0  0  0  0
   10.5659   -0.5124    0.1839 C   0  0  0  0  0  0  0  0  0  0  0  0
   10.6916   -1.9733    0.0439 C   0  0  0  0  0  0  0  0  0  0  0  0
    9.7392   -2.8315    0.6254 N   0  0  0  0  0  0  0  0  0  0  0  0
    9.7177   -2.9348    2.0462 C   0  0  0  0  0  0  0  0  0  0  0  0
   10.9517   -3.6049    2.5490 C   0  0  0  0  0  0  0  0  0  0  0  0
   10.9390   -4.9364    2.1078 O   0  0  0  0  0  0  0  0  0  0  0  0
   11.0755   -4.8960    0.7232 C   0  0  0  0  0  0  0  0  0  0  0  0
    9.9322   -4.1613    0.0651 C   0  0  0  0  0  0  0  0  0  0  0  0
    5.7010    0.4091   -0.4637 C   0  0  0  0  0  0  0  0  0  0  0  0
    4.6201    1.0549   -1.0363 C   0  0  0  0  0  0  0  0  0  0  0  0
    4.8419    1.9770   -2.0202 C   0  0  0  0  0  0  0  0  0  0  0  0
    3.7519    2.6538   -2.6076 N   0  0  0  0  0  0  0  0  0  0  0  0
    2.4213    2.3185   -2.2286 C   0  0  0  0  0  0  0  0  0  0  0  0
    1.7004    1.4393   -2.9875 N   0  0  0  0  0  0  0  0  0  0  0  0
    0.4422    1.1015   -2.6898 C   0  0  0  0  0  0  0  0  0  0  0  0
   -0.1709    1.6445   -1.5844 C   0  0  0  0  0  0  0  0  0  0  0  0
    0.5550    2.5372   -0.8082 C   0  0  0  0  0  0  0  0  0  0  0  0
   -0.0362    3.1120    0.3404 O   0  0  0  0  0  0  0  0  0  0  0  0
   -1.3826    2.8759    0.6283 C   0  0  0  0  0  0  0  0  0  0  0  0
   -1.7569    2.1364    1.7210 C   0  0  0  0  0  0  0  0  0  0  0  0
   -3.1188    1.9327    1.9658 C   0  0  0  0  0  0  0  0  0  0  0  0
   -4.0793    2.4527    1.1450 C   0  0  0  0  0  0  0  0  0  0  0  0
   -5.4405    2.2434    1.4149 N   0  0  0  0  0  0  0  0  0  0  0  0
   -6.1216    1.1334    0.8476 C   0  0  0  0  0  0  0  0  0  0  0  0
   -5.5441    0.2977    0.1091 O   0  0  0  0  0  0  0  0  0  0  0  0
   -7.5153    0.9186    1.0937 N   0  0  0  0  0  0  0  0  0  0  0  0
   -8.2689   -0.1501    0.5447 C   0  0  0  0  0  0  0  0  0  0  0  0
   -8.8740   -0.0300   -0.7088 C   0  0  0  0  0  0  0  0  0  0  0  0
   -9.5428   -1.2109   -0.9617 C   0  0  0  0  0  0  0  0  0  0  0  0
  -10.3214   -1.4747   -2.2228 C   0  0  0  0  0  0  0  0  0  0  0  0
   -9.3641   -1.3473   -3.3904 C   0  0  0  0  0  0  0  0  0  0  0  0
  -11.3378   -0.3453   -2.3954 C   0  0  0  0  0  0  0  0  0  0  0  0
   -9.3376   -1.9831    0.0932 N   0  0  0  0  0  0  0  0  0  0  0  0
   -8.5744   -1.3585    1.0053 N   0  0  0  0  0  0  0  0  0  0  0  0
   -8.1713   -1.8901    2.2530 C   0  0  0  0  0  0  0  0  0  0  0  0
   -8.2813   -1.1534    3.4029 C   0  0  0  0  0  0  0  0  0  0  0  0
   -7.8957   -1.6644    4.6406 C   0  0  0  0  0  0  0  0  0  0  0  0
   -7.3867   -2.9459    4.7276 C   0  0  0  0  0  0  0  0  0  0  0  0
   -6.9736   -3.5153    6.0578 C   0  0  0  0  0  0  0  0  0  0  0  0
   -7.2755   -3.6847    3.5790 C   0  0  0  0  0  0  0  0  0  0  0  0
   -7.6643   -3.1624    2.3506 C   0  0  0  0  0  0  0  0  0  0  0  0
   -3.6649    3.1965    0.0495 C   0  0  0  0  0  0  0  0  0  0  0  0
   -4.6241    3.7350   -0.7653 C   0  0  0  0  0  0  0  0  0  0  0  0
   -4.2450    4.5023   -1.8612 C   0  0  0  0  0  0  0  0  0  0  0  0
   -2.9126    4.7279   -2.1379 C   0  0  0  0  0  0  0  0  0  0  0  0
   -1.9236    4.1795   -1.3087 C   0  0  0  0  0  0  0  0  0  0  0  0
   -2.3328    3.4278   -0.2384 C   0  0  0  0  0  0  0  0  0  0  0  0
    1.8074    2.8310   -1.1630 N   0  0  0  0  0  0  0  0  0  0  0  0
    8.0441    4.4329   -3.4881 H   0  0  0  0  0  0  0  0  0  0  0  0
    8.3053    2.7474   -3.9773 H   0  0  0  0  0  0  0  0  0  0  0  0
    7.3737    3.8060   -5.0558 H   0  0  0  0  0  0  0  0  0  0  0  0
    8.2250    1.7995   -2.1602 H   0  0  0  0  0  0  0  0  0  0  0  0
    9.6271    0.8732   -1.1773 H   0  0  0  0  0  0  0  0  0  0  0  0
   10.6801   -0.1597    1.2476 H   0  0  0  0  0  0  0  0  0  0  0  0
   11.4868   -0.0690   -0.3060 H   0  0  0  0  0  0  0  0  0  0  0  0
   10.6695   -2.1919   -1.0781 H   0  0  0  0  0  0  0  0  0  0  0  0
   11.7317   -2.3072    0.3178 H   0  0  0  0  0  0  0  0  0  0  0  0
    9.4989   -1.9731    2.5592 H   0  0  0  0  0  0  0  0  0  0  0  0
    8.8469   -3.6052    2.3130 H   0  0  0  0  0  0  0  0  0  0  0  0
   11.8623   -3.1346    2.1650 H   0  0  0  0  0  0  0  0  0  0  0  0
   10.9385   -3.6505    3.6640 H   0  0  0  0  0  0  0  0  0  0  0  0
   12.0534   -4.4629    0.4989 H   0  0  0  0  0  0  0  0  0  0  0  0
   11.0597   -5.9365    0.3566 H   0  0  0  0  0  0  0  0  0  0  0  0
    9.0216   -4.7963    0.1610 H   0  0  0  0  0  0  0  0  0  0  0  0
   10.1794   -4.0242   -1.0059 H   0  0  0  0  0  0  0  0  0  0  0  0
    5.4839   -0.3044    0.3043 H   0  0  0  0  0  0  0  0  0  0  0  0
    3.6000    0.8316   -0.7043 H   0  0  0  0  0  0  0  0  0  0  0  0
    3.9476    3.4015   -3.3225 H   0  0  0  0  0  0  0  0  0  0  0  0
   -0.1222    0.3962   -3.3068 H   0  0  0  0  0  0  0  0  0  0  0  0
   -1.1880    1.3932   -1.3108 H   0  0  0  0  0  0  0  0  0  0  0  0
   -1.0343    1.7076    2.3960 H   0  0  0  0  0  0  0  0  0  0  0  0
   -3.3704    1.3327    2.8522 H   0  0  0  0  0  0  0  0  0  0  0  0
   -5.9385    2.9287    2.0431 H   0  0  0  0  0  0  0  0  0  0  0  0
   -8.0413    1.6002    1.7170 H   0  0  0  0  0  0  0  0  0  0  0  0
   -8.8200    0.8422   -1.3578 H   0  0  0  0  0  0  0  0  0  0  0  0
  -10.8141   -2.4352   -2.2082 H   0  0  0  0  0  0  0  0  0  0  0  0
   -8.6077   -0.5846   -3.1631 H   0  0  0  0  0  0  0  0  0  0  0  0
   -8.8831   -2.2861   -3.6737 H   0  0  0  0  0  0  0  0  0  0  0  0
   -9.9728   -1.0132   -4.2647 H   0  0  0  0  0  0  0  0  0  0  0  0
  -10.7331    0.5557   -2.7193 H   0  0  0  0  0  0  0  0  0  0  0  0
  -12.0613   -0.5920   -3.1956 H   0  0  0  0  0  0  0  0  0  0  0  0
  -11.8259   -0.0569   -1.4540 H   0  0  0  0  0  0  0  0  0  0  0  0
   -8.6823   -0.1438    3.3336 H   0  0  0  0  0  0  0  0  0  0  0  0
   -7.9856   -1.0713    5.5513 H   0  0  0  0  0  0  0  0  0  0  0  0
   -7.8945   -4.0300    6.4662 H   0  0  0  0  0  0  0  0  0  0  0  0
   -6.1871   -4.2737    5.9208 H   0  0  0  0  0  0  0  0  0  0  0  0
   -6.6793   -2.7138    6.7528 H   0  0  0  0  0  0  0  0  0  0  0  0
   -6.8718   -4.7032    3.6464 H   0  0  0  0  0  0  0  0  0  0  0  0
   -7.5713   -3.7567    1.4381 H   0  0  0  0  0  0  0  0  0  0  0  0
   -5.6641    3.5521   -0.5410 H   0  0  0  0  0  0  0  0  0  0  0  0
   -5.0184    4.9286   -2.5063 H   0  0  0  0  0  0  0  0  0  0  0  0
   -2.6124    5.3208   -2.9841 H   0  0  0  0  0  0  0  0  0  0  0  0
   -0.8821    4.3719   -1.5181 H   0  0  0  0  0  0  0  0  0  0  0  0
  1  2  1  0
  2  3  1  0
  3  4  2  0
  4  5  1  0
  5  6  1  0
  6  7  2  0
  6  8  1  0
  8  9  1  0
  9 10  1  0
 10 11  1  0
 11 12  1  0
 12 13  1  0
 13 14  1  0
 14 15  1  0
 15 16  1  0
  5 17  2  0
 17 18  1  0
 18 19  2  0
 19 20  1  0
 20 21  1  0
 21 22  2  0
 22 23  1  0
 23 24  2  0
 24 25  1  0
 25 26  1  0
 26 27  1  0
 27 28  2  0
 28 29  1  0
 29 30  2  0
 30 31  1  0
 31 32  1  0
 32 33  2  0
 32 34  1  0
 34 35  1  0
 35 36  2  0
 36 37  1  0
 37 38  1  0
 38 39  1  0
 38 40  1  0
 37 41  2  0
 41 42  1  0
 42 43  1  0
 43 44  2  0
 44 45  1  0
 45 46  2  0
 46 47  1  0
 46 48  1  0
 48 49  2  0
 30 50  1  0
 50 51  2  0
 51 52  1  0
 52 53  2  0
 53 54  1  0
 54 55  2  0
 25 56  2  0
 19  3  1  0
 56 21  1  0
 16 11  1  0
 55 27  1  0
 42 35  1  0
 49 43  1  0
 55 50  1  0
  1 57  1  0
  1 58  1  0
  1 59  1  0
  4 60  1  0
  8 61  1  0
  9 62  1  0
  9 63  1  0
 10 64  1  0
 10 65  1  0
 12 66  1  0
 12 67  1  0
 13 68  1  0
 13 69  1  0
 15 70  1  0
 15 71  1  0
 16 72  1  0
 16 73  1  0
 17 74  1  0
 18 75  1  0
 20 76  1  0
 23 77  1  0
 24 78  1  0
 28 79  1  0
 29 80  1  0
 31 81  1  0
 34 82  1  0
 36 83  1  0
 38 84  1  0
 39 85  1  0
 39 86  1  0
 39 87  1  0
 40 88  1  0
 40 89  1  0
 40 90  1  0
 44 91  1  0
 45 92  1  0
 47 93  1  0
 47 94  1  0
 47 95  1  0
 48 96  1  0
 49 97  1  0
 51 98  1  0
 52 99  1  0
 53100  1  0
 54101  1  0
M  END
$$$$
