
     RDKit          3D

 26 27  0  0  0  0  0  0  0  0999 V2000
   -1.3465   -1.3640   -0.9527 C   0  0  0  0  0  0  0  0  0  0  0  0
   -1.3090   -0.2683   -0.0394 N   0  0  0  0  0  0  0  0  0  0  0  0
   -0.1914    0.3127    0.3528 N   0  0  0  0  0  0  0  0  0  0  0  0
   -0.5264    1.3137    1.2183 C   0  0  0  0  0  0  0  0  0  0  0  0
    0.2010    2.1429    1.8509 O   0  0  0  0  0  0  0  0  0  0  0  0
   -1.8973    1.3410    1.3564 C   0  0  0  0  0  0  0  0  0  0  0  0
   -2.3679    0.3435    0.5615 C   0  0  0  0  0  0  0  0  0  0  0  0
   -3.8042    0.0016    0.3962 C   0  0  0  0  0  0  0  0  0  0  0  0
    1.1773    0.0765    0.0401 C   0  0  0  0  0  0  0  0  0  0  0  0
    2.0316    1.1702   -0.1574 C   0  0  0  0  0  0  0  0  0  0  0  0
    3.3753    1.0701   -0.4647 C   0  0  0  0  0  0  0  0  0  0  0  0
    3.9216   -0.1769   -0.5873 C   0  0  0  0  0  0  0  0  0  0  0  0
    3.1170   -1.2698   -0.4011 C   0  0  0  0  0  0  0  0  0  0  0  0
    1.7773   -1.1586   -0.0948 C   0  0  0  0  0  0  0  0  0  0  0  0
   -2.4114   -1.4894   -1.3139 H   0  0  0  0  0  0  0  0  0  0  0  0
   -0.7805   -1.2196   -1.8929 H   0  0  0  0  0  0  0  0  0  0  0  0
   -1.1572   -2.3692   -0.4754 H   0  0  0  0  0  0  0  0  0  0  0  0
   -2.5059    2.0171    1.9732 H   0  0  0  0  0  0  0  0  0  0  0  0
   -3.9774   -0.9735   -0.0648 H   0  0  0  0  0  0  0  0  0  0  0  0
   -4.3624    0.0348    1.3496 H   0  0  0  0  0  0  0  0  0  0  0  0
   -4.2040    0.7690   -0.3097 H   0  0  0  0  0  0  0  0  0  0  0  0
    1.5922    2.1604   -0.0588 H   0  0  0  0  0  0  0  0  0  0  0  0
    3.9368    1.9887   -0.5949 H   0  0  0  0  0  0  0  0  0  0  0  0
    4.9739   -0.1950   -0.8280 H   0  0  0  0  0  0  0  0  0  0  0  0
    3.5795   -2.2431   -0.5051 H   0  0  0  0  0  0  0  0  0  0  0  0
    1.1580   -2.0149    0.0485 H   0  0  0  0  0  0  0  0  0  0  0  0
  1  2  1  0
  2  3  1  0
  3  4  1  0
  4  5  2  0
  4  6  1  0
  6  7  2  0
  7  8  1  0
  3  9  1  0
  9 10  2  0
 10 11  1  0
 11 12  2  0
 12 13  1  0
 13 14  2  0
  7  2  1  0
 14  9  1  0
  1 15  1  0
  1 16  1  0
  1 17  1  0
  6 18  1  0
  8 19  1  0
  8 20  1  0
  8 21  1  0
 10 22  1  0
 11 23  1  0
 12 24  1  0
 13 25  1  0
 14 26  1  0
M  END
$$$$
