
     RDKit          3D

 27 28  0  0  0  0  0  0  0  0999 V2000
    1.4952   -0.9845    2.1644 O   0  0  0  0  0  0  0  0  0  0  0  0
    1.4656   -0.4133    1.0588 C   0  0  0  0  0  0  0  0  0  0  0  0
    0.1580   -0.2173    0.4059 C   0  0  0  0  0  0  0  0  0  0  0  0
   -0.9526   -0.6197    0.9460 C   0  0  0  0  0  0  0  0  0  0  0  0
   -2.2430   -0.4253    0.2997 C   0  0  0  0  0  0  0  0  0  0  0  0
   -3.4087   -0.8855    0.9396 C   0  0  0  0  0  0  0  0  0  0  0  0
   -4.6350   -0.7155    0.3539 C   0  0  0  0  0  0  0  0  0  0  0  0
   -4.7716   -0.0855   -0.8875 C   0  0  0  0  0  0  0  0  0  0  0  0
   -3.6460    0.3734   -1.5334 C   0  0  0  0  0  0  0  0  0  0  0  0
   -2.4245    0.1816   -0.9065 C   0  0  0  0  0  0  0  0  0  0  0  0
    2.7165    0.0365    0.4569 C   0  0  0  0  0  0  0  0  0  0  0  0
    2.7972    0.6782   -0.7610 C   0  0  0  0  0  0  0  0  0  0  0  0
    3.9942    1.0981   -1.3166 C   0  0  0  0  0  0  0  0  0  0  0  0
    5.1354    0.8485   -0.5957 C   0  0  0  0  0  0  0  0  0  0  0  0
    5.0877    0.2256    0.5928 N   0  0  0  0  0  0  0  0  0  0  0  0
    3.9272   -0.1754    1.1198 C   0  0  0  0  0  0  0  0  0  0  0  0
    0.1465    0.2777   -0.5494 H   0  0  0  0  0  0  0  0  0  0  0  0
   -0.8900   -1.1151    1.9126 H   0  0  0  0  0  0  0  0  0  0  0  0
   -3.2915   -1.3684    1.8937 H   0  0  0  0  0  0  0  0  0  0  0  0
   -5.5089   -1.0865    0.8836 H   0  0  0  0  0  0  0  0  0  0  0  0
   -5.7669    0.0039   -1.2694 H   0  0  0  0  0  0  0  0  0  0  0  0
   -3.7617    0.8580   -2.4903 H   0  0  0  0  0  0  0  0  0  0  0  0
   -1.5626    0.5654   -1.4634 H   0  0  0  0  0  0  0  0  0  0  0  0
    1.8744    0.8709   -1.3263 H   0  0  0  0  0  0  0  0  0  0  0  0
    4.0757    1.5984   -2.2623 H   0  0  0  0  0  0  0  0  0  0  0  0
    6.0999    1.1482   -0.9692 H   0  0  0  0  0  0  0  0  0  0  0  0
    3.8896   -0.6724    2.0684 H   0  0  0  0  0  0  0  0  0  0  0  0
  1  2  2  0
  2  3  1  0
  3  4  2  0
  4  5  1  0
  5  6  2  0
  6  7  1  0
  7  8  2  0
  8  9  1  0
  9 10  2  0
  2 11  1  0
 11 12  2  0
 12 13  1  0
 13 14  2  0
 14 15  1  0
 15 16  2  0
 10  5  1  0
 16 11  1  0
  3 17  1  0
  4 18  1  0
  6 19  1  0
  7 20  1  0
  8 21  1  0
  9 22  1  0
 10 23  1  0
 12 24  1  0
 13 25  1  0
 14 26  1  0
 16 27  1  0
M  END
$$$$
