@<TRIPOS>MOLECULE
*****
 27 28 0 0 0
SMALL
GASTEIGER

@<TRIPOS>ATOM
      1 O           1.4952   -0.9845    2.1644 O.2     1  UNL1       -0.2872
      2 C           1.4656   -0.4133    1.0588 C.2     1  UNL1        0.1875
      3 C           0.1580   -0.2173    0.4059 C.2     1  UNL1       -0.0137
      4 C          -0.9526   -0.6197    0.9460 C.2     1  UNL1       -0.0510
      5 C          -2.2430   -0.4253    0.2997 C.ar    1  UNL1       -0.0249
      6 C          -3.4087   -0.8855    0.9396 C.ar    1  UNL1       -0.0546
      7 C          -4.6350   -0.7155    0.3539 C.ar    1  UNL1       -0.0612
      8 C          -4.7716   -0.0855   -0.8875 C.ar    1  UNL1       -0.0617
      9 C          -3.6460    0.3734   -1.5334 C.ar    1  UNL1       -0.0612
     10 C          -2.4245    0.1816   -0.9065 C.ar    1  UNL1       -0.0546
     11 C           2.7165    0.0365    0.4569 C.ar    1  UNL1        0.0397
     12 C           2.7972    0.6782   -0.7610 C.ar    1  UNL1       -0.0480
     13 C           3.9942    1.0981   -1.3166 C.ar    1  UNL1       -0.0429
     14 C           5.1354    0.8485   -0.5957 C.ar    1  UNL1        0.0276
     15 N           5.0877    0.2256    0.5928 N.ar    1  UNL1       -0.2626
     16 C           3.9272   -0.1754    1.1198 C.ar    1  UNL1        0.0383
     17 H           0.1465    0.2777   -0.5494 H       1  UNL1        0.0656
     18 H          -0.8900   -1.1151    1.9126 H       1  UNL1        0.0625
     19 H          -3.2915   -1.3684    1.8937 H       1  UNL1        0.0623
     20 H          -5.5089   -1.0865    0.8836 H       1  UNL1        0.0618
     21 H          -5.7669    0.0039   -1.2694 H       1  UNL1        0.0618
     22 H          -3.7617    0.8580   -2.4903 H       1  UNL1        0.0618
     23 H          -1.5626    0.5654   -1.4634 H       1  UNL1        0.0623
     24 H           1.8744    0.8709   -1.3263 H       1  UNL1        0.0626
     25 H           4.0757    1.5984   -2.2623 H       1  UNL1        0.0633
     26 H           6.0999    1.1482   -0.9692 H       1  UNL1        0.0829
     27 H           3.8896   -0.6724    2.0684 H       1  UNL1        0.0837
@<TRIPOS>BOND
     1     1     2    2
     2     2     3    1
     3     3     4    2
     4     4     5    1
     5     5     6   ar
     6     6     7   ar
     7     7     8   ar
     8     8     9   ar
     9     9    10   ar
    10     2    11    1
    11    11    12   ar
    12    12    13   ar
    13    13    14   ar
    14    14    15   ar
    15    15    16   ar
    16    10     5   ar
    17    16    11   ar
    18     3    17    1
    19     4    18    1
    20     6    19    1
    21     7    20    1
    22     8    21    1
    23     9    22    1
    24    10    23    1
    25    12    24    1
    26    13    25    1
    27    14    26    1
    28    16    27    1
