@<TRIPOS>MOLECULE
*****
 30 31 0 0 0
SMALL
GASTEIGER

@<TRIPOS>ATOM
      1 C           5.6605    1.0235   -0.7807 C.3     1  UNL1       -0.0037
      2 C           4.2923    0.7540   -0.2482 C.ar    1  UNL1        0.1350
      3 C           3.5137   -0.3775   -0.5206 C.ar    1  UNL1        0.0125
      4 C           2.3421   -0.1932    0.1796 C.ar    1  UNL1        0.1690
      5 N           2.4500    0.9819    0.8164 N.ar    1  UNL1       -0.0734
      6 O           3.6076    1.5269    0.5522 O.2     1  UNL1       -0.3592
      7 C           1.2483   -1.1548    0.1664 C.2     1  UNL1        0.2792
      8 O           1.3916   -2.1989   -0.5202 O.2     1  UNL1       -0.2671
      9 N           0.0439   -0.9151    0.9158 N.am    1  UNL1       -0.2453
     10 N          -0.8760   -1.9520    0.7704 N.3     1  UNL1       -0.2360
     11 C          -1.7738   -1.7537   -0.3338 C.3     1  UNL1        0.0387
     12 C          -2.5879   -0.5328   -0.2410 C.ar    1  UNL1       -0.0320
     13 C          -3.8192   -0.5575    0.3803 C.ar    1  UNL1       -0.0573
     14 C          -4.6225    0.5740    0.4908 C.ar    1  UNL1       -0.0615
     15 C          -4.1588    1.7553   -0.0444 C.ar    1  UNL1       -0.0617
     16 C          -2.9363    1.8182   -0.6710 C.ar    1  UNL1       -0.0615
     17 C          -2.1608    0.6700   -0.7633 C.ar    1  UNL1       -0.0573
     18 H           5.5685    1.8563   -1.5310 H       1  UNL1        0.0309
     19 H           6.0534    0.1185   -1.2807 H       1  UNL1        0.0309
     20 H           6.3277    1.3753    0.0327 H       1  UNL1        0.0309
     21 H           3.8535   -1.1952   -1.1731 H       1  UNL1        0.0676
     22 H          -0.0393   -0.0374    1.4742 H       1  UNL1        0.1693
     23 H          -1.3277   -2.2334    1.6563 H       1  UNL1        0.1446
     24 H          -1.1726   -1.7364   -1.2488 H       1  UNL1        0.0490
     25 H          -2.4537   -2.6286   -0.3547 H       1  UNL1        0.0490
     26 H          -4.1761   -1.5020    0.8012 H       1  UNL1        0.0621
     27 H          -5.5736    0.4700    0.9924 H       1  UNL1        0.0618
     28 H          -4.8441    2.5778    0.0866 H       1  UNL1        0.0618
     29 H          -2.6232    2.7650   -1.0706 H       1  UNL1        0.0618
     30 H          -1.2074    0.7016   -1.2476 H       1  UNL1        0.0621
@<TRIPOS>BOND
     1     1     2    1
     2     2     3   ar
     3     3     4   ar
     4     4     5   ar
     5     5     6   ar
     6     4     7    1
     7     7     8    2
     8     7     9   am
     9     9    10    1
    10    10    11    1
    11    11    12    1
    12    12    13   ar
    13    13    14   ar
    14    14    15   ar
    15    15    16   ar
    16    16    17   ar
    17     6     2   ar
    18    17    12   ar
    19     1    18    1
    20     1    19    1
    21     1    20    1
    22     3    21    1
    23     9    22    1
    24    10    23    1
    25    11    24    1
    26    11    25    1
    27    13    26    1
    28    14    27    1
    29    15    28    1
    30    16    29    1
    31    17    30    1
