
     RDKit          3D

 30 31  0  0  0  0  0  0  0  0999 V2000
    5.6605    1.0235   -0.7807 C   0  0  0  0  0  0  0  0  0  0  0  0
    4.2923    0.7540   -0.2482 C   0  0  0  0  0  0  0  0  0  0  0  0
    3.5137   -0.3775   -0.5206 C   0  0  0  0  0  0  0  0  0  0  0  0
    2.3421   -0.1932    0.1796 C   0  0  0  0  0  0  0  0  0  0  0  0
    2.4500    0.9819    0.8164 N   0  0  0  0  0  0  0  0  0  0  0  0
    3.6076    1.5269    0.5522 O   0  0  0  0  0  0  0  0  0  0  0  0
    1.2483   -1.1548    0.1664 C   0  0  0  0  0  0  0  0  0  0  0  0
    1.3916   -2.1989   -0.5202 O   0  0  0  0  0  0  0  0  0  0  0  0
    0.0439   -0.9151    0.9158 N   0  0  0  0  0  0  0  0  0  0  0  0
   -0.8760   -1.9520    0.7704 N   0  0  0  0  0  0  0  0  0  0  0  0
   -1.7738   -1.7537   -0.3338 C   0  0  0  0  0  0  0  0  0  0  0  0
   -2.5879   -0.5328   -0.2410 C   0  0  0  0  0  0  0  0  0  0  0  0
   -3.8192   -0.5575    0.3803 C   0  0  0  0  0  0  0  0  0  0  0  0
   -4.6225    0.5740    0.4908 C   0  0  0  0  0  0  0  0  0  0  0  0
   -4.1588    1.7553   -0.0444 C   0  0  0  0  0  0  0  0  0  0  0  0
   -2.9363    1.8182   -0.6710 C   0  0  0  0  0  0  0  0  0  0  0  0
   -2.1608    0.6700   -0.7633 C   0  0  0  0  0  0  0  0  0  0  0  0
    5.5685    1.8563   -1.5310 H   0  0  0  0  0  0  0  0  0  0  0  0
    6.0534    0.1185   -1.2807 H   0  0  0  0  0  0  0  0  0  0  0  0
    6.3277    1.3753    0.0327 H   0  0  0  0  0  0  0  0  0  0  0  0
    3.8535   -1.1952   -1.1731 H   0  0  0  0  0  0  0  0  0  0  0  0
   -0.0393   -0.0374    1.4742 H   0  0  0  0  0  0  0  0  0  0  0  0
   -1.3277   -2.2334    1.6563 H   0  0  0  0  0  0  0  0  0  0  0  0
   -1.1726   -1.7364   -1.2488 H   0  0  0  0  0  0  0  0  0  0  0  0
   -2.4537   -2.6286   -0.3547 H   0  0  0  0  0  0  0  0  0  0  0  0
   -4.1761   -1.5020    0.8012 H   0  0  0  0  0  0  0  0  0  0  0  0
   -5.5736    0.4700    0.9924 H   0  0  0  0  0  0  0  0  0  0  0  0
   -4.8441    2.5778    0.0866 H   0  0  0  0  0  0  0  0  0  0  0  0
   -2.6232    2.7650   -1.0706 H   0  0  0  0  0  0  0  0  0  0  0  0
   -1.2074    0.7016   -1.2476 H   0  0  0  0  0  0  0  0  0  0  0  0
  1  2  1  0
  2  3  2  0
  3  4  1  0
  4  5  2  0
  5  6  1  0
  4  7  1  0
  7  8  2  0
  7  9  1  0
  9 10  1  0
 10 11  1  0
 11 12  1  0
 12 13  2  0
 13 14  1  0
 14 15  2  0
 15 16  1  0
 16 17  2  0
  6  2  1  0
 17 12  1  0
  1 18  1  0
  1 19  1  0
  1 20  1  0
  3 21  1  0
  9 22  1  0
 10 23  1  0
 11 24  1  0
 11 25  1  0
 13 26  1  0
 14 27  1  0
 15 28  1  0
 16 29  1  0
 17 30  1  0
M  END
$$$$
