
     RDKit          3D

 14 13  0  0  0  0  0  0  0  0999 V2000
    2.8480    1.0075    0.0029 O   0  0  0  0  0  0  0  0  0  0  0  0
    2.3056   -0.2308    0.1894 C   0  0  0  0  0  0  0  0  0  0  0  0
    3.0505   -1.2315    0.4479 O   0  0  0  0  0  0  0  0  0  0  0  0
    0.8452   -0.5012    0.1078 C   0  0  0  0  0  0  0  0  0  0  0  0
    0.1003    0.6251   -0.1747 O   0  0  0  0  0  0  0  0  0  0  0  0
   -1.5594    0.3049   -0.2646 P   0  0  0  0  0  0  0  0  0  0  0  0
   -2.3374    1.8201   -0.1652 O   0  0  0  0  0  0  0  0  0  0  0  0
   -2.0795   -0.6908    1.0095 O   0  0  0  0  0  0  0  0  0  0  0  0
   -1.9366   -0.3774   -1.5515 O   0  0  0  0  0  0  0  0  0  0  0  0
    3.7428    1.0653   -0.5070 H   0  0  0  0  0  0  0  0  0  0  0  0
    0.5187   -0.9171    1.0850 H   0  0  0  0  0  0  0  0  0  0  0  0
    0.6989   -1.3065   -0.6527 H   0  0  0  0  0  0  0  0  0  0  0  0
   -3.3033    1.6200   -0.2850 H   0  0  0  0  0  0  0  0  0  0  0  0
   -2.8940   -1.1874    0.7283 H   0  0  0  0  0  0  0  0  0  0  0  0
  1  2  1  0
  2  3  2  0
  2  4  1  0
  4  5  1  0
  5  6  1  0
  6  7  1  0
  6  8  1  0
  6  9  2  0
  1 10  1  0
  4 11  1  0
  4 12  1  0
  7 13  1  0
  8 14  1  0
M  END
$$$$
