@<TRIPOS>MOLECULE
*****
 54 57 0 0 0
SMALL
GASTEIGER

@<TRIPOS>ATOM
      1 C          -2.0400   -5.3358   -0.6833 C.3     1  UNL1        0.0127
      2 C          -0.9413   -4.4226   -0.1753 C.2     1  UNL1        0.2169
      3 O           0.0971   -5.0384    0.1851 O.2     1  UNL1       -0.2756
      4 N          -1.1287   -3.0325   -0.1485 N.am    1  UNL1       -0.2685
      5 C          -0.0504   -2.1112   -0.0260 C.ar    1  UNL1        0.0415
      6 C           1.2446   -2.5673    0.1884 C.ar    1  UNL1       -0.0394
      7 C           2.3060   -1.6739    0.2109 C.ar    1  UNL1       -0.0523
      8 C           2.1555   -0.3189    0.0267 C.ar    1  UNL1       -0.0175
      9 C           3.2918    0.6006    0.0276 C.ar    1  UNL1       -0.0178
     10 C           3.1051    1.9647    0.0183 C.ar    1  UNL1       -0.0533
     11 C           4.1908    2.8286    0.0154 C.ar    1  UNL1       -0.0472
     12 C           5.4847    2.3321    0.0237 C.ar    1  UNL1        0.0589
     13 C           6.6168    3.2633   -0.0063 C.2     1  UNL1        0.3368
     14 O           6.4417    4.5022   -0.0616 O.2     1  UNL1       -0.2451
     15 O           7.9080    2.7718    0.0259 O.3     1  UNL1       -0.4771
     16 C           5.6946    0.9841    0.0357 C.ar    1  UNL1       -0.0472
     17 C           4.5752    0.1421    0.0369 C.ar    1  UNL1       -0.0533
     18 C           0.8718    0.1190   -0.1775 C.ar    1  UNL1       -0.0473
     19 C          -0.2200   -0.7614   -0.2033 C.ar    1  UNL1       -0.0053
     20 C          -1.5920   -0.1803   -0.3875 C.3     1  UNL1        0.0493
     21 N          -1.6449    1.0873    0.3280 N.pl3   1  UNL1       -0.3369
     22 C          -2.5703    2.1058    0.1320 C.ar    1  UNL1        0.0277
     23 C          -2.4900    3.2691    0.8834 C.ar    1  UNL1       -0.0395
     24 C          -3.3524    4.3243    0.6988 C.ar    1  UNL1       -0.0416
     25 C          -4.3392    4.2354   -0.2638 C.ar    1  UNL1        0.0411
     26 CL         -5.4246    5.5882   -0.4842 Cl      1  UNL1       -0.0835
     27 C          -4.4415    3.0869   -1.0253 C.ar    1  UNL1       -0.0416
     28 C          -3.5621    2.0369   -0.8245 C.ar    1  UNL1       -0.0395
     29 C          -2.6004   -1.0890    0.2588 C.3     1  UNL1       -0.0115
     30 C          -2.4770   -2.5130   -0.2431 C.3     1  UNL1        0.0303
     31 C          -3.4735   -3.3091    0.5798 C.3     1  UNL1       -0.0460
     32 H          -1.5494   -6.2434   -1.1624 H       1  UNL1        0.0323
     33 H          -2.5865   -4.8321   -1.4804 H       1  UNL1        0.0323
     34 H          -2.5872   -5.7237    0.1628 H       1  UNL1        0.0323
     35 H           1.4781   -3.5789    0.3322 H       1  UNL1        0.0636
     36 H           3.2818   -2.1214    0.3894 H       1  UNL1        0.0624
     37 H           2.0997    2.3750    0.0039 H       1  UNL1        0.0624
     38 H           4.0599    3.9169    0.0004 H       1  UNL1        0.0626
     39 H           8.6789    3.3369   -0.3654 H       1  UNL1        0.2954
     40 H           6.6892    0.5774    0.0434 H       1  UNL1        0.0626
     41 H           4.7951   -0.9321    0.0550 H       1  UNL1        0.0624
     42 H           0.6288    1.1555   -0.3235 H       1  UNL1        0.0628
     43 H          -1.8099   -0.0288   -1.4377 H       1  UNL1        0.0549
     44 H          -0.8976    1.2229    1.0697 H       1  UNL1        0.1467
     45 H          -1.7215    3.3488    1.6604 H       1  UNL1        0.0636
     46 H          -3.2600    5.2225    1.2921 H       1  UNL1        0.0633
     47 H          -5.1945    3.0100   -1.7669 H       1  UNL1        0.0633
     48 H          -3.6152    1.1290   -1.3972 H       1  UNL1        0.0636
     49 H          -3.6070   -0.7430    0.0966 H       1  UNL1        0.0304
     50 H          -2.3946   -1.0939    1.3616 H       1  UNL1        0.0304
     51 H          -2.7871   -2.5119   -1.3138 H       1  UNL1        0.0502
     52 H          -4.2190   -2.6092    1.0851 H       1  UNL1        0.0248
     53 H          -4.1366   -3.9521   -0.0362 H       1  UNL1        0.0248
     54 H          -2.9809   -3.8135    1.4223 H       1  UNL1        0.0248
@<TRIPOS>BOND
     1     1     2    1
     2     2     3    2
     3     2     4   am
     4     4     5    1
     5     5     6   ar
     6     6     7   ar
     7     7     8   ar
     8     8     9    1
     9     9    10   ar
    10    10    11   ar
    11    11    12   ar
    12    12    13    1
    13    13    14    2
    14    13    15    1
    15    12    16   ar
    16    16    17   ar
    17     8    18   ar
    18    18    19   ar
    19    19    20    1
    20    20    21    1
    21    21    22    1
    22    22    23   ar
    23    23    24   ar
    24    24    25   ar
    25    25    26    1
    26    25    27   ar
    27    27    28   ar
    28    20    29    1
    29    29    30    1
    30    30    31    1
    31    30     4    1
    32    19     5   ar
    33    28    22   ar
    34    17     9   ar
    35     1    32    1
    36     1    33    1
    37     1    34    1
    38     6    35    1
    39     7    36    1
    40    10    37    1
    41    11    38    1
    42    15    39    1
    43    16    40    1
    44    17    41    1
    45    18    42    1
    46    20    43    1
    47    21    44    1
    48    23    45    1
    49    24    46    1
    50    27    47    1
    51    28    48    1
    52    29    49    1
    53    29    50    1
    54    30    51    1
    55    31    52    1
    56    31    53    1
    57    31    54    1
