
     RDKit          3D

 54 57  0  0  0  0  0  0  0  0999 V2000
   -2.0400   -5.3358   -0.6833 C   0  0  0  0  0  0  0  0  0  0  0  0
   -0.9413   -4.4226   -0.1753 C   0  0  0  0  0  0  0  0  0  0  0  0
    0.0971   -5.0384    0.1851 O   0  0  0  0  0  0  0  0  0  0  0  0
   -1.1287   -3.0325   -0.1485 N   0  0  0  0  0  0  0  0  0  0  0  0
   -0.0504   -2.1112   -0.0260 C   0  0  0  0  0  0  0  0  0  0  0  0
    1.2446   -2.5673    0.1884 C   0  0  0  0  0  0  0  0  0  0  0  0
    2.3060   -1.6739    0.2109 C   0  0  0  0  0  0  0  0  0  0  0  0
    2.1555   -0.3189    0.0267 C   0  0  0  0  0  0  0  0  0  0  0  0
    3.2918    0.6006    0.0276 C   0  0  0  0  0  0  0  0  0  0  0  0
    3.1051    1.9647    0.0183 C   0  0  0  0  0  0  0  0  0  0  0  0
    4.1908    2.8286    0.0154 C   0  0  0  0  0  0  0  0  0  0  0  0
    5.4847    2.3321    0.0237 C   0  0  0  0  0  0  0  0  0  0  0  0
    6.6168    3.2633   -0.0063 C   0  0  0  0  0  0  0  0  0  0  0  0
    6.4417    4.5022   -0.0616 O   0  0  0  0  0  0  0  0  0  0  0  0
    7.9080    2.7718    0.0259 O   0  0  0  0  0  0  0  0  0  0  0  0
    5.6946    0.9841    0.0357 C   0  0  0  0  0  0  0  0  0  0  0  0
    4.5752    0.1421    0.0369 C   0  0  0  0  0  0  0  0  0  0  0  0
    0.8718    0.1190   -0.1775 C   0  0  0  0  0  0  0  0  0  0  0  0
   -0.2200   -0.7614   -0.2033 C   0  0  0  0  0  0  0  0  0  0  0  0
   -1.5920   -0.1803   -0.3875 C   0  0  2  0  0  0  0  0  0  0  0  0
   -1.6449    1.0873    0.3280 N   0  0  0  0  0  0  0  0  0  0  0  0
   -2.5703    2.1058    0.1320 C   0  0  0  0  0  0  0  0  0  0  0  0
   -2.4900    3.2691    0.8834 C   0  0  0  0  0  0  0  0  0  0  0  0
   -3.3524    4.3243    0.6988 C   0  0  0  0  0  0  0  0  0  0  0  0
   -4.3392    4.2354   -0.2638 C   0  0  0  0  0  0  0  0  0  0  0  0
   -5.4246    5.5882   -0.4842 Cl  0  0  0  0  0  0  0  0  0  0  0  0
   -4.4415    3.0869   -1.0253 C   0  0  0  0  0  0  0  0  0  0  0  0
   -3.5621    2.0369   -0.8245 C   0  0  0  0  0  0  0  0  0  0  0  0
   -2.6004   -1.0890    0.2588 C   0  0  0  0  0  0  0  0  0  0  0  0
   -2.4770   -2.5130   -0.2431 C   0  0  2  0  0  0  0  0  0  0  0  0
   -3.4735   -3.3091    0.5798 C   0  0  0  0  0  0  0  0  0  0  0  0
   -1.5494   -6.2434   -1.1624 H   0  0  0  0  0  0  0  0  0  0  0  0
   -2.5865   -4.8321   -1.4804 H   0  0  0  0  0  0  0  0  0  0  0  0
   -2.5872   -5.7237    0.1628 H   0  0  0  0  0  0  0  0  0  0  0  0
    1.4781   -3.5789    0.3322 H   0  0  0  0  0  0  0  0  0  0  0  0
    3.2818   -2.1214    0.3894 H   0  0  0  0  0  0  0  0  0  0  0  0
    2.0997    2.3750    0.0039 H   0  0  0  0  0  0  0  0  0  0  0  0
    4.0599    3.9169    0.0004 H   0  0  0  0  0  0  0  0  0  0  0  0
    8.6789    3.3369   -0.3654 H   0  0  0  0  0  0  0  0  0  0  0  0
    6.6892    0.5774    0.0434 H   0  0  0  0  0  0  0  0  0  0  0  0
    4.7951   -0.9321    0.0550 H   0  0  0  0  0  0  0  0  0  0  0  0
    0.6288    1.1555   -0.3235 H   0  0  0  0  0  0  0  0  0  0  0  0
   -1.8099   -0.0288   -1.4377 H   0  0  0  0  0  0  0  0  0  0  0  0
   -0.8976    1.2229    1.0697 H   0  0  0  0  0  0  0  0  0  0  0  0
   -1.7215    3.3488    1.6604 H   0  0  0  0  0  0  0  0  0  0  0  0
   -3.2600    5.2225    1.2921 H   0  0  0  0  0  0  0  0  0  0  0  0
   -5.1945    3.0100   -1.7669 H   0  0  0  0  0  0  0  0  0  0  0  0
   -3.6152    1.1290   -1.3972 H   0  0  0  0  0  0  0  0  0  0  0  0
   -3.6070   -0.7430    0.0966 H   0  0  0  0  0  0  0  0  0  0  0  0
   -2.3946   -1.0939    1.3616 H   0  0  0  0  0  0  0  0  0  0  0  0
   -2.7871   -2.5119   -1.3138 H   0  0  0  0  0  0  0  0  0  0  0  0
   -4.2190   -2.6092    1.0851 H   0  0  0  0  0  0  0  0  0  0  0  0
   -4.1366   -3.9521   -0.0362 H   0  0  0  0  0  0  0  0  0  0  0  0
   -2.9809   -3.8135    1.4223 H   0  0  0  0  0  0  0  0  0  0  0  0
  1  2  1  0
  2  3  2  0
  2  4  1  0
  4  5  1  0
  5  6  2  0
  6  7  1  0
  7  8  2  0
  8  9  1  0
  9 10  2  0
 10 11  1  0
 11 12  2  0
 12 13  1  0
 13 14  2  0
 13 15  1  0
 12 16  1  0
 16 17  2  0
  8 18  1  0
 18 19  2  0
 19 20  1  0
 20 21  1  0
 21 22  1  0
 22 23  2  0
 23 24  1  0
 24 25  2  0
 25 26  1  0
 25 27  1  0
 27 28  2  0
 20 29  1  0
 29 30  1  0
 30 31  1  0
 30  4  1  0
 19  5  1  0
 28 22  1  0
 17  9  1  0
  1 32  1  0
  1 33  1  0
  1 34  1  0
  6 35  1  0
  7 36  1  0
 10 37  1  0
 11 38  1  0
 15 39  1  0
 16 40  1  0
 17 41  1  0
 18 42  1  0
 20 43  1  6
 21 44  1  0
 23 45  1  0
 24 46  1  0
 27 47  1  0
 28 48  1  0
 29 49  1  0
 29 50  1  0
 30 51  1  6
 31 52  1  0
 31 53  1  0
 31 54  1  0
M  END
$$$$
