@<TRIPOS>MOLECULE
*****
 60 64 0 0 0
SMALL
GASTEIGER

@<TRIPOS>ATOM
      1 C          -6.4317   -2.4108    0.1859 C.3     1  UNL1        0.0365
      2 O          -5.5961   -2.4108   -0.9073 O.3     1  UNL1       -0.3814
      3 C          -5.7408   -1.3096   -1.7171 C.3     1  UNL1        0.0645
      4 C          -5.4615    0.0063   -1.0615 C.3     1  UNL1        0.0552
      5 C          -5.5436    1.0595   -2.1789 C.3     1  UNL1       -0.0323
      6 C          -4.1839    0.8983   -2.8077 C.3     1  UNL1       -0.0370
      7 C          -3.2999    0.6406   -1.6000 C.3     1  UNL1        0.0209
      8 N          -4.1184    0.1281   -0.5480 N.3     1  UNL1       -0.1713
      9 S          -4.0073    1.1530    0.8315 S.O2    1  UNL1        0.0612
     10 O          -4.8981    0.5898    1.9004 O.2     1  UNL1       -0.1528
     11 O          -4.4219    2.5655    0.4806 O.2     1  UNL1       -0.1528
     12 C          -2.3210    1.1447    1.3580 C.ar    1  UNL1        0.1063
     13 C          -1.4229    2.1143    0.9835 C.ar    1  UNL1       -0.0335
     14 C          -0.1013    2.0766    1.4101 C.ar    1  UNL1       -0.0377
     15 C           0.3734    1.0597    2.2335 C.ar    1  UNL1        0.0481
     16 C          -0.5365    0.0892    2.6054 C.ar    1  UNL1        0.0502
     17 C          -1.8414    0.1425    2.1732 C.ar    1  UNL1       -0.0226
     18 C           0.1914   -0.8673    3.4681 C.2     1  UNL1        0.2496
     19 O          -0.3177   -1.8827    3.9926 O.2     1  UNL1       -0.2817
     20 C           1.5680   -0.4077    3.5805 C.2     1  UNL1        0.2915
     21 O           2.5029   -0.9685    4.2414 O.2     1  UNL1       -0.2661
     22 N           1.6441    0.7814    2.8076 N.am    1  UNL1       -0.2598
     23 C           2.8430    1.5753    2.6456 C.3     1  UNL1        0.0452
     24 C           3.6734    1.1297    1.4929 C.ar    1  UNL1       -0.0295
     25 C           3.5027    1.6507    0.2281 C.ar    1  UNL1       -0.0536
     26 C           4.2646    1.2415   -0.8407 C.ar    1  UNL1       -0.0196
     27 C           5.2621    0.2668   -0.7014 C.ar    1  UNL1        0.1206
     28 O           6.0041   -0.1105   -1.8092 O.3     1  UNL1       -0.4893
     29 C           7.0163   -1.0786   -1.8314 C.3     1  UNL1        0.1178
     30 C           6.5334   -2.4735   -1.4760 C.3     1  UNL1        0.1159
     31 C           6.6733   -3.5250   -2.5684 C.3     1  UNL1        0.0776
     32 O           7.4743   -3.5031   -1.4488 O.3     1  UNL1       -0.3683
     33 C           5.4293   -0.2497    0.5625 C.ar    1  UNL1       -0.0196
     34 C           4.6568    0.1676    1.6359 C.ar    1  UNL1       -0.0536
     35 H          -6.2439   -1.5340    0.8124 H       1  UNL1        0.0523
     36 H          -7.5123   -2.4081   -0.0601 H       1  UNL1        0.0523
     37 H          -6.2030   -3.3090    0.8017 H       1  UNL1        0.0523
     38 H          -5.1675   -1.4199   -2.6714 H       1  UNL1        0.0576
     39 H          -6.8188   -1.2828   -2.0589 H       1  UNL1        0.0576
     40 H          -6.2323    0.2719   -0.3343 H       1  UNL1        0.0502
     41 H          -5.7193    2.0592   -1.7718 H       1  UNL1        0.0282
     42 H          -6.3014    0.7254   -2.9184 H       1  UNL1        0.0282
     43 H          -4.1552    0.1049   -3.5544 H       1  UNL1        0.0279
     44 H          -3.8438    1.8803   -3.2403 H       1  UNL1        0.0279
     45 H          -2.7343    1.5277   -1.3001 H       1  UNL1        0.0444
     46 H          -2.5746   -0.1784   -1.8886 H       1  UNL1        0.0444
     47 H          -1.7686    2.9211    0.3477 H       1  UNL1        0.0638
     48 H           0.5911    2.8414    1.1108 H       1  UNL1        0.0637
     49 H          -2.5276   -0.6289    2.4807 H       1  UNL1        0.0645
     50 H           3.4291    1.5112    3.6055 H       1  UNL1        0.0518
     51 H           2.5972    2.6728    2.5558 H       1  UNL1        0.0518
     52 H           2.7217    2.4151    0.1184 H       1  UNL1        0.0622
     53 H           4.1292    1.6485   -1.8210 H       1  UNL1        0.0654
     54 H           7.7892   -0.8331   -1.0517 H       1  UNL1        0.0723
     55 H           7.5724   -1.0794   -2.7837 H       1  UNL1        0.0723
     56 H           5.6166   -2.6006   -0.8754 H       1  UNL1        0.0653
     57 H           7.0437   -3.1319   -3.5268 H       1  UNL1        0.0587
     58 H           5.9395   -4.3559   -2.6094 H       1  UNL1        0.0587
     59 H           6.2006   -0.9944    0.7009 H       1  UNL1        0.0654
     60 H           4.8031   -0.2481    2.6116 H       1  UNL1        0.0622
@<TRIPOS>BOND
     1     1     2    1
     2     2     3    1
     3     3     4    1
     4     4     5    1
     5     5     6    1
     6     6     7    1
     7     7     8    1
     8     8     9    1
     9     9    10    2
    10     9    11    2
    11     9    12    1
    12    12    13   ar
    13    13    14   ar
    14    14    15   ar
    15    15    16   ar
    16    16    17   ar
    17    16    18    1
    18    18    19    2
    19    18    20    1
    20    20    21    2
    21    20    22   am
    22    22    23    1
    23    23    24    1
    24    24    25   ar
    25    25    26   ar
    26    26    27   ar
    27    27    28    1
    28    28    29    1
    29    29    30    1
    30    30    31    1
    31    31    32    1
    32    27    33   ar
    33    33    34   ar
    34     8     4    1
    35    17    12   ar
    36    34    24   ar
    37    22    15    1
    38    32    30    1
    39     1    35    1
    40     1    36    1
    41     1    37    1
    42     3    38    1
    43     3    39    1
    44     4    40    1
    45     5    41    1
    46     5    42    1
    47     6    43    1
    48     6    44    1
    49     7    45    1
    50     7    46    1
    51    13    47    1
    52    14    48    1
    53    17    49    1
    54    23    50    1
    55    23    51    1
    56    25    52    1
    57    26    53    1
    58    29    54    1
    59    29    55    1
    60    30    56    1
    61    31    57    1
    62    31    58    1
    63    33    59    1
    64    34    60    1
