
     RDKit          3D

 60 64  0  0  0  0  0  0  0  0999 V2000
   -6.4317   -2.4108    0.1859 C   0  0  0  0  0  0  0  0  0  0  0  0
   -5.5961   -2.4108   -0.9073 O   0  0  0  0  0  0  0  0  0  0  0  0
   -5.7408   -1.3096   -1.7171 C   0  0  0  0  0  0  0  0  0  0  0  0
   -5.4615    0.0063   -1.0615 C   0  0  2  0  0  0  0  0  0  0  0  0
   -5.5436    1.0595   -2.1789 C   0  0  0  0  0  0  0  0  0  0  0  0
   -4.1839    0.8983   -2.8077 C   0  0  0  0  0  0  0  0  0  0  0  0
   -3.2999    0.6406   -1.6000 C   0  0  0  0  0  0  0  0  0  0  0  0
   -4.1184    0.1281   -0.5480 N   0  0  0  0  0  0  0  0  0  0  0  0
   -4.0073    1.1530    0.8315 S   0  0  0  0  0  6  0  0  0  0  0  0
   -4.8981    0.5898    1.9004 O   0  0  0  0  0  0  0  0  0  0  0  0
   -4.4219    2.5655    0.4806 O   0  0  0  0  0  0  0  0  0  0  0  0
   -2.3210    1.1447    1.3580 C   0  0  0  0  0  0  0  0  0  0  0  0
   -1.4229    2.1143    0.9835 C   0  0  0  0  0  0  0  0  0  0  0  0
   -0.1013    2.0766    1.4101 C   0  0  0  0  0  0  0  0  0  0  0  0
    0.3734    1.0597    2.2335 C   0  0  0  0  0  0  0  0  0  0  0  0
   -0.5365    0.0892    2.6054 C   0  0  0  0  0  0  0  0  0  0  0  0
   -1.8414    0.1425    2.1732 C   0  0  0  0  0  0  0  0  0  0  0  0
    0.1914   -0.8673    3.4681 C   0  0  0  0  0  0  0  0  0  0  0  0
   -0.3177   -1.8827    3.9926 O   0  0  0  0  0  0  0  0  0  0  0  0
    1.5680   -0.4077    3.5805 C   0  0  0  0  0  0  0  0  0  0  0  0
    2.5029   -0.9685    4.2414 O   0  0  0  0  0  0  0  0  0  0  0  0
    1.6441    0.7814    2.8076 N   0  0  0  0  0  0  0  0  0  0  0  0
    2.8430    1.5753    2.6456 C   0  0  0  0  0  0  0  0  0  0  0  0
    3.6734    1.1297    1.4929 C   0  0  0  0  0  0  0  0  0  0  0  0
    3.5027    1.6507    0.2281 C   0  0  0  0  0  0  0  0  0  0  0  0
    4.2646    1.2415   -0.8407 C   0  0  0  0  0  0  0  0  0  0  0  0
    5.2621    0.2668   -0.7014 C   0  0  0  0  0  0  0  0  0  0  0  0
    6.0041   -0.1105   -1.8092 O   0  0  0  0  0  0  0  0  0  0  0  0
    7.0163   -1.0786   -1.8314 C   0  0  0  0  0  0  0  0  0  0  0  0
    6.5334   -2.4735   -1.4760 C   0  0  0  0  0  0  0  0  0  0  0  0
    6.6733   -3.5250   -2.5684 C   0  0  0  0  0  0  0  0  0  0  0  0
    7.4743   -3.5031   -1.4488 O   0  0  0  0  0  0  0  0  0  0  0  0
    5.4293   -0.2497    0.5625 C   0  0  0  0  0  0  0  0  0  0  0  0
    4.6568    0.1676    1.6359 C   0  0  0  0  0  0  0  0  0  0  0  0
   -6.2439   -1.5340    0.8124 H   0  0  0  0  0  0  0  0  0  0  0  0
   -7.5123   -2.4081   -0.0601 H   0  0  0  0  0  0  0  0  0  0  0  0
   -6.2030   -3.3090    0.8017 H   0  0  0  0  0  0  0  0  0  0  0  0
   -5.1675   -1.4199   -2.6714 H   0  0  0  0  0  0  0  0  0  0  0  0
   -6.8188   -1.2828   -2.0589 H   0  0  0  0  0  0  0  0  0  0  0  0
   -6.2323    0.2719   -0.3343 H   0  0  0  0  0  0  0  0  0  0  0  0
   -5.7193    2.0592   -1.7718 H   0  0  0  0  0  0  0  0  0  0  0  0
   -6.3014    0.7254   -2.9184 H   0  0  0  0  0  0  0  0  0  0  0  0
   -4.1552    0.1049   -3.5544 H   0  0  0  0  0  0  0  0  0  0  0  0
   -3.8438    1.8803   -3.2403 H   0  0  0  0  0  0  0  0  0  0  0  0
   -2.7343    1.5277   -1.3001 H   0  0  0  0  0  0  0  0  0  0  0  0
   -2.5746   -0.1784   -1.8886 H   0  0  0  0  0  0  0  0  0  0  0  0
   -1.7686    2.9211    0.3477 H   0  0  0  0  0  0  0  0  0  0  0  0
    0.5911    2.8414    1.1108 H   0  0  0  0  0  0  0  0  0  0  0  0
   -2.5276   -0.6289    2.4807 H   0  0  0  0  0  0  0  0  0  0  0  0
    3.4291    1.5112    3.6055 H   0  0  0  0  0  0  0  0  0  0  0  0
    2.5972    2.6728    2.5558 H   0  0  0  0  0  0  0  0  0  0  0  0
    2.7217    2.4151    0.1184 H   0  0  0  0  0  0  0  0  0  0  0  0
    4.1292    1.6485   -1.8210 H   0  0  0  0  0  0  0  0  0  0  0  0
    7.7892   -0.8331   -1.0517 H   0  0  0  0  0  0  0  0  0  0  0  0
    7.5724   -1.0794   -2.7837 H   0  0  0  0  0  0  0  0  0  0  0  0
    5.6166   -2.6006   -0.8754 H   0  0  0  0  0  0  0  0  0  0  0  0
    7.0437   -3.1319   -3.5268 H   0  0  0  0  0  0  0  0  0  0  0  0
    5.9395   -4.3559   -2.6094 H   0  0  0  0  0  0  0  0  0  0  0  0
    6.2006   -0.9944    0.7009 H   0  0  0  0  0  0  0  0  0  0  0  0
    4.8031   -0.2481    2.6116 H   0  0  0  0  0  0  0  0  0  0  0  0
  1  2  1  0
  2  3  1  0
  3  4  1  0
  4  5  1  0
  5  6  1  0
  6  7  1  0
  7  8  1  0
  8  9  1  0
  9 10  2  0
  9 11  2  0
  9 12  1  0
 12 13  2  0
 13 14  1  0
 14 15  2  0
 15 16  1  0
 16 17  2  0
 16 18  1  0
 18 19  2  0
 18 20  1  0
 20 21  2  0
 20 22  1  0
 22 23  1  0
 23 24  1  0
 24 25  2  0
 25 26  1  0
 26 27  2  0
 27 28  1  0
 28 29  1  0
 29 30  1  0
 30 31  1  0
 31 32  1  0
 27 33  1  0
 33 34  2  0
  8  4  1  0
 17 12  1  0
 34 24  1  0
 22 15  1  0
 32 30  1  0
  1 35  1  0
  1 36  1  0
  1 37  1  0
  3 38  1  0
  3 39  1  0
  4 40  1  1
  5 41  1  0
  5 42  1  0
  6 43  1  0
  6 44  1  0
  7 45  1  0
  7 46  1  0
 13 47  1  0
 14 48  1  0
 17 49  1  0
 23 50  1  0
 23 51  1  0
 25 52  1  0
 26 53  1  0
 29 54  1  0
 29 55  1  0
 30 56  1  0
 31 57  1  0
 31 58  1  0
 33 59  1  0
 34 60  1  0
M  END
$$$$
