@<TRIPOS>MOLECULE
*****
 64 68 0 0 0
SMALL
GASTEIGER

@<TRIPOS>ATOM
      1 C           0.6517   -1.9840    1.8965 C.3     1  UNL1       -0.0586
      2 C           0.6582   -0.5936    1.3411 C.3     1  UNL1       -0.0186
      3 C           1.4758    0.2848    2.2704 C.3     1  UNL1       -0.0586
      4 C           1.1034   -0.5715   -0.0719 C.ar    1  UNL1       -0.0023
      5 C           2.3940   -0.4510   -0.5187 C.ar    1  UNL1        0.0621
      6 C           3.6500   -0.5647    0.2306 C.ar    1  UNL1        0.2518
      7 N           3.9666   -0.9101    1.4545 N.ar    1  UNL1       -0.1058
      8 N           5.2664   -0.8511    1.6270 N.ar    1  UNL1       -0.0924
      9 C           5.8055   -0.4477    0.4542 C.ar    1  UNL1        0.3081
     10 N           7.1995   -0.2511    0.2009 N.pl3   1  UNL1       -0.2975
     11 C           7.5966    0.1624   -1.1139 C.3     1  UNL1        0.0144
     12 C           9.0351    0.4590   -1.2924 C.3     1  UNL1       -0.0249
     13 C           9.4622    1.6081   -0.4381 C.3     1  UNL1       -0.0055
     14 N           9.2779    1.3829    0.9507 N.3     1  UNL1       -0.3299
     15 O           4.8140   -0.2835   -0.3648 O.2     1  UNL1       -0.4048
     16 C           2.2915   -0.3215   -1.8955 C.ar    1  UNL1        0.0425
     17 N           0.9935   -0.3724   -2.2435 N.ar    1  UNL1       -0.2341
     18 N           0.4354   -0.3001   -3.4587 N.ar    1  UNL1       -0.1548
     19 C          -0.8801   -0.3918   -3.5637 C.ar    1  UNL1        0.1388
     20 N          -1.6979   -0.5570   -2.5231 N.ar    1  UNL1       -0.2167
     21 C          -1.1632   -0.6357   -1.2672 C.ar    1  UNL1        0.1507
     22 N          -2.0180   -0.9201   -0.1962 N.pl3   1  UNL1       -0.2954
     23 C          -3.4232   -0.9861   -0.5138 C.ar    1  UNL1        0.0690
     24 C          -4.3209   -0.1483    0.0718 C.ar    1  UNL1       -0.0228
     25 C          -5.6978   -0.1891   -0.2081 C.ar    1  UNL1        0.0737
     26 C          -6.5586    0.7460    0.4677 C.2     1  UNL1        0.2471
     27 O          -6.0630    1.5133    1.3554 O.2     1  UNL1       -0.2701
     28 N          -7.9289    0.8405    0.1799 N.am    1  UNL1       -0.3084
     29 C          -8.7314    1.8252    0.9265 C.3     1  UNL1        0.0235
     30 C         -10.1110    1.2953    1.2947 C.3     1  UNL1       -0.0328
     31 C          -9.9610    2.3585    0.2949 C.3     1  UNL1       -0.0328
     32 C          -6.1041   -1.1296   -1.1159 C.ar    1  UNL1        0.1383
     33 F          -7.3953   -1.2620   -1.4548 F       1  UNL1       -0.2046
     34 C          -5.2046   -1.9957   -1.7265 C.ar    1  UNL1        0.0114
     35 C          -3.8736   -1.9165   -1.4204 C.ar    1  UNL1        0.1472
     36 F          -2.9770   -2.7705   -2.0129 F       1  UNL1       -0.2035
     37 C           0.2014   -0.5329   -1.1535 C.ar    1  UNL1        0.1095
     38 H           0.2648   -2.7502    1.1761 H       1  UNL1        0.0235
     39 H           0.0784   -2.0410    2.8666 H       1  UNL1        0.0235
     40 H           1.6725   -2.3479    2.1620 H       1  UNL1        0.0235
     41 H          -0.3596   -0.0951    1.3983 H       1  UNL1        0.0344
     42 H           0.7217    0.9777    2.7823 H       1  UNL1        0.0235
     43 H           1.9449   -0.3512    3.0389 H       1  UNL1        0.0235
     44 H           2.1643    0.9629    1.7988 H       1  UNL1        0.0235
     45 H           7.8730   -0.4148    0.9367 H       1  UNL1        0.1504
     46 H           6.9885    1.1025   -1.3166 H       1  UNL1        0.0463
     47 H           7.2036   -0.5651   -1.8869 H       1  UNL1        0.0463
     48 H           9.1900    0.7049   -2.3713 H       1  UNL1        0.0292
     49 H           9.6256   -0.4661   -1.0984 H       1  UNL1        0.0292
     50 H           8.8176    2.4728   -0.7288 H       1  UNL1        0.0422
     51 H          10.5179    1.8839   -0.6831 H       1  UNL1        0.0422
     52 H           8.4410    1.9060    1.3262 H       1  UNL1        0.1182
     53 H          10.0982    1.7181    1.5226 H       1  UNL1        0.1182
     54 H           3.1288   -0.1994   -2.5774 H       1  UNL1        0.0838
     55 H          -1.2980   -0.3258   -4.5709 H       1  UNL1        0.1066
     56 H          -1.8397   -1.1335    0.7846 H       1  UNL1        0.1537
     57 H          -3.9771    0.5809    0.7806 H       1  UNL1        0.0645
     58 H          -8.4412    0.2883   -0.5123 H       1  UNL1        0.1493
     59 H          -8.1809    2.4153    1.6571 H       1  UNL1        0.0498
     60 H         -10.4167    0.2992    0.9239 H       1  UNL1        0.0284
     61 H         -10.4092    1.4942    2.3250 H       1  UNL1        0.0284
     62 H         -10.0775    2.0901   -0.7909 H       1  UNL1        0.0284
     63 H         -10.3104    3.3607    0.5777 H       1  UNL1        0.0284
     64 H          -5.5896   -2.7061   -2.4261 H       1  UNL1        0.0676
@<TRIPOS>BOND
     1     1     2    1
     2     2     3    1
     3     2     4    1
     4     4     5   ar
     5     5     6    1
     6     6     7   ar
     7     7     8   ar
     8     8     9   ar
     9     9    10    1
    10    10    11    1
    11    11    12    1
    12    12    13    1
    13    13    14    1
    14     9    15   ar
    15     5    16   ar
    16    16    17   ar
    17    17    18   ar
    18    18    19   ar
    19    19    20   ar
    20    20    21   ar
    21    21    22    1
    22    22    23    1
    23    23    24   ar
    24    24    25   ar
    25    25    26    1
    26    26    27    2
    27    26    28   am
    28    28    29    1
    29    29    30    1
    30    30    31    1
    31    25    32   ar
    32    32    33    1
    33    32    34   ar
    34    34    35   ar
    35    35    36    1
    36    21    37   ar
    37    37     4   ar
    38    15     6   ar
    39    37    17   ar
    40    35    23   ar
    41    31    29    1
    42     1    38    1
    43     1    39    1
    44     1    40    1
    45     2    41    1
    46     3    42    1
    47     3    43    1
    48     3    44    1
    49    10    45    1
    50    11    46    1
    51    11    47    1
    52    12    48    1
    53    12    49    1
    54    13    50    1
    55    13    51    1
    56    14    52    1
    57    14    53    1
    58    16    54    1
    59    19    55    1
    60    22    56    1
    61    24    57    1
    62    28    58    1
    63    29    59    1
    64    30    60    1
    65    30    61    1
    66    31    62    1
    67    31    63    1
    68    34    64    1
