
     RDKit          3D

 64 68  0  0  0  0  0  0  0  0999 V2000
    0.6517   -1.9840    1.8965 C   0  0  0  0  0  0  0  0  0  0  0  0
    0.6582   -0.5936    1.3411 C   0  0  0  0  0  0  0  0  0  0  0  0
    1.4758    0.2848    2.2704 C   0  0  0  0  0  0  0  0  0  0  0  0
    1.1034   -0.5715   -0.0719 C   0  0  0  0  0  0  0  0  0  0  0  0
    2.3940   -0.4510   -0.5187 C   0  0  0  0  0  0  0  0  0  0  0  0
    3.6500   -0.5647    0.2306 C   0  0  0  0  0  0  0  0  0  0  0  0
    3.9666   -0.9101    1.4545 N   0  0  0  0  0  0  0  0  0  0  0  0
    5.2664   -0.8511    1.6270 N   0  0  0  0  0  0  0  0  0  0  0  0
    5.8055   -0.4477    0.4542 C   0  0  0  0  0  0  0  0  0  0  0  0
    7.1995   -0.2511    0.2009 N   0  0  0  0  0  0  0  0  0  0  0  0
    7.5966    0.1624   -1.1139 C   0  0  0  0  0  0  0  0  0  0  0  0
    9.0351    0.4590   -1.2924 C   0  0  0  0  0  0  0  0  0  0  0  0
    9.4622    1.6081   -0.4381 C   0  0  0  0  0  0  0  0  0  0  0  0
    9.2779    1.3829    0.9507 N   0  0  0  0  0  0  0  0  0  0  0  0
    4.8140   -0.2835   -0.3648 O   0  0  0  0  0  0  0  0  0  0  0  0
    2.2915   -0.3215   -1.8955 C   0  0  0  0  0  0  0  0  0  0  0  0
    0.9935   -0.3724   -2.2435 N   0  0  0  0  0  0  0  0  0  0  0  0
    0.4354   -0.3001   -3.4587 N   0  0  0  0  0  0  0  0  0  0  0  0
   -0.8801   -0.3918   -3.5637 C   0  0  0  0  0  0  0  0  0  0  0  0
   -1.6979   -0.5570   -2.5231 N   0  0  0  0  0  0  0  0  0  0  0  0
   -1.1632   -0.6357   -1.2672 C   0  0  0  0  0  0  0  0  0  0  0  0
   -2.0180   -0.9201   -0.1962 N   0  0  0  0  0  0  0  0  0  0  0  0
   -3.4232   -0.9861   -0.5138 C   0  0  0  0  0  0  0  0  0  0  0  0
   -4.3209   -0.1483    0.0718 C   0  0  0  0  0  0  0  0  0  0  0  0
   -5.6978   -0.1891   -0.2081 C   0  0  0  0  0  0  0  0  0  0  0  0
   -6.5586    0.7460    0.4677 C   0  0  0  0  0  0  0  0  0  0  0  0
   -6.0630    1.5133    1.3554 O   0  0  0  0  0  0  0  0  0  0  0  0
   -7.9289    0.8405    0.1799 N   0  0  0  0  0  0  0  0  0  0  0  0
   -8.7314    1.8252    0.9265 C   0  0  0  0  0  0  0  0  0  0  0  0
  -10.1110    1.2953    1.2947 C   0  0  0  0  0  0  0  0  0  0  0  0
   -9.9610    2.3585    0.2949 C   0  0  0  0  0  0  0  0  0  0  0  0
   -6.1041   -1.1296   -1.1159 C   0  0  0  0  0  0  0  0  0  0  0  0
   -7.3953   -1.2620   -1.4548 F   0  0  0  0  0  0  0  0  0  0  0  0
   -5.2046   -1.9957   -1.7265 C   0  0  0  0  0  0  0  0  0  0  0  0
   -3.8736   -1.9165   -1.4204 C   0  0  0  0  0  0  0  0  0  0  0  0
   -2.9770   -2.7705   -2.0129 F   0  0  0  0  0  0  0  0  0  0  0  0
    0.2014   -0.5329   -1.1535 C   0  0  0  0  0  0  0  0  0  0  0  0
    0.2648   -2.7502    1.1761 H   0  0  0  0  0  0  0  0  0  0  0  0
    0.0784   -2.0410    2.8666 H   0  0  0  0  0  0  0  0  0  0  0  0
    1.6725   -2.3479    2.1620 H   0  0  0  0  0  0  0  0  0  0  0  0
   -0.3596   -0.0951    1.3983 H   0  0  0  0  0  0  0  0  0  0  0  0
    0.7217    0.9777    2.7823 H   0  0  0  0  0  0  0  0  0  0  0  0
    1.9449   -0.3512    3.0389 H   0  0  0  0  0  0  0  0  0  0  0  0
    2.1643    0.9629    1.7988 H   0  0  0  0  0  0  0  0  0  0  0  0
    7.8730   -0.4148    0.9367 H   0  0  0  0  0  0  0  0  0  0  0  0
    6.9885    1.1025   -1.3166 H   0  0  0  0  0  0  0  0  0  0  0  0
    7.2036   -0.5651   -1.8869 H   0  0  0  0  0  0  0  0  0  0  0  0
    9.1900    0.7049   -2.3713 H   0  0  0  0  0  0  0  0  0  0  0  0
    9.6256   -0.4661   -1.0984 H   0  0  0  0  0  0  0  0  0  0  0  0
    8.8176    2.4728   -0.7288 H   0  0  0  0  0  0  0  0  0  0  0  0
   10.5179    1.8839   -0.6831 H   0  0  0  0  0  0  0  0  0  0  0  0
    8.4410    1.9060    1.3262 H   0  0  0  0  0  0  0  0  0  0  0  0
   10.0982    1.7181    1.5226 H   0  0  0  0  0  0  0  0  0  0  0  0
    3.1288   -0.1994   -2.5774 H   0  0  0  0  0  0  0  0  0  0  0  0
   -1.2980   -0.3258   -4.5709 H   0  0  0  0  0  0  0  0  0  0  0  0
   -1.8397   -1.1335    0.7846 H   0  0  0  0  0  0  0  0  0  0  0  0
   -3.9771    0.5809    0.7806 H   0  0  0  0  0  0  0  0  0  0  0  0
   -8.4412    0.2883   -0.5123 H   0  0  0  0  0  0  0  0  0  0  0  0
   -8.1809    2.4153    1.6571 H   0  0  0  0  0  0  0  0  0  0  0  0
  -10.4167    0.2992    0.9239 H   0  0  0  0  0  0  0  0  0  0  0  0
  -10.4092    1.4942    2.3250 H   0  0  0  0  0  0  0  0  0  0  0  0
  -10.0775    2.0901   -0.7909 H   0  0  0  0  0  0  0  0  0  0  0  0
  -10.3104    3.3607    0.5777 H   0  0  0  0  0  0  0  0  0  0  0  0
   -5.5896   -2.7061   -2.4261 H   0  0  0  0  0  0  0  0  0  0  0  0
  1  2  1  0
  2  3  1  0
  2  4  1  0
  4  5  1  0
  5  6  1  0
  6  7  2  0
  7  8  1  0
  8  9  2  0
  9 10  1  0
 10 11  1  0
 11 12  1  0
 12 13  1  0
 13 14  1  0
  9 15  1  0
  5 16  2  0
 16 17  1  0
 17 18  1  0
 18 19  2  0
 19 20  1  0
 20 21  2  0
 21 22  1  0
 22 23  1  0
 23 24  2  0
 24 25  1  0
 25 26  1  0
 26 27  2  0
 26 28  1  0
 28 29  1  0
 29 30  1  0
 30 31  1  0
 25 32  2  0
 32 33  1  0
 32 34  1  0
 34 35  2  0
 35 36  1  0
 21 37  1  0
 37  4  2  0
 15  6  1  0
 37 17  1  0
 35 23  1  0
 31 29  1  0
  1 38  1  0
  1 39  1  0
  1 40  1  0
  2 41  1  0
  3 42  1  0
  3 43  1  0
  3 44  1  0
 10 45  1  0
 11 46  1  0
 11 47  1  0
 12 48  1  0
 12 49  1  0
 13 50  1  0
 13 51  1  0
 14 52  1  0
 14 53  1  0
 16 54  1  0
 19 55  1  0
 22 56  1  0
 24 57  1  0
 28 58  1  0
 29 59  1  0
 30 60  1  0
 30 61  1  0
 31 62  1  0
 31 63  1  0
 34 64  1  0
M  END
$$$$
