
     RDKit          3D

 55 59  0  0  0  0  0  0  0  0999 V2000
    9.7086   -0.8973   -0.7320 C   0  0  0  0  0  0  0  0  0  0  0  0
    9.5995    0.1696    0.1167 O   0  0  0  0  0  0  0  0  0  0  0  0
    8.3773    0.7841   -0.0002 C   0  0  0  0  0  0  0  0  0  0  0  0
    7.2055   -0.0780    0.3247 C   0  0  0  0  0  0  0  0  0  0  0  0
    5.9755    0.6272    0.1884 O   0  0  0  0  0  0  0  0  0  0  0  0
    4.7543    0.0202    0.4406 C   0  0  0  0  0  0  0  0  0  0  0  0
    4.7507   -1.2975    0.8313 C   0  0  0  0  0  0  0  0  0  0  0  0
    3.5722   -1.8949    1.0781 N   0  0  0  0  0  0  0  0  0  0  0  0
    2.4015   -1.2177    0.9467 C   0  0  0  0  0  0  0  0  0  0  0  0
    1.1882   -1.8238    1.1981 C   0  0  0  0  0  0  0  0  0  0  0  0
   -0.0012   -1.1437    1.0669 C   0  0  0  0  0  0  0  0  0  0  0  0
   -0.0079    0.1768    0.6759 C   0  0  0  0  0  0  0  0  0  0  0  0
   -1.3314    0.9139    0.5359 C   0  0  2  0  0  0  0  0  0  0  0  0
   -2.2184    0.3709    1.6007 C   0  0  0  0  0  0  0  0  0  0  0  0
   -1.7516    0.6929   -0.8507 C   0  0  0  0  0  0  0  0  0  0  0  0
   -0.8883    0.6662   -1.9191 N   0  0  0  0  0  0  0  0  0  0  0  0
   -1.5734    0.4603   -3.0096 N   0  0  0  0  0  0  0  0  0  0  0  0
   -2.8719    0.3451   -2.7329 C   0  0  0  0  0  0  0  0  0  0  0  0
   -3.9854    0.1302   -3.5223 C   0  0  0  0  0  0  0  0  0  0  0  0
   -3.8475   -0.0108   -4.8493 F   0  0  0  0  0  0  0  0  0  0  0  0
   -5.2189    0.0621   -2.9525 C   0  0  0  0  0  0  0  0  0  0  0  0
   -5.3409    0.2090   -1.5920 C   0  0  0  0  0  0  0  0  0  0  0  0
   -6.6437    0.1463   -0.9150 C   0  0  0  0  0  0  0  0  0  0  0  0
   -6.8463    0.2818    0.4233 C   0  0  0  0  0  0  0  0  0  0  0  0
   -8.2025    0.1590    0.6396 C   0  0  0  0  0  0  0  0  0  0  0  0
   -8.9772    0.2221    1.8945 C   0  0  0  0  0  0  0  0  0  0  0  0
   -8.7589   -0.0445   -0.5711 N   0  0  0  0  0  0  0  0  0  0  0  0
   -7.8201   -0.0458   -1.4532 O   0  0  0  0  0  0  0  0  0  0  0  0
   -4.1877    0.4232   -0.8435 C   0  0  0  0  0  0  0  0  0  0  0  0
   -2.9667    0.4934   -1.3783 N   0  0  0  0  0  0  0  0  0  0  0  0
    1.1857    0.8092    0.4178 C   0  0  0  0  0  0  0  0  0  0  0  0
    2.3777    0.1043    0.5562 C   0  0  0  0  0  0  0  0  0  0  0  0
    3.5817    0.7307    0.2994 C   0  0  0  0  0  0  0  0  0  0  0  0
    9.5605   -0.5464   -1.7849 H   0  0  0  0  0  0  0  0  0  0  0  0
    9.0062   -1.7188   -0.5347 H   0  0  0  0  0  0  0  0  0  0  0  0
   10.7614   -1.2944   -0.7071 H   0  0  0  0  0  0  0  0  0  0  0  0
    8.3236    1.2132   -1.0294 H   0  0  0  0  0  0  0  0  0  0  0  0
    8.4200    1.6701    0.7072 H   0  0  0  0  0  0  0  0  0  0  0  0
    7.2820   -0.3751    1.3906 H   0  0  0  0  0  0  0  0  0  0  0  0
    7.2084   -0.9944   -0.2782 H   0  0  0  0  0  0  0  0  0  0  0  0
    5.6368   -1.8938    0.9557 H   0  0  0  0  0  0  0  0  0  0  0  0
    1.1927   -2.8560    1.5038 H   0  0  0  0  0  0  0  0  0  0  0  0
   -0.9392   -1.6766    1.2802 H   0  0  0  0  0  0  0  0  0  0  0  0
   -1.0968    1.9604    0.7742 H   0  0  0  0  0  0  0  0  0  0  0  0
   -2.9154    1.1467    1.9964 H   0  0  0  0  0  0  0  0  0  0  0  0
   -2.6677   -0.6084    1.4098 H   0  0  0  0  0  0  0  0  0  0  0  0
   -1.5539    0.1755    2.5160 H   0  0  0  0  0  0  0  0  0  0  0  0
   -6.1400   -0.1057   -3.5192 H   0  0  0  0  0  0  0  0  0  0  0  0
   -6.1395    0.4518    1.2101 H   0  0  0  0  0  0  0  0  0  0  0  0
   -9.6848   -0.6498    1.9735 H   0  0  0  0  0  0  0  0  0  0  0  0
   -8.3211    0.2819    2.7802 H   0  0  0  0  0  0  0  0  0  0  0  0
   -9.6415    1.1169    1.8306 H   0  0  0  0  0  0  0  0  0  0  0  0
   -4.2954    0.5452    0.2172 H   0  0  0  0  0  0  0  0  0  0  0  0
    1.2073    1.8464    0.1092 H   0  0  0  0  0  0  0  0  0  0  0  0
    3.5578    1.7674   -0.0065 H   0  0  0  0  0  0  0  0  0  0  0  0
  1  2  1  0
  2  3  1  0
  3  4  1  0
  4  5  1  0
  5  6  1  0
  6  7  2  0
  7  8  1  0
  8  9  2  0
  9 10  1  0
 10 11  2  0
 11 12  1  0
 12 13  1  0
 13 14  1  0
 13 15  1  0
 15 16  2  0
 16 17  1  0
 17 18  2  0
 18 19  1  0
 19 20  1  0
 19 21  2  0
 21 22  1  0
 22 23  1  0
 23 24  2  0
 24 25  1  0
 25 26  1  0
 25 27  2  0
 27 28  1  0
 22 29  2  0
 29 30  1  0
 12 31  2  0
 31 32  1  0
 32 33  2  0
 33  6  1  0
 32  9  1  0
 30 15  1  0
 30 18  1  0
 28 23  1  0
  1 34  1  0
  1 35  1  0
  1 36  1  0
  3 37  1  0
  3 38  1  0
  4 39  1  0
  4 40  1  0
  7 41  1  0
 10 42  1  0
 11 43  1  0
 13 44  1  1
 14 45  1  0
 14 46  1  0
 14 47  1  0
 21 48  1  0
 24 49  1  0
 26 50  1  0
 26 51  1  0
 26 52  1  0
 29 53  1  0
 31 54  1  0
 33 55  1  0
M  END
$$$$
