@<TRIPOS>MOLECULE
*****
 55 59 0 0 0
SMALL
GASTEIGER

@<TRIPOS>ATOM
      1 C           9.7086   -0.8973   -0.7320 C.3     1  UNL1        0.0366
      2 O           9.5995    0.1696    0.1167 O.3     1  UNL1       -0.3796
      3 C           8.3773    0.7841   -0.0002 C.3     1  UNL1        0.0813
      4 C           7.2055   -0.0780    0.3247 C.3     1  UNL1        0.1129
      5 O           5.9755    0.6272    0.1884 O.3     1  UNL1       -0.4882
      6 C           4.7543    0.0202    0.4406 C.ar    1  UNL1        0.1392
      7 C           4.7507   -1.2975    0.8313 C.ar    1  UNL1        0.0699
      8 N           3.5722   -1.8949    1.0781 N.ar    1  UNL1       -0.2514
      9 C           2.4015   -1.2177    0.9467 C.ar    1  UNL1        0.0712
     10 C           1.1882   -1.8238    1.1981 C.ar    1  UNL1       -0.0355
     11 C          -0.0012   -1.1437    1.0669 C.ar    1  UNL1       -0.0559
     12 C          -0.0079    0.1768    0.6759 C.ar    1  UNL1       -0.0365
     13 C          -1.3314    0.9139    0.5359 C.3     1  UNL1        0.0417
     14 C          -2.2184    0.3709    1.6007 C.3     1  UNL1       -0.0514
     15 C          -1.7516    0.6929   -0.8507 C.ar    1  UNL1        0.1450
     16 N          -0.8883    0.6662   -1.9191 N.ar    1  UNL1       -0.1330
     17 N          -1.5734    0.4603   -3.0096 N.ar    1  UNL1       -0.1264
     18 C          -2.8719    0.3451   -2.7329 C.ar    1  UNL1        0.1966
     19 C          -3.9854    0.1302   -3.5223 C.ar    1  UNL1        0.1685
     20 F          -3.8475   -0.0108   -4.8493 F       1  UNL1       -0.2016
     21 C          -5.2189    0.0621   -2.9525 C.ar    1  UNL1       -0.0106
     22 C          -5.3409    0.2090   -1.5920 C.ar    1  UNL1        0.0393
     23 C          -6.6437    0.1463   -0.9150 C.ar    1  UNL1        0.1689
     24 C          -6.8463    0.2818    0.4233 C.ar    1  UNL1        0.0081
     25 C          -8.2025    0.1590    0.6396 C.ar    1  UNL1        0.0812
     26 C          -8.9772    0.2221    1.8945 C.3     1  UNL1       -0.0191
     27 N          -8.7589   -0.0445   -0.5711 N.ar    1  UNL1       -0.0829
     28 O          -7.8201   -0.0458   -1.4532 O.2     1  UNL1       -0.3544
     29 C          -4.1877    0.4232   -0.8435 C.ar    1  UNL1        0.0238
     30 N          -2.9667    0.4934   -1.3783 N.ar    1  UNL1       -0.2829
     31 C           1.1857    0.8092    0.4178 C.ar    1  UNL1       -0.0486
     32 C           2.3777    0.1043    0.5562 C.ar    1  UNL1        0.0041
     33 C           3.5817    0.7307    0.2994 C.ar    1  UNL1       -0.0092
     34 H           9.5605   -0.5464   -1.7849 H       1  UNL1        0.0524
     35 H           9.0062   -1.7188   -0.5347 H       1  UNL1        0.0524
     36 H          10.7614   -1.2944   -0.7071 H       1  UNL1        0.0524
     37 H           8.3236    1.2132   -1.0294 H       1  UNL1        0.0593
     38 H           8.4200    1.6701    0.7072 H       1  UNL1        0.0593
     39 H           7.2820   -0.3751    1.3906 H       1  UNL1        0.0720
     40 H           7.2084   -0.9944   -0.2782 H       1  UNL1        0.0720
     41 H           5.6368   -1.8938    0.9557 H       1  UNL1        0.0867
     42 H           1.1927   -2.8560    1.5038 H       1  UNL1        0.0639
     43 H          -0.9392   -1.6766    1.2802 H       1  UNL1        0.0621
     44 H          -1.0968    1.9604    0.7742 H       1  UNL1        0.0426
     45 H          -2.9154    1.1467    1.9964 H       1  UNL1        0.0240
     46 H          -2.6677   -0.6084    1.4098 H       1  UNL1        0.0240
     47 H          -1.5539    0.1755    2.5160 H       1  UNL1        0.0240
     48 H          -6.1400   -0.1057   -3.5192 H       1  UNL1        0.0655
     49 H          -6.1395    0.4518    1.2101 H       1  UNL1        0.0674
     50 H          -9.6848   -0.6498    1.9735 H       1  UNL1        0.0294
     51 H          -8.3211    0.2819    2.7802 H       1  UNL1        0.0294
     52 H          -9.6415    1.1169    1.8306 H       1  UNL1        0.0294
     53 H          -4.2954    0.5452    0.2172 H       1  UNL1        0.0821
     54 H           1.2073    1.8464    0.1092 H       1  UNL1        0.0627
     55 H           3.5578    1.7674   -0.0065 H       1  UNL1        0.0661
@<TRIPOS>BOND
     1     1     2    1
     2     2     3    1
     3     3     4    1
     4     4     5    1
     5     5     6    1
     6     6     7   ar
     7     7     8   ar
     8     8     9   ar
     9     9    10   ar
    10    10    11   ar
    11    11    12   ar
    12    12    13    1
    13    13    14    1
    14    13    15    1
    15    15    16   ar
    16    16    17   ar
    17    17    18   ar
    18    18    19   ar
    19    19    20    1
    20    19    21   ar
    21    21    22   ar
    22    22    23    1
    23    23    24   ar
    24    24    25   ar
    25    25    26    1
    26    25    27   ar
    27    27    28   ar
    28    22    29   ar
    29    29    30   ar
    30    12    31   ar
    31    31    32   ar
    32    32    33   ar
    33    33     6   ar
    34    32     9   ar
    35    30    15   ar
    36    30    18   ar
    37    28    23   ar
    38     1    34    1
    39     1    35    1
    40     1    36    1
    41     3    37    1
    42     3    38    1
    43     4    39    1
    44     4    40    1
    45     7    41    1
    46    10    42    1
    47    11    43    1
    48    13    44    1
    49    14    45    1
    50    14    46    1
    51    14    47    1
    52    21    48    1
    53    24    49    1
    54    26    50    1
    55    26    51    1
    56    26    52    1
    57    29    53    1
    58    31    54    1
    59    33    55    1
