@<TRIPOS>MOLECULE
*****
 46 47 0 0 0
SMALL
GASTEIGER

@<TRIPOS>ATOM
      1 C          -4.1773    2.5595    0.3265 C.3     1  UNL1       -0.0370
      2 C          -4.0380    1.4461   -0.6640 C.3     1  UNL1        0.0766
      3 C          -4.3540    2.0339   -2.0419 C.3     1  UNL1       -0.0370
      4 O          -2.7841    0.8813   -0.6284 O.3     1  UNL1       -0.2733
      5 N          -2.7882   -0.4276   -0.3753 N.3     1  UNL1       -0.0453
      6 C          -2.8467   -0.7510    1.0360 C.3     1  UNL1        0.1256
      7 C          -3.6740   -1.9749    1.1839 C.2     1  UNL1        0.2536
      8 O          -3.8934   -2.5004    2.3214 O.2     1  UNL1       -0.2722
      9 N          -4.2629   -2.6221    0.0700 N.am    1  UNL1       -0.1963
     10 O          -5.0200   -3.7487    0.2318 O.3     1  UNL1       -0.2951
     11 S          -1.3915   -1.1826   -1.0397 S.O2    1  UNL1        0.0830
     12 O          -1.4408   -2.6771   -0.8860 O.2     1  UNL1       -0.1509
     13 O          -1.3356   -0.8358   -2.5172 O.2     1  UNL1       -0.1509
     14 C           0.0855   -0.6119   -0.3139 C.ar    1  UNL1        0.1079
     15 C           0.7000   -1.1993    0.7562 C.ar    1  UNL1       -0.0318
     16 C           1.8836   -0.6933    1.2983 C.ar    1  UNL1       -0.0175
     17 C           2.4745    0.4297    0.7611 C.ar    1  UNL1        0.1286
     18 O           3.6553    0.9653    1.2734 O.3     1  UNL1       -0.4560
     19 C           4.9125    0.5837    0.8274 C.ar    1  UNL1        0.1284
     20 C           5.5911   -0.4639    1.4152 C.ar    1  UNL1       -0.0193
     21 C           6.8408   -0.8386    0.9675 C.ar    1  UNL1       -0.0583
     22 C           7.4671   -0.1921   -0.0782 C.ar    1  UNL1       -0.0615
     23 C           6.7967    0.8564   -0.6722 C.ar    1  UNL1       -0.0583
     24 C           5.5480    1.2252   -0.2193 C.ar    1  UNL1       -0.0193
     25 C           1.8538    1.0217   -0.3188 C.ar    1  UNL1       -0.0175
     26 C           0.6839    0.5217   -0.8546 C.ar    1  UNL1       -0.0318
     27 H          -3.9094    3.5340   -0.1774 H       1  UNL1        0.0255
     28 H          -5.2713    2.6764    0.5758 H       1  UNL1        0.0255
     29 H          -3.6163    2.4334    1.2510 H       1  UNL1        0.0255
     30 H          -4.8448    0.6935   -0.4707 H       1  UNL1        0.0611
     31 H          -4.1302    1.3204   -2.8512 H       1  UNL1        0.0255
     32 H          -5.4208    2.3521   -2.0333 H       1  UNL1        0.0255
     33 H          -3.7560    2.9784   -2.1461 H       1  UNL1        0.0255
     34 H          -3.2946    0.0855    1.6289 H       1  UNL1        0.0565
     35 H          -1.8519   -0.9930    1.4588 H       1  UNL1        0.0565
     36 H          -4.1431   -2.2665   -0.8891 H       1  UNL1        0.1822
     37 H          -4.5808   -4.5329   -0.1610 H       1  UNL1        0.2414
     38 H           0.2494   -2.0875    1.1911 H       1  UNL1        0.0638
     39 H           2.3137   -1.1983    2.1345 H       1  UNL1        0.0655
     40 H           5.1208   -0.9943    2.2447 H       1  UNL1        0.0654
     41 H           7.3746   -1.6740    1.4409 H       1  UNL1        0.0619
     42 H           8.4515   -0.4928   -0.4254 H       1  UNL1        0.0618
     43 H           7.2593    1.3890   -1.4988 H       1  UNL1        0.0619
     44 H           5.0188    2.0561   -0.6914 H       1  UNL1        0.0654
     45 H           2.3289    1.9137   -0.7406 H       1  UNL1        0.0655
     46 H           0.2161    1.0018   -1.7000 H       1  UNL1        0.0638
@<TRIPOS>BOND
     1     1     2    1
     2     2     3    1
     3     2     4    1
     4     4     5    1
     5     5     6    1
     6     6     7    1
     7     7     8    2
     8     7     9   am
     9     9    10    1
    10     5    11    1
    11    11    12    2
    12    11    13    2
    13    11    14    1
    14    14    15   ar
    15    15    16   ar
    16    16    17   ar
    17    17    18    1
    18    18    19    1
    19    19    20   ar
    20    20    21   ar
    21    21    22   ar
    22    22    23   ar
    23    23    24   ar
    24    17    25   ar
    25    25    26   ar
    26    26    14   ar
    27    24    19   ar
    28     1    27    1
    29     1    28    1
    30     1    29    1
    31     2    30    1
    32     3    31    1
    33     3    32    1
    34     3    33    1
    35     6    34    1
    36     6    35    1
    37     9    36    1
    38    10    37    1
    39    15    38    1
    40    16    39    1
    41    20    40    1
    42    21    41    1
    43    22    42    1
    44    23    43    1
    45    24    44    1
    46    25    45    1
    47    26    46    1
