
     RDKit          3D

 55 58  0  0  0  0  0  0  0  0999 V2000
    7.0059   -0.1068   -0.5951 C   0  0  0  0  0  0  0  0  0  0  0  0
    5.6816   -0.4947   -0.0837 C   0  0  0  0  0  0  0  0  0  0  0  0
    4.6306    0.3808   -0.0061 C   0  0  0  0  0  0  0  0  0  0  0  0
    3.3487    0.0801    0.4678 C   0  0  0  0  0  0  0  0  0  0  0  0
    2.3716    1.1917    0.4673 C   0  0  0  0  0  0  0  0  0  0  0  0
    1.6458    1.3490   -0.7489 N   0  0  0  0  0  0  0  0  0  0  0  0
    0.6939    2.4317   -0.7184 C   0  0  0  0  0  0  0  0  0  0  0  0
   -0.5891    1.9654   -0.0752 C   0  0  0  0  0  0  0  0  0  0  0  0
   -1.0951    0.7493   -0.5978 N   0  0  0  0  0  0  0  0  0  0  0  0
   -0.2820   -0.0055   -1.4624 C   0  0  0  0  0  0  0  0  0  0  0  0
    1.1904    0.1727   -1.3808 C   0  0  0  0  0  0  0  0  0  0  0  0
   -1.9343    0.0178    0.3140 C   0  0  0  0  0  0  0  0  0  0  0  0
   -3.0726    0.9489    0.6427 C   0  0  0  0  0  0  0  0  0  0  0  0
   -3.4879    1.0818    1.9539 C   0  0  0  0  0  0  0  0  0  0  0  0
   -4.5177    1.9069    2.3562 C   0  0  0  0  0  0  0  0  0  0  0  0
   -5.1805    2.6507    1.3930 C   0  0  0  0  0  0  0  0  0  0  0  0
   -4.7859    2.5363    0.0788 C   0  0  0  0  0  0  0  0  0  0  0  0
   -3.7523    1.7022   -0.2911 C   0  0  0  0  0  0  0  0  0  0  0  0
   -2.4162   -1.2554   -0.2236 C   0  0  0  0  0  0  0  0  0  0  0  0
   -2.3817   -2.4189    0.5515 C   0  0  0  0  0  0  0  0  0  0  0  0
   -2.8119   -3.6614    0.1369 C   0  0  0  0  0  0  0  0  0  0  0  0
   -3.3192   -3.7846   -1.1404 C   0  0  0  0  0  0  0  0  0  0  0  0
   -3.8932   -5.2863   -1.7857 Cl  0  0  0  0  0  0  0  0  0  0  0  0
   -3.3725   -2.6481   -1.9500 C   0  0  0  0  0  0  0  0  0  0  0  0
   -2.9287   -1.4254   -1.4875 C   0  0  0  0  0  0  0  0  0  0  0  0
    3.1829   -1.2424    0.8852 C   0  0  0  0  0  0  0  0  0  0  0  0
    4.2326   -2.1300    0.8112 C   0  0  0  0  0  0  0  0  0  0  0  0
    5.4650   -1.7939    0.3424 C   0  0  0  0  0  0  0  0  0  0  0  0
    7.8174   -0.7558   -0.1980 H   0  0  0  0  0  0  0  0  0  0  0  0
    7.0087   -0.2504   -1.7034 H   0  0  0  0  0  0  0  0  0  0  0  0
    7.2221    0.9838   -0.4317 H   0  0  0  0  0  0  0  0  0  0  0  0
    4.8586    1.3856   -0.3542 H   0  0  0  0  0  0  0  0  0  0  0  0
    1.6389    1.0885    1.3115 H   0  0  0  0  0  0  0  0  0  0  0  0
    2.9365    2.1282    0.7354 H   0  0  0  0  0  0  0  0  0  0  0  0
    1.1059    3.2128   -0.0449 H   0  0  0  0  0  0  0  0  0  0  0  0
    0.4840    2.9008   -1.6816 H   0  0  0  0  0  0  0  0  0  0  0  0
   -1.3510    2.7669   -0.2295 H   0  0  0  0  0  0  0  0  0  0  0  0
   -0.4731    1.8613    1.0139 H   0  0  0  0  0  0  0  0  0  0  0  0
   -0.4992   -1.1029   -1.3223 H   0  0  0  0  0  0  0  0  0  0  0  0
   -0.6424    0.1805   -2.5168 H   0  0  0  0  0  0  0  0  0  0  0  0
    1.6738   -0.7425   -0.9723 H   0  0  0  0  0  0  0  0  0  0  0  0
    1.5859    0.2145   -2.4444 H   0  0  0  0  0  0  0  0  0  0  0  0
   -1.3613   -0.1364    1.2508 H   0  0  0  0  0  0  0  0  0  0  0  0
   -3.0336    0.5446    2.7716 H   0  0  0  0  0  0  0  0  0  0  0  0
   -4.8534    2.0223    3.3705 H   0  0  0  0  0  0  0  0  0  0  0  0
   -5.9988    3.3341    1.5517 H   0  0  0  0  0  0  0  0  0  0  0  0
   -5.2685    3.0956   -0.7246 H   0  0  0  0  0  0  0  0  0  0  0  0
   -3.4541    1.6228   -1.3203 H   0  0  0  0  0  0  0  0  0  0  0  0
   -1.9907   -2.3769    1.5671 H   0  0  0  0  0  0  0  0  0  0  0  0
   -2.7574   -4.5138    0.7823 H   0  0  0  0  0  0  0  0  0  0  0  0
   -3.7641   -2.6993   -2.9615 H   0  0  0  0  0  0  0  0  0  0  0  0
   -2.9907   -0.5753   -2.1531 H   0  0  0  0  0  0  0  0  0  0  0  0
    2.1753   -1.4437    1.2509 H   0  0  0  0  0  0  0  0  0  0  0  0
    4.0325   -3.1452    1.1539 H   0  0  0  0  0  0  0  0  0  0  0  0
    6.2708   -2.5121    0.2960 H   0  0  0  0  0  0  0  0  0  0  0  0
  1  2  1  0
  2  3  2  0
  3  4  1  0
  4  5  1  0
  5  6  1  0
  6  7  1  0
  7  8  1  0
  8  9  1  0
  9 10  1  0
 10 11  1  0
  9 12  1  0
 12 13  1  0
 13 14  2  0
 14 15  1  0
 15 16  2  0
 16 17  1  0
 17 18  2  0
 12 19  1  0
 19 20  2  0
 20 21  1  0
 21 22  2  0
 22 23  1  0
 22 24  1  0
 24 25  2  0
  4 26  2  0
 26 27  1  0
 27 28  2  0
 28  2  1  0
 11  6  1  0
 18 13  1  0
 25 19  1  0
  1 29  1  0
  1 30  1  0
  1 31  1  0
  3 32  1  0
  5 33  1  0
  5 34  1  0
  7 35  1  0
  7 36  1  0
  8 37  1  0
  8 38  1  0
 10 39  1  0
 10 40  1  0
 11 41  1  0
 11 42  1  0
 12 43  1  0
 14 44  1  0
 15 45  1  0
 16 46  1  0
 17 47  1  0
 18 48  1  0
 20 49  1  0
 21 50  1  0
 24 51  1  0
 25 52  1  0
 26 53  1  0
 27 54  1  0
 28 55  1  0
M  END
$$$$
