@<TRIPOS>MOLECULE
*****
 55 58 0 0 0
SMALL
GASTEIGER

@<TRIPOS>ATOM
      1 C           7.0059   -0.1068   -0.5951 C.3     1  UNL1       -0.0397
      2 C           5.6816   -0.4947   -0.0837 C.ar    1  UNL1       -0.0501
      3 C           4.6306    0.3808   -0.0061 C.ar    1  UNL1       -0.0544
      4 C           3.3487    0.0801    0.4678 C.ar    1  UNL1       -0.0331
      5 C           2.3716    1.1917    0.4673 C.3     1  UNL1        0.0241
      6 N           1.6458    1.3490   -0.7489 N.3     1  UNL1       -0.2957
      7 C           0.6939    2.4317   -0.7184 C.3     1  UNL1        0.0121
      8 C          -0.5891    1.9654   -0.0752 C.3     1  UNL1        0.0126
      9 N          -1.0951    0.7493   -0.5978 N.3     1  UNL1       -0.2891
     10 C          -0.2820   -0.0055   -1.4624 C.3     1  UNL1        0.0126
     11 C           1.1904    0.1727   -1.3808 C.3     1  UNL1        0.0121
     12 C          -1.9343    0.0178    0.3140 C.3     1  UNL1        0.0610
     13 C          -3.0726    0.9489    0.6427 C.ar    1  UNL1       -0.0259
     14 C          -3.4879    1.0818    1.9539 C.ar    1  UNL1       -0.0568
     15 C          -4.5177    1.9069    2.3562 C.ar    1  UNL1       -0.0614
     16 C          -5.1805    2.6507    1.3930 C.ar    1  UNL1       -0.0617
     17 C          -4.7859    2.5363    0.0788 C.ar    1  UNL1       -0.0614
     18 C          -3.7523    1.7022   -0.2911 C.ar    1  UNL1       -0.0568
     19 C          -2.4162   -1.2554   -0.2236 C.ar    1  UNL1       -0.0258
     20 C          -2.3817   -2.4189    0.5515 C.ar    1  UNL1       -0.0554
     21 C          -2.8119   -3.6614    0.1369 C.ar    1  UNL1       -0.0431
     22 C          -3.3192   -3.7846   -1.1404 C.ar    1  UNL1        0.0410
     23 CL         -3.8932   -5.2863   -1.7857 Cl      1  UNL1       -0.0835
     24 C          -3.3725   -2.6481   -1.9500 C.ar    1  UNL1       -0.0431
     25 C          -2.9287   -1.4254   -1.4875 C.ar    1  UNL1       -0.0554
     26 C           3.1829   -1.2424    0.8852 C.ar    1  UNL1       -0.0573
     27 C           4.2326   -2.1300    0.8112 C.ar    1  UNL1       -0.0612
     28 C           5.4650   -1.7939    0.3424 C.ar    1  UNL1       -0.0588
     29 H           7.8174   -0.7558   -0.1980 H       1  UNL1        0.0278
     30 H           7.0087   -0.2504   -1.7034 H       1  UNL1        0.0278
     31 H           7.2221    0.9838   -0.4317 H       1  UNL1        0.0278
     32 H           4.8586    1.3856   -0.3542 H       1  UNL1        0.0623
     33 H           1.6389    1.0885    1.3115 H       1  UNL1        0.0476
     34 H           2.9365    2.1282    0.7354 H       1  UNL1        0.0476
     35 H           1.1059    3.2128   -0.0449 H       1  UNL1        0.0439
     36 H           0.4840    2.9008   -1.6816 H       1  UNL1        0.0439
     37 H          -1.3510    2.7669   -0.2295 H       1  UNL1        0.0439
     38 H          -0.4731    1.8613    1.0139 H       1  UNL1        0.0439
     39 H          -0.4992   -1.1029   -1.3223 H       1  UNL1        0.0439
     40 H          -0.6424    0.1805   -2.5168 H       1  UNL1        0.0439
     41 H           1.6738   -0.7425   -0.9723 H       1  UNL1        0.0439
     42 H           1.5859    0.2145   -2.4444 H       1  UNL1        0.0439
     43 H          -1.3613   -0.1364    1.2508 H       1  UNL1        0.0562
     44 H          -3.0336    0.5446    2.7716 H       1  UNL1        0.0621
     45 H          -4.8534    2.0223    3.3705 H       1  UNL1        0.0618
     46 H          -5.9988    3.3341    1.5517 H       1  UNL1        0.0618
     47 H          -5.2685    3.0956   -0.7246 H       1  UNL1        0.0618
     48 H          -3.4541    1.6228   -1.3203 H       1  UNL1        0.0621
     49 H          -1.9907   -2.3769    1.5671 H       1  UNL1        0.0621
     50 H          -2.7574   -4.5138    0.7823 H       1  UNL1        0.0632
     51 H          -3.7641   -2.6993   -2.9615 H       1  UNL1        0.0632
     52 H          -2.9907   -0.5753   -2.1531 H       1  UNL1        0.0621
     53 H           2.1753   -1.4437    1.2509 H       1  UNL1        0.0621
     54 H           4.0325   -3.1452    1.1539 H       1  UNL1        0.0618
     55 H           6.2708   -2.5121    0.2960 H       1  UNL1        0.0620
@<TRIPOS>BOND
     1     1     2    1
     2     2     3   ar
     3     3     4   ar
     4     4     5    1
     5     5     6    1
     6     6     7    1
     7     7     8    1
     8     8     9    1
     9     9    10    1
    10    10    11    1
    11     9    12    1
    12    12    13    1
    13    13    14   ar
    14    14    15   ar
    15    15    16   ar
    16    16    17   ar
    17    17    18   ar
    18    12    19    1
    19    19    20   ar
    20    20    21   ar
    21    21    22   ar
    22    22    23    1
    23    22    24   ar
    24    24    25   ar
    25     4    26   ar
    26    26    27   ar
    27    27    28   ar
    28    28     2   ar
    29    11     6    1
    30    18    13   ar
    31    25    19   ar
    32     1    29    1
    33     1    30    1
    34     1    31    1
    35     3    32    1
    36     5    33    1
    37     5    34    1
    38     7    35    1
    39     7    36    1
    40     8    37    1
    41     8    38    1
    42    10    39    1
    43    10    40    1
    44    11    41    1
    45    11    42    1
    46    12    43    1
    47    14    44    1
    48    15    45    1
    49    16    46    1
    50    17    47    1
    51    18    48    1
    52    20    49    1
    53    21    50    1
    54    24    51    1
    55    25    52    1
    56    26    53    1
    57    27    54    1
    58    28    55    1
