@<TRIPOS>MOLECULE
*****
 54 57 0 0 0
SMALL
GASTEIGER

@<TRIPOS>ATOM
      1 C          -0.0960    0.8109   -0.6376 C.3     1  UNL1        0.1042
      2 S           0.1337   -0.9711   -0.4185 S.3     1  UNL1       -0.1311
      3 C          -0.9839   -1.4517    0.8967 C.3     1  UNL1        0.0196
      4 C          -1.6115   -0.3604    1.6359 C.2     1  UNL1       -0.0211
      5 C          -2.6333   -0.8768    2.5428 C.3     1  UNL1        0.0252
      6 S          -4.0207   -1.7031    1.7194 S.3     1  UNL1       -0.0818
      7 C          -4.9498   -0.4771    0.8139 C.ar    1  UNL1        0.1872
      8 N          -5.8978    0.0751    1.5986 N.ar    1  UNL1       -0.1791
      9 C          -6.7154    1.0355    1.0728 C.ar    1  UNL1        0.3384
     10 O          -7.6355    1.6055    1.7464 O.2     1  UNL1       -0.2598
     11 C          -6.5974    1.4550   -0.2367 C.ar    1  UNL1        0.3298
     12 O          -7.3332    2.3389   -0.7558 O.2     1  UNL1       -0.2605
     13 N          -5.6287    0.8506   -0.9387 N.ar    1  UNL1       -0.2573
     14 N          -4.8225   -0.0799   -0.4617 N.ar    1  UNL1       -0.2644
     15 C          -3.7874   -0.7395   -1.2077 C.3     1  UNL1        0.0309
     16 CA         -1.3350    0.9192    1.5740 C.2     1  UNL1        0.1228
     17 N          -0.3100    1.3462    0.6998 N.am    1  UNL1       -0.2490
     18 C           0.8024    2.2083    0.4810 C.2     1  UNL1        0.2440
     19 O           1.3480    3.2294    1.0097 O.2     1  UNL1       -0.2731
     20 CA          1.2519    1.4975   -0.7319 C.3     1  UNL1        0.1286
     21 N           2.3719    0.6201   -0.4570 N.am    1  UNL1       -0.2963
     22 C           3.5152    0.4730   -1.2824 C.2     1  UNL1        0.2684
     23 O           3.3803    1.2425   -2.2944 O.2     1  UNL1       -0.2683
     24 C           4.6806   -0.3704   -1.0997 C.2     1  UNL1        0.1897
     25 N           5.5660   -0.2789   -2.0448 N.2     1  UNL1       -0.0779
     26 O           5.3951    0.5685   -3.1431 O.2     1  UNL1       -0.3964
     27 C           5.6764   -0.0063   -4.4272 C.3     1  UNL1        0.1072
     28 C           4.9198   -1.2787    0.0175 C.ar    1  UNL1        0.1067
     29 C           6.1311   -2.0311    0.0017 C.ar    1  UNL1        0.0067
     30 S           5.9470   -2.9729    1.5622 S.2     1  UNL1       -0.0604
     31 C           4.2614   -2.1822    1.9622 C.ar    1  UNL1        0.1562
     32 N           3.3934   -2.4026    3.0920 N.pl3   1  UNL1       -0.3375
     33 N           4.0338   -1.3864    0.9997 N.ar    1  UNL1       -0.2233
     34 C          -2.0265    1.9751    2.3329 C.2     1  UNL1        0.3514
     35 O          -1.7608    3.3312    2.3110 O.3     1  UNL1       -0.4763
     36 OXT        -2.9730    2.0587    3.1611 O.2     1  UNL1       -0.2437
     37 H          -0.8189    1.1133   -1.3890 H       1  UNL1        0.0644
     38 H          -0.5259   -2.1888    1.5997 H       1  UNL1        0.0423
     39 H          -1.8034   -2.0499    0.4014 H       1  UNL1        0.0423
     40 H          -2.9924   -0.1567    3.2996 H       1  UNL1        0.0427
     41 H          -2.1317   -1.6890    3.1722 H       1  UNL1        0.0427
     42 H          -5.4913    1.1286   -1.9423 H       1  UNL1        0.1903
     43 H          -3.7715   -1.8212   -0.9364 H       1  UNL1        0.0473
     44 H          -4.0683   -0.7391   -2.2990 H       1  UNL1        0.0473
     45 H          -2.7895   -0.3100   -1.0514 H       1  UNL1        0.0473
     46 HA          1.3302    2.0973   -1.6490 H       1  UNL1        0.0622
     47 H           2.3307    0.0547    0.4149 H       1  UNL1        0.1499
     48 H           5.4268    0.6782   -5.2424 H       1  UNL1        0.0687
     49 H           6.7688   -0.2059   -4.5094 H       1  UNL1        0.0687
     50 H           5.1377   -0.9691   -4.5628 H       1  UNL1        0.0687
     51 H           6.9212   -2.1110   -0.6156 H       1  UNL1        0.0716
     52 H           2.8282   -3.2658    3.3253 H       1  UNL1        0.1442
     53 H           3.4292   -1.5079    3.6630 H       1  UNL1        0.1442
     54 H          -1.4696    3.8701    3.1490 H       1  UNL1        0.2954
@<TRIPOS>BOND
     1     1     2    1
     2     2     3    1
     3     3     4    1
     4     4     5    1
     5     5     6    1
     6     6     7    1
     7     7     8   ar
     8     8     9   ar
     9     9    10    2
    10     9    11   ar
    11    11    12    2
    12    11    13   ar
    13    13    14   ar
    14    14    15    1
    15     4    16    2
    16    16    17    1
    17    17    18   am
    18    18    19    2
    19    18    20    1
    20    20    21    1
    21    21    22   am
    22    22    23    2
    23    22    24    1
    24    24    25    2
    25    25    26    1
    26    26    27    1
    27    24    28    1
    28    28    29   ar
    29    29    30   ar
    30    30    31   ar
    31    31    32    1
    32    31    33   ar
    33    16    34    1
    34    34    35    1
    35    34    36    2
    36    17     1    1
    37    33    28   ar
    38    20     1    1
    39    14     7   ar
    40     1    37    1
    41     3    38    1
    42     3    39    1
    43     5    40    1
    44     5    41    1
    45    13    42    1
    46    15    43    1
    47    15    44    1
    48    15    45    1
    49    20    46    1
    50    21    47    1
    51    27    48    1
    52    27    49    1
    53    27    50    1
    54    29    51    1
    55    32    52    1
    56    32    53    1
    57    35    54    1
