@<TRIPOS>MOLECULE
*****
 44 44 0 0 0
SMALL
GASTEIGER

@<TRIPOS>ATOM
      1 C           0.2539    2.1279    0.1840 C.3     1  UNL1       -0.0126
      2 N          -0.0815    0.7684    0.5200 N.3     1  UNL1       -0.3020
      3 C           0.6062   -0.1998   -0.2900 C.3     1  UNL1        0.0328
      4 C           2.0837   -0.1082    0.1019 C.3     1  UNL1        0.1022
      5 O           2.8679   -1.0062   -0.6159 O.3     1  UNL1       -0.4907
      6 C           4.2299   -1.0602   -0.3992 C.ar    1  UNL1        0.1206
      7 C           5.0462   -1.9487   -1.1001 C.ar    1  UNL1       -0.0199
      8 C           6.4081   -2.0218   -0.9018 C.ar    1  UNL1       -0.0583
      9 C           7.0014   -1.1935    0.0196 C.ar    1  UNL1       -0.0615
     10 C           6.2325   -0.3104    0.7250 C.ar    1  UNL1       -0.0583
     11 C           4.8762   -0.2502    0.5149 C.ar    1  UNL1       -0.0199
     12 C          -1.4796    0.5323    0.6704 C.3     1  UNL1        0.0025
     13 C          -2.2542    0.6408   -0.6201 C.3     1  UNL1        0.0119
     14 C          -3.7261    0.3887   -0.4192 C.3     1  UNL1        0.2682
     15 O          -4.3659    0.5091   -1.6558 O.3     1  UNL1       -0.3671
     16 P          -3.9869   -1.3126    0.1364 P.3     1  UNL1        0.3710
     17 O          -3.6603   -1.4951    1.5992 O.2     1  UNL1       -0.2551
     18 O          -2.9946   -2.3222   -0.7633 O.3     1  UNL1       -0.3217
     19 O          -5.5853   -1.7988   -0.1071 O.3     1  UNL1       -0.3217
     20 P          -4.4955    1.5757    0.6966 P.3     1  UNL1        0.3710
     21 O          -5.9994    1.6334    0.4281 O.2     1  UNL1       -0.2551
     22 O          -4.3356    1.0839    2.3189 O.3     1  UNL1       -0.3217
     23 O          -3.8945    3.1266    0.5262 O.3     1  UNL1       -0.3217
     24 H          -0.5673    2.8257    0.4460 H       1  UNL1        0.0391
     25 H           1.1505    2.3955    0.7803 H       1  UNL1        0.0391
     26 H           0.5372    2.2274   -0.8892 H       1  UNL1        0.0391
     27 H           0.5373   -0.0119   -1.3754 H       1  UNL1        0.0460
     28 H           0.2071   -1.1951   -0.0570 H       1  UNL1        0.0460
     29 H           2.1458   -0.2066    1.1968 H       1  UNL1        0.0709
     30 H           2.4065    0.9255   -0.1657 H       1  UNL1        0.0709
     31 H           4.5608   -2.5828   -1.8098 H       1  UNL1        0.0654
     32 H           7.0453   -2.7154   -1.4467 H       1  UNL1        0.0619
     33 H           8.0773   -1.2658    0.1601 H       1  UNL1        0.0618
     34 H           6.6746    0.3400    1.4458 H       1  UNL1        0.0619
     35 H           4.2471    0.4482    1.0666 H       1  UNL1        0.0654
     36 H          -1.6167   -0.4791    1.1019 H       1  UNL1        0.0428
     37 H          -1.8775    1.2853    1.3764 H       1  UNL1        0.0428
     38 H          -2.0896    1.6352   -1.0838 H       1  UNL1        0.0318
     39 H          -1.8780   -0.1672   -1.2841 H       1  UNL1        0.0318
     40 H          -4.1703   -0.2620   -2.2526 H       1  UNL1        0.2117
     41 H          -3.4718   -3.1390   -1.0827 H       1  UNL1        0.2198
     42 H          -6.2191   -1.0413    0.0088 H       1  UNL1        0.2198
     43 H          -4.9091    0.2897    2.4706 H       1  UNL1        0.2198
     44 H          -3.5366    3.3346   -0.3528 H       1  UNL1        0.2198
@<TRIPOS>BOND
     1     1     2    1
     2     2     3    1
     3     3     4    1
     4     4     5    1
     5     5     6    1
     6     6     7   ar
     7     7     8   ar
     8     8     9   ar
     9     9    10   ar
    10    10    11   ar
    11     2    12    1
    12    12    13    1
    13    13    14    1
    14    14    15    1
    15    14    16    1
    16    16    17    2
    17    16    18    1
    18    16    19    1
    19    14    20    1
    20    20    21    2
    21    20    22    1
    22    20    23    1
    23    11     6   ar
    24     1    24    1
    25     1    25    1
    26     1    26    1
    27     3    27    1
    28     3    28    1
    29     4    29    1
    30     4    30    1
    31     7    31    1
    32     8    32    1
    33     9    33    1
    34    10    34    1
    35    11    35    1
    36    12    36    1
    37    12    37    1
    38    13    38    1
    39    13    39    1
    40    15    40    1
    41    18    41    1
    42    19    42    1
    43    22    43    1
    44    23    44    1
