
     RDKit          3D

 44 44  0  0  0  0  0  0  0  0999 V2000
    0.2539    2.1279    0.1840 C   0  0  0  0  0  0  0  0  0  0  0  0
   -0.0815    0.7684    0.5200 N   0  0  0  0  0  0  0  0  0  0  0  0
    0.6062   -0.1998   -0.2900 C   0  0  0  0  0  0  0  0  0  0  0  0
    2.0837   -0.1082    0.1019 C   0  0  0  0  0  0  0  0  0  0  0  0
    2.8679   -1.0062   -0.6159 O   0  0  0  0  0  0  0  0  0  0  0  0
    4.2299   -1.0602   -0.3992 C   0  0  0  0  0  0  0  0  0  0  0  0
    5.0462   -1.9487   -1.1001 C   0  0  0  0  0  0  0  0  0  0  0  0
    6.4081   -2.0218   -0.9018 C   0  0  0  0  0  0  0  0  0  0  0  0
    7.0014   -1.1935    0.0196 C   0  0  0  0  0  0  0  0  0  0  0  0
    6.2325   -0.3104    0.7250 C   0  0  0  0  0  0  0  0  0  0  0  0
    4.8762   -0.2502    0.5149 C   0  0  0  0  0  0  0  0  0  0  0  0
   -1.4796    0.5323    0.6704 C   0  0  0  0  0  0  0  0  0  0  0  0
   -2.2542    0.6408   -0.6201 C   0  0  0  0  0  0  0  0  0  0  0  0
   -3.7261    0.3887   -0.4192 C   0  0  0  0  0  0  0  0  0  0  0  0
   -4.3659    0.5091   -1.6558 O   0  0  0  0  0  0  0  0  0  0  0  0
   -3.9869   -1.3126    0.1364 P   0  0  0  0  0  5  0  0  0  0  0  0
   -3.6603   -1.4951    1.5992 O   0  0  0  0  0  0  0  0  0  0  0  0
   -2.9946   -2.3222   -0.7633 O   0  0  0  0  0  0  0  0  0  0  0  0
   -5.5853   -1.7988   -0.1071 O   0  0  0  0  0  0  0  0  0  0  0  0
   -4.4955    1.5757    0.6966 P   0  0  0  0  0  5  0  0  0  0  0  0
   -5.9994    1.6334    0.4281 O   0  0  0  0  0  0  0  0  0  0  0  0
   -4.3356    1.0839    2.3189 O   0  0  0  0  0  0  0  0  0  0  0  0
   -3.8945    3.1266    0.5262 O   0  0  0  0  0  0  0  0  0  0  0  0
   -0.5673    2.8257    0.4460 H   0  0  0  0  0  0  0  0  0  0  0  0
    1.1505    2.3955    0.7803 H   0  0  0  0  0  0  0  0  0  0  0  0
    0.5372    2.2274   -0.8892 H   0  0  0  0  0  0  0  0  0  0  0  0
    0.5373   -0.0119   -1.3754 H   0  0  0  0  0  0  0  0  0  0  0  0
    0.2071   -1.1951   -0.0570 H   0  0  0  0  0  0  0  0  0  0  0  0
    2.1458   -0.2066    1.1968 H   0  0  0  0  0  0  0  0  0  0  0  0
    2.4065    0.9255   -0.1657 H   0  0  0  0  0  0  0  0  0  0  0  0
    4.5608   -2.5828   -1.8098 H   0  0  0  0  0  0  0  0  0  0  0  0
    7.0453   -2.7154   -1.4467 H   0  0  0  0  0  0  0  0  0  0  0  0
    8.0773   -1.2658    0.1601 H   0  0  0  0  0  0  0  0  0  0  0  0
    6.6746    0.3400    1.4458 H   0  0  0  0  0  0  0  0  0  0  0  0
    4.2471    0.4482    1.0666 H   0  0  0  0  0  0  0  0  0  0  0  0
   -1.6167   -0.4791    1.1019 H   0  0  0  0  0  0  0  0  0  0  0  0
   -1.8775    1.2853    1.3764 H   0  0  0  0  0  0  0  0  0  0  0  0
   -2.0896    1.6352   -1.0838 H   0  0  0  0  0  0  0  0  0  0  0  0
   -1.8780   -0.1672   -1.2841 H   0  0  0  0  0  0  0  0  0  0  0  0
   -4.1703   -0.2620   -2.2526 H   0  0  0  0  0  0  0  0  0  0  0  0
   -3.4718   -3.1390   -1.0827 H   0  0  0  0  0  0  0  0  0  0  0  0
   -6.2191   -1.0413    0.0088 H   0  0  0  0  0  0  0  0  0  0  0  0
   -4.9091    0.2897    2.4706 H   0  0  0  0  0  0  0  0  0  0  0  0
   -3.5366    3.3346   -0.3528 H   0  0  0  0  0  0  0  0  0  0  0  0
  1  2  1  0
  2  3  1  0
  3  4  1  0
  4  5  1  0
  5  6  1  0
  6  7  2  0
  7  8  1  0
  8  9  2  0
  9 10  1  0
 10 11  2  0
  2 12  1  0
 12 13  1  0
 13 14  1  0
 14 15  1  0
 14 16  1  0
 16 17  2  0
 16 18  1  0
 16 19  1  0
 14 20  1  0
 20 21  2  0
 20 22  1  0
 20 23  1  0
 11  6  1  0
  1 24  1  0
  1 25  1  0
  1 26  1  0
  3 27  1  0
  3 28  1  0
  4 29  1  0
  4 30  1  0
  7 31  1  0
  8 32  1  0
  9 33  1  0
 10 34  1  0
 11 35  1  0
 12 36  1  0
 12 37  1  0
 13 38  1  0
 13 39  1  0
 15 40  1  0
 18 41  1  0
 19 42  1  0
 22 43  1  0
 23 44  1  0
M  END
$$$$
