@<TRIPOS>MOLECULE
*****
 65 67 0 0 0
SMALL
GASTEIGER

@<TRIPOS>ATOM
      1 C          -0.4935    3.1992   -0.2474 C.3     1  UNL1       -0.0432
      2 C          -0.1533    4.5260   -0.7138 C.3     1  UNL1       -0.0624
      3 C          -1.5516    2.9173    0.7424 C.3     1  UNL1       -0.0465
      4 C          -2.9313    3.2964    0.2830 C.3     1  UNL1       -0.0274
      5 C          -3.8121    2.2232    0.9065 C.ar    1  UNL1       -0.0471
      6 C          -3.4056    1.0866    0.1531 C.ar    1  UNL1       -0.0553
      7 C          -3.8684   -0.2432    0.2736 C.ar    1  UNL1       -0.0448
      8 C          -3.3472   -1.2610   -0.6334 C.3     1  UNL1        0.0006
      9 C          -2.8242   -2.5411   -0.1124 C.3     1  UNL1        0.1158
     10 C          -3.8255   -3.3705    0.6673 C.3     1  UNL1       -0.0362
     11 N          -2.6274   -3.3642   -1.3708 N.3     1  UNL1       -0.3158
     12 C          -1.5202   -2.4761    0.5159 C.2     1  UNL1        0.3276
     13 O          -0.7512   -2.8305   -0.4368 O.2     1  UNL1       -0.2487
     14 O          -0.6015   -2.2754    1.4926 O.3     1  UNL1       -0.4586
     15 C           0.7867   -2.4283    1.4156 C.3     1  UNL1        0.1177
     16 C           1.4893   -1.5148    0.5061 C.ar    1  UNL1       -0.0053
     17 C           1.2485   -0.3193   -0.1059 C.ar    1  UNL1       -0.0339
     18 C           2.0752    0.4794   -0.9124 C.ar    1  UNL1        0.0438
     19 C           1.1756    1.6612   -1.2103 C.3     1  UNL1       -0.0101
     20 C           0.6385    2.2198    0.0629 C.3     1  UNL1       -0.0450
     21 N           3.2837   -0.0266   -1.1046 N.ar    1  UNL1       -0.2354
     22 C           3.6625   -1.2147   -0.5566 C.ar    1  UNL1        0.1405
     23 C           2.7783   -1.9240    0.2232 C.ar    1  UNL1       -0.0138
     24 N           4.9984   -1.5237   -0.9186 N.pl3   1  UNL1       -0.1935
     25 C           5.1345   -2.2951   -2.1537 C.3     1  UNL1        0.0247
     26 S           6.3674   -1.0512   -0.0115 S.O2    1  UNL1        0.0435
     27 C           6.3754    0.7381    0.0154 C.3     1  UNL1        0.0738
     28 O           7.6050   -1.4630   -0.7579 O.2     1  UNL1       -0.1552
     29 O           6.3680   -1.5606    1.3948 O.2     1  UNL1       -0.1552
     30 C          -4.8115   -0.3090    1.2640 C.ar    1  UNL1       -0.0585
     31 C          -5.2399    0.7523    2.0199 C.ar    1  UNL1       -0.0612
     32 C          -4.7555    2.0247    1.8588 C.ar    1  UNL1       -0.0586
     33 H          -0.9944    2.7136   -1.2377 H       1  UNL1        0.0298
     34 H          -0.2788    5.3514    0.0438 H       1  UNL1        0.0232
     35 H          -0.7889    4.8913   -1.5749 H       1  UNL1        0.0232
     36 H           0.9014    4.5820   -1.1123 H       1  UNL1        0.0232
     37 H          -1.2934    3.4620    1.6956 H       1  UNL1        0.0271
     38 H          -1.4975    1.8097    0.9707 H       1  UNL1        0.0271
     39 H          -3.0681    3.3543   -0.7978 H       1  UNL1        0.0313
     40 H          -3.1921    4.2764    0.7313 H       1  UNL1        0.0313
     41 H          -2.6464    1.0815   -0.6581 H       1  UNL1        0.0623
     42 H          -4.1436   -1.5241   -1.4268 H       1  UNL1        0.0336
     43 H          -2.5317   -0.7839   -1.2704 H       1  UNL1        0.0336
     44 H          -3.7733   -3.0995    1.7324 H       1  UNL1        0.0253
     45 H          -4.8089   -3.2403    0.1860 H       1  UNL1        0.0253
     46 H          -3.5505   -4.4467    0.5161 H       1  UNL1        0.0253
     47 H          -2.0987   -4.2243   -1.0976 H       1  UNL1        0.1192
     48 H          -2.0173   -2.7244   -1.9584 H       1  UNL1        0.1192
     49 H           1.2343   -2.4329    2.4404 H       1  UNL1        0.0749
     50 H           1.0088   -3.4855    1.0519 H       1  UNL1        0.0749
     51 H           0.2159   -0.2687    0.2486 H       1  UNL1        0.0639
     52 H           1.7339    2.4425   -1.7508 H       1  UNL1        0.0328
     53 H           0.3957    1.2779   -1.8932 H       1  UNL1        0.0328
     54 H           1.4421    2.9088    0.5078 H       1  UNL1        0.0271
     55 H           0.3977    1.5152    0.8556 H       1  UNL1        0.0271
     56 H           3.2705   -2.8424    0.5662 H       1  UNL1        0.0656
     57 H           5.4847   -1.5715   -2.9413 H       1  UNL1        0.0447
     58 H           6.0047   -2.9884   -1.9949 H       1  UNL1        0.0447
     59 H           4.2236   -2.8205   -2.4405 H       1  UNL1        0.0447
     60 H           7.2457    1.1447    0.5440 H       1  UNL1        0.0482
     61 H           6.3936    1.0398   -1.0693 H       1  UNL1        0.0482
     62 H           5.3945    1.0605    0.4323 H       1  UNL1        0.0482
     63 H          -5.2398   -1.2808    1.4401 H       1  UNL1        0.0620
     64 H          -5.9831    0.7088    2.8024 H       1  UNL1        0.0618
     65 H          -4.9076    2.9816    2.2893 H       1  UNL1        0.0620
@<TRIPOS>BOND
     1     1     2    1
     2     1     3    1
     3     3     4    1
     4     4     5    1
     5     5     6   ar
     6     6     7   ar
     7     7     8    1
     8     8     9    1
     9     9    10    1
    10     9    11    1
    11     9    12    1
    12    12    13    2
    13    12    14    1
    14    14    15    1
    15    15    16    1
    16    16    17   ar
    17    17    18   ar
    18    18    19    1
    19    19    20    1
    20    18    21   ar
    21    21    22   ar
    22    22    23   ar
    23    22    24    1
    24    24    25    1
    25    24    26    1
    26    26    27    1
    27    26    28    2
    28    26    29    2
    29     7    30   ar
    30    30    31   ar
    31    31    32   ar
    32    20     1    1
    33    32     5   ar
    34    23    16   ar
    35     1    33    1
    36     2    34    1
    37     2    35    1
    38     2    36    1
    39     3    37    1
    40     3    38    1
    41     4    39    1
    42     4    40    1
    43     6    41    1
    44     8    42    1
    45     8    43    1
    46    10    44    1
    47    10    45    1
    48    10    46    1
    49    11    47    1
    50    11    48    1
    51    15    49    1
    52    15    50    1
    53    17    51    1
    54    19    52    1
    55    19    53    1
    56    20    54    1
    57    20    55    1
    58    23    56    1
    59    25    57    1
    60    25    58    1
    61    25    59    1
    62    27    60    1
    63    27    61    1
    64    27    62    1
    65    30    63    1
    66    31    64    1
    67    32    65    1
