
     RDKit          3D

 65 67  0  0  0  0  0  0  0  0999 V2000
   -0.4935    3.1992   -0.2474 C   0  0  2  0  0  0  0  0  0  0  0  0
   -0.1533    4.5260   -0.7138 C   0  0  0  0  0  0  0  0  0  0  0  0
   -1.5516    2.9173    0.7424 C   0  0  0  0  0  0  0  0  0  0  0  0
   -2.9313    3.2964    0.2830 C   0  0  0  0  0  0  0  0  0  0  0  0
   -3.8121    2.2232    0.9065 C   0  0  0  0  0  0  0  0  0  0  0  0
   -3.4056    1.0866    0.1531 C   0  0  0  0  0  0  0  0  0  0  0  0
   -3.8684   -0.2432    0.2736 C   0  0  0  0  0  0  0  0  0  0  0  0
   -3.3472   -1.2610   -0.6334 C   0  0  0  0  0  0  0  0  0  0  0  0
   -2.8242   -2.5411   -0.1124 C   0  0  1  0  0  0  0  0  0  0  0  0
   -3.8255   -3.3705    0.6673 C   0  0  0  0  0  0  0  0  0  0  0  0
   -2.6274   -3.3642   -1.3708 N   0  0  0  0  0  0  0  0  0  0  0  0
   -1.5202   -2.4761    0.5159 C   0  0  0  0  0  0  0  0  0  0  0  0
   -0.7512   -2.8305   -0.4368 O   0  0  0  0  0  0  0  0  0  0  0  0
   -0.6015   -2.2754    1.4926 O   0  0  0  0  0  0  0  0  0  0  0  0
    0.7867   -2.4283    1.4156 C   0  0  0  0  0  0  0  0  0  0  0  0
    1.4893   -1.5148    0.5061 C   0  0  0  0  0  0  0  0  0  0  0  0
    1.2485   -0.3193   -0.1059 C   0  0  0  0  0  0  0  0  0  0  0  0
    2.0752    0.4794   -0.9124 C   0  0  0  0  0  0  0  0  0  0  0  0
    1.1756    1.6612   -1.2103 C   0  0  0  0  0  0  0  0  0  0  0  0
    0.6385    2.2198    0.0629 C   0  0  0  0  0  0  0  0  0  0  0  0
    3.2837   -0.0266   -1.1046 N   0  0  0  0  0  0  0  0  0  0  0  0
    3.6625   -1.2147   -0.5566 C   0  0  0  0  0  0  0  0  0  0  0  0
    2.7783   -1.9240    0.2232 C   0  0  0  0  0  0  0  0  0  0  0  0
    4.9984   -1.5237   -0.9186 N   0  0  0  0  0  0  0  0  0  0  0  0
    5.1345   -2.2951   -2.1537 C   0  0  0  0  0  0  0  0  0  0  0  0
    6.3674   -1.0512   -0.0115 S   0  0  0  0  0  0  0  0  0  0  0  0
    6.3754    0.7381    0.0154 C   0  0  0  0  0  0  0  0  0  0  0  0
    7.6050   -1.4630   -0.7579 O   0  0  0  0  0  0  0  0  0  0  0  0
    6.3680   -1.5606    1.3948 O   0  0  0  0  0  0  0  0  0  0  0  0
   -4.8115   -0.3090    1.2640 C   0  0  0  0  0  0  0  0  0  0  0  0
   -5.2399    0.7523    2.0199 C   0  0  0  0  0  0  0  0  0  0  0  0
   -4.7555    2.0247    1.8588 C   0  0  0  0  0  0  0  0  0  0  0  0
   -0.9944    2.7136   -1.2377 H   0  0  0  0  0  0  0  0  0  0  0  0
   -0.2788    5.3514    0.0438 H   0  0  0  0  0  0  0  0  0  0  0  0
   -0.7889    4.8913   -1.5749 H   0  0  0  0  0  0  0  0  0  0  0  0
    0.9014    4.5820   -1.1123 H   0  0  0  0  0  0  0  0  0  0  0  0
   -1.2934    3.4620    1.6956 H   0  0  0  0  0  0  0  0  0  0  0  0
   -1.4975    1.8097    0.9707 H   0  0  0  0  0  0  0  0  0  0  0  0
   -3.0681    3.3543   -0.7978 H   0  0  0  0  0  0  0  0  0  0  0  0
   -3.1921    4.2764    0.7313 H   0  0  0  0  0  0  0  0  0  0  0  0
   -2.6464    1.0815   -0.6581 H   0  0  0  0  0  0  0  0  0  0  0  0
   -4.1436   -1.5241   -1.4268 H   0  0  0  0  0  0  0  0  0  0  0  0
   -2.5317   -0.7839   -1.2704 H   0  0  0  0  0  0  0  0  0  0  0  0
   -3.7733   -3.0995    1.7324 H   0  0  0  0  0  0  0  0  0  0  0  0
   -4.8089   -3.2403    0.1860 H   0  0  0  0  0  0  0  0  0  0  0  0
   -3.5505   -4.4467    0.5161 H   0  0  0  0  0  0  0  0  0  0  0  0
   -2.0987   -4.2243   -1.0976 H   0  0  0  0  0  0  0  0  0  0  0  0
   -2.0173   -2.7244   -1.9584 H   0  0  0  0  0  0  0  0  0  0  0  0
    1.2343   -2.4329    2.4404 H   0  0  0  0  0  0  0  0  0  0  0  0
    1.0088   -3.4855    1.0519 H   0  0  0  0  0  0  0  0  0  0  0  0
    0.2159   -0.2687    0.2486 H   0  0  0  0  0  0  0  0  0  0  0  0
    1.7339    2.4425   -1.7508 H   0  0  0  0  0  0  0  0  0  0  0  0
    0.3957    1.2779   -1.8932 H   0  0  0  0  0  0  0  0  0  0  0  0
    1.4421    2.9088    0.5078 H   0  0  0  0  0  0  0  0  0  0  0  0
    0.3977    1.5152    0.8556 H   0  0  0  0  0  0  0  0  0  0  0  0
    3.2705   -2.8424    0.5662 H   0  0  0  0  0  0  0  0  0  0  0  0
    5.4847   -1.5715   -2.9413 H   0  0  0  0  0  0  0  0  0  0  0  0
    6.0047   -2.9884   -1.9949 H   0  0  0  0  0  0  0  0  0  0  0  0
    4.2236   -2.8205   -2.4405 H   0  0  0  0  0  0  0  0  0  0  0  0
    7.2457    1.1447    0.5440 H   0  0  0  0  0  0  0  0  0  0  0  0
    6.3936    1.0398   -1.0693 H   0  0  0  0  0  0  0  0  0  0  0  0
    5.3945    1.0605    0.4323 H   0  0  0  0  0  0  0  0  0  0  0  0
   -5.2398   -1.2808    1.4401 H   0  0  0  0  0  0  0  0  0  0  0  0
   -5.9831    0.7088    2.8024 H   0  0  0  0  0  0  0  0  0  0  0  0
   -4.9076    2.9816    2.2893 H   0  0  0  0  0  0  0  0  0  0  0  0
  1  2  1  0
  1  3  1  0
  3  4  1  0
  4  5  1  0
  5  6  1  0
  6  7  2  0
  7  8  1  0
  8  9  1  0
  9 10  1  0
  9 11  1  6
  9 12  1  0
 12 13  2  0
 12 14  1  0
 14 15  1  0
 15 16  1  0
 16 17  1  0
 17 18  2  0
 18 19  1  0
 19 20  1  0
 18 21  1  0
 21 22  2  0
 22 23  1  0
 22 24  1  0
 24 25  1  0
 24 26  1  0
 26 27  1  0
 26 28  2  0
 26 29  2  0
  7 30  1  0
 30 31  2  0
 31 32  1  0
 20  1  1  0
 32  5  2  0
 23 16  2  0
  1 33  1  6
  2 34  1  0
  2 35  1  0
  2 36  1  0
  3 37  1  0
  3 38  1  0
  4 39  1  0
  4 40  1  0
  6 41  1  0
  8 42  1  0
  8 43  1  0
 10 44  1  0
 10 45  1  0
 10 46  1  0
 11 47  1  0
 11 48  1  0
 15 49  1  0
 15 50  1  0
 17 51  1  0
 19 52  1  0
 19 53  1  0
 20 54  1  0
 20 55  1  0
 23 56  1  0
 25 57  1  0
 25 58  1  0
 25 59  1  0
 27 60  1  0
 27 61  1  0
 27 62  1  0
 30 63  1  0
 31 64  1  0
 32 65  1  0
M  END
$$$$
