
     RDKit          3D

 58 62  0  0  0  0  0  0  0  0999 V2000
   -6.4915   -1.9254   -0.4959 C   0  0  0  0  0  0  0  0  0  0  0  0
   -5.7820   -0.8707    0.0695 O   0  0  0  0  0  0  0  0  0  0  0  0
   -4.4176   -0.8688    0.2697 C   0  0  0  0  0  0  0  0  0  0  0  0
   -3.7222   -2.0211   -0.1329 C   0  0  0  0  0  0  0  0  0  0  0  0
   -2.3474   -2.0958    0.0355 C   0  0  0  0  0  0  0  0  0  0  0  0
   -1.6522   -1.0483    0.5956 C   0  0  0  0  0  0  0  0  0  0  0  0
   -0.1870   -1.0772    0.7950 C   0  0  0  0  0  0  0  0  0  0  0  0
    0.5639   -0.5202   -0.3838 C   0  0  2  0  0  0  0  0  0  0  0  0
    0.2179   -1.3687   -1.5955 C   0  0  0  0  0  0  0  0  0  0  0  0
    0.6679   -2.6587   -1.3292 O   0  0  0  0  0  0  0  0  0  0  0  0
    2.0264   -2.6869   -1.5275 C   0  0  0  0  0  0  0  0  0  0  0  0
    2.7292   -1.4238   -1.1570 C   0  0  0  0  0  0  0  0  0  0  0  0
    1.9946   -0.6132   -0.2154 N   0  0  0  0  0  0  0  0  0  0  0  0
    2.6370    0.0731    0.8393 C   0  0  0  0  0  0  0  0  0  0  0  0
    1.9339    0.7599    1.6181 O   0  0  0  0  0  0  0  0  0  0  0  0
    4.0855   -0.0270    1.0025 C   0  0  0  0  0  0  0  0  0  0  0  0
    4.6759   -1.0077    1.7780 C   0  0  0  0  0  0  0  0  0  0  0  0
    6.0309   -1.0711    1.9077 C   0  0  0  0  0  0  0  0  0  0  0  0
    6.8615   -0.1634    1.2731 C   0  0  0  0  0  0  0  0  0  0  0  0
    6.2512    0.8059    0.5050 C   0  0  0  0  0  0  0  0  0  0  0  0
    4.8841    0.9032    0.3490 C   0  0  0  0  0  0  0  0  0  0  0  0
    4.2737    1.9105   -0.4484 N   0  0  0  0  0  0  0  0  0  0  0  0
    4.8570    2.9911   -0.9265 N   0  0  0  0  0  0  0  0  0  0  0  0
    3.9823    3.7254   -1.6391 C   0  0  0  0  0  0  0  0  0  0  0  0
    2.7801    3.0364   -1.5875 C   0  0  0  0  0  0  0  0  0  0  0  0
    3.0223    1.9448   -0.8509 N   0  0  0  0  0  0  0  0  0  0  0  0
   -2.3714    0.0578    0.9746 C   0  0  0  0  0  0  0  0  0  0  0  0
   -3.7468    0.1748    0.8247 C   0  0  0  0  0  0  0  0  0  0  0  0
   -4.3597    1.4102    1.2769 C   0  0  0  0  0  0  0  0  0  0  0  0
   -5.6956    1.6432    1.1738 C   0  0  0  0  0  0  0  0  0  0  0  0
   -6.1995    2.8712    1.6386 C   0  0  0  0  0  0  0  0  0  0  0  0
   -5.3215    3.7765    2.1741 C   0  0  0  0  0  0  0  0  0  0  0  0
   -4.0092    3.5151    2.2610 N   0  0  0  0  0  0  0  0  0  0  0  0
   -3.5698    2.3809    1.8277 N   0  0  0  0  0  0  0  0  0  0  0  0
   -7.5120   -1.5626   -0.7389 H   0  0  0  0  0  0  0  0  0  0  0  0
   -6.5621   -2.7774    0.2170 H   0  0  0  0  0  0  0  0  0  0  0  0
   -6.0239   -2.2229   -1.4391 H   0  0  0  0  0  0  0  0  0  0  0  0
   -4.2842   -2.8344   -0.5709 H   0  0  0  0  0  0  0  0  0  0  0  0
   -1.8371   -2.9932   -0.2811 H   0  0  0  0  0  0  0  0  0  0  0  0
    0.1374   -2.1469    0.8951 H   0  0  0  0  0  0  0  0  0  0  0  0
    0.0134   -0.5504    1.7438 H   0  0  0  0  0  0  0  0  0  0  0  0
    0.2483    0.5512   -0.5597 H   0  0  0  0  0  0  0  0  0  0  0  0
    0.7638   -1.0225   -2.4970 H   0  0  0  0  0  0  0  0  0  0  0  0
   -0.8622   -1.3324   -1.8297 H   0  0  0  0  0  0  0  0  0  0  0  0
    2.5228   -3.5346   -0.9874 H   0  0  0  0  0  0  0  0  0  0  0  0
    2.1795   -2.9417   -2.6168 H   0  0  0  0  0  0  0  0  0  0  0  0
    3.7168   -1.6767   -0.7264 H   0  0  0  0  0  0  0  0  0  0  0  0
    2.8428   -0.8360   -2.1132 H   0  0  0  0  0  0  0  0  0  0  0  0
    3.9823   -1.7012    2.2593 H   0  0  0  0  0  0  0  0  0  0  0  0
    6.4325   -1.8728    2.5369 H   0  0  0  0  0  0  0  0  0  0  0  0
    7.9397   -0.2417    1.3974 H   0  0  0  0  0  0  0  0  0  0  0  0
    6.8782    1.5370   -0.0087 H   0  0  0  0  0  0  0  0  0  0  0  0
    4.1022    4.6446   -2.1606 H   0  0  0  0  0  0  0  0  0  0  0  0
    1.8577    3.3452   -2.0563 H   0  0  0  0  0  0  0  0  0  0  0  0
   -1.7945    0.8835    1.4204 H   0  0  0  0  0  0  0  0  0  0  0  0
   -6.4167    0.9622    0.7611 H   0  0  0  0  0  0  0  0  0  0  0  0
   -7.2574    3.0607    1.5592 H   0  0  0  0  0  0  0  0  0  0  0  0
   -5.6692    4.7308    2.5420 H   0  0  0  0  0  0  0  0  0  0  0  0
  1  2  1  0
  2  3  1  0
  3  4  2  0
  4  5  1  0
  5  6  2  0
  6  7  1  0
  7  8  1  0
  8  9  1  0
  9 10  1  0
 10 11  1  0
 11 12  1  0
 12 13  1  0
 13 14  1  0
 14 15  2  0
 14 16  1  0
 16 17  2  0
 17 18  1  0
 18 19  2  0
 19 20  1  0
 20 21  2  0
 21 22  1  0
 22 23  1  0
 23 24  2  0
 24 25  1  0
 25 26  2  0
  6 27  1  0
 27 28  2  0
 28 29  1  0
 29 30  2  0
 30 31  1  0
 31 32  2  0
 32 33  1  0
 33 34  2  0
 28  3  1  0
 34 29  1  0
 13  8  1  0
 21 16  1  0
 26 22  1  0
  1 35  1  0
  1 36  1  0
  1 37  1  0
  4 38  1  0
  5 39  1  0
  7 40  1  0
  7 41  1  0
  8 42  1  6
  9 43  1  0
  9 44  1  0
 11 45  1  0
 11 46  1  0
 12 47  1  0
 12 48  1  0
 17 49  1  0
 18 50  1  0
 19 51  1  0
 20 52  1  0
 24 53  1  0
 25 54  1  0
 27 55  1  0
 30 56  1  0
 31 57  1  0
 32 58  1  0
M  END
$$$$
