@<TRIPOS>MOLECULE
*****
 58 62 0 0 0
SMALL
GASTEIGER

@<TRIPOS>ATOM
      1 C          -6.4915   -1.9254   -0.4959 C.3     1  UNL1        0.0788
      2 O          -5.7820   -0.8707    0.0695 O.3     1  UNL1       -0.4945
      3 C          -4.4176   -0.8688    0.2697 C.ar    1  UNL1        0.1293
      4 C          -3.7222   -2.0211   -0.1329 C.ar    1  UNL1       -0.0190
      5 C          -2.3474   -2.0958    0.0355 C.ar    1  UNL1       -0.0550
      6 C          -1.6522   -1.0483    0.5956 C.ar    1  UNL1       -0.0447
      7 C          -0.1870   -1.0772    0.7950 C.3     1  UNL1       -0.0068
      8 C           0.5639   -0.5202   -0.3838 C.3     1  UNL1        0.0537
      9 C           0.2179   -1.3687   -1.5955 C.3     1  UNL1        0.0666
     10 O           0.6679   -2.6587   -1.3292 O.3     1  UNL1       -0.3764
     11 C           2.0264   -2.6869   -1.5275 C.3     1  UNL1        0.0635
     12 C           2.7292   -1.4238   -1.1570 C.3     1  UNL1        0.0388
     13 N           1.9946   -0.6132   -0.2154 N.am    1  UNL1       -0.2897
     14 C           2.6370    0.0731    0.8393 C.2     1  UNL1        0.2491
     15 O           1.9339    0.7599    1.6181 O.2     1  UNL1       -0.2699
     16 C           4.0855   -0.0270    1.0025 C.ar    1  UNL1        0.0640
     17 C           4.6759   -1.0077    1.7780 C.ar    1  UNL1       -0.0475
     18 C           6.0309   -1.0711    1.9077 C.ar    1  UNL1       -0.0609
     19 C           6.8615   -0.1634    1.2731 C.ar    1  UNL1       -0.0597
     20 C           6.2512    0.8059    0.5050 C.ar    1  UNL1       -0.0338
     21 C           4.8841    0.9032    0.3490 C.ar    1  UNL1        0.0982
     22 N           4.2737    1.9105   -0.4484 N.ar    1  UNL1       -0.1496
     23 N           4.8570    2.9911   -0.9265 N.ar    1  UNL1       -0.1556
     24 C           3.9823    3.7254   -1.6391 C.ar    1  UNL1        0.0697
     25 C           2.7801    3.0364   -1.5875 C.ar    1  UNL1        0.0697
     26 N           3.0223    1.9448   -0.8509 N.ar    1  UNL1       -0.1556
     27 C          -2.3714    0.0578    0.9746 C.ar    1  UNL1       -0.0458
     28 C          -3.7468    0.1748    0.8247 C.ar    1  UNL1        0.0440
     29 C          -4.3597    1.4102    1.2769 C.ar    1  UNL1        0.0968
     30 C          -5.6956    1.6432    1.1738 C.ar    1  UNL1       -0.0324
     31 C          -6.1995    2.8712    1.6386 C.ar    1  UNL1       -0.0398
     32 C          -5.3215    3.7765    2.1741 C.ar    1  UNL1        0.0500
     33 N          -4.0092    3.5151    2.2610 N.ar    1  UNL1       -0.1571
     34 N          -3.5698    2.3809    1.8277 N.ar    1  UNL1       -0.1492
     35 H          -7.5120   -1.5626   -0.7389 H       1  UNL1        0.0660
     36 H          -6.5621   -2.7774    0.2170 H       1  UNL1        0.0660
     37 H          -6.0239   -2.2229   -1.4391 H       1  UNL1        0.0660
     38 H          -4.2842   -2.8344   -0.5709 H       1  UNL1        0.0654
     39 H          -1.8371   -2.9932   -0.2811 H       1  UNL1        0.0621
     40 H           0.1374   -2.1469    0.8951 H       1  UNL1        0.0332
     41 H           0.0134   -0.5504    1.7438 H       1  UNL1        0.0332
     42 H           0.2483    0.5512   -0.5597 H       1  UNL1        0.0526
     43 H           0.7638   -1.0225   -2.4970 H       1  UNL1        0.0578
     44 H          -0.8622   -1.3324   -1.8297 H       1  UNL1        0.0578
     45 H           2.5228   -3.5346   -0.9874 H       1  UNL1        0.0575
     46 H           2.1795   -2.9417   -2.6168 H       1  UNL1        0.0575
     47 H           3.7168   -1.6767   -0.7264 H       1  UNL1        0.0487
     48 H           2.8428   -0.8360   -2.1132 H       1  UNL1        0.0487
     49 H           3.9823   -1.7012    2.2593 H       1  UNL1        0.0626
     50 H           6.4325   -1.8728    2.5369 H       1  UNL1        0.0618
     51 H           7.9397   -0.2417    1.3974 H       1  UNL1        0.0618
     52 H           6.8782    1.5370   -0.0087 H       1  UNL1        0.0639
     53 H           4.1022    4.6446   -2.1606 H       1  UNL1        0.0864
     54 H           1.8577    3.3452   -2.0563 H       1  UNL1        0.0864
     55 H          -1.7945    0.8835    1.4204 H       1  UNL1        0.0628
     56 H          -6.4167    0.9622    0.7611 H       1  UNL1        0.0640
     57 H          -7.2574    3.0607    1.5592 H       1  UNL1        0.0634
     58 H          -5.6692    4.7308    2.5420 H       1  UNL1        0.0848
@<TRIPOS>BOND
     1     1     2    1
     2     2     3    1
     3     3     4   ar
     4     4     5   ar
     5     5     6   ar
     6     6     7    1
     7     7     8    1
     8     8     9    1
     9     9    10    1
    10    10    11    1
    11    11    12    1
    12    12    13    1
    13    13    14   am
    14    14    15    2
    15    14    16    1
    16    16    17   ar
    17    17    18   ar
    18    18    19   ar
    19    19    20   ar
    20    20    21   ar
    21    21    22    1
    22    22    23   ar
    23    23    24   ar
    24    24    25   ar
    25    25    26   ar
    26     6    27   ar
    27    27    28   ar
    28    28    29    1
    29    29    30   ar
    30    30    31   ar
    31    31    32   ar
    32    32    33   ar
    33    33    34   ar
    34    28     3   ar
    35    34    29   ar
    36    13     8    1
    37    21    16   ar
    38    26    22   ar
    39     1    35    1
    40     1    36    1
    41     1    37    1
    42     4    38    1
    43     5    39    1
    44     7    40    1
    45     7    41    1
    46     8    42    1
    47     9    43    1
    48     9    44    1
    49    11    45    1
    50    11    46    1
    51    12    47    1
    52    12    48    1
    53    17    49    1
    54    18    50    1
    55    19    51    1
    56    20    52    1
    57    24    53    1
    58    25    54    1
    59    27    55    1
    60    30    56    1
    61    31    57    1
    62    32    58    1
