@<TRIPOS>MOLECULE
*****
 46 50 0 0 0
SMALL
GASTEIGER

@<TRIPOS>ATOM
      1 C          -0.6844    1.1476   -0.3364 C.3     1  UNL1        0.1064
      2 C          -0.3198   -0.3300   -0.3302 C.3     1  UNL1       -0.0116
      3 C           0.8512   -0.3565   -1.2905 C.3     1  UNL1        0.0170
      4 N           1.5275    0.8932   -0.9481 N.am    1  UNL1       -0.2944
      5 C           2.8723    1.2258   -1.3725 C.3     1  UNL1        0.0548
      6 C           3.8547    0.7512   -0.3697 C.ar    1  UNL1        0.0346
      7 C           4.4108   -0.5074   -0.4421 C.ar    1  UNL1       -0.0318
      8 C           5.2860   -0.6671    0.6213 C.ar    1  UNL1        0.0029
      9 C           5.2358    0.5362    1.3322 C.ar    1  UNL1        0.0650
     10 N           4.3684    1.3626    0.7100 N.ar    1  UNL1       -0.3555
     11 C           6.0141    0.6870    2.4670 C.ar    1  UNL1        0.0514
     12 N           6.7959   -0.3150    2.8615 N.ar    1  UNL1       -0.2612
     13 C           6.8982   -1.5001    2.2317 C.ar    1  UNL1        0.0282
     14 C           6.1198   -1.6609    1.0903 C.ar    1  UNL1       -0.0344
     15 C           0.6862    1.7416   -0.1402 C.2     1  UNL1        0.2346
     16 O           1.1342    2.7238    0.5271 O.2     1  UNL1       -0.2738
     17 N          -1.2107    1.4610   -1.6303 N.3     1  UNL1       -0.1775
     18 S          -2.7798    2.1596   -1.6150 S.O2    1  UNL1        0.0654
     19 O          -3.2147    2.3044   -3.0264 O.2     1  UNL1       -0.1525
     20 O          -2.8059    3.4679   -0.8981 O.2     1  UNL1       -0.1525
     21 C          -3.9508    1.0294   -0.8969 C.ar    1  UNL1        0.1451
     22 C          -5.1101    0.4151   -1.3573 C.ar    1  UNL1       -0.0020
     23 C          -5.7185   -0.4043   -0.4449 C.ar    1  UNL1        0.0799
     24 C          -5.2131   -0.5798    0.7852 C.ar    1  UNL1        0.0394
     25 S          -3.7921    0.3946    0.8356 S.2     1  UNL1       -0.0670
     26 C          -5.8377   -1.4160    1.7103 C.ar    1  UNL1       -0.0445
     27 C          -7.0075   -2.1098    1.4175 C.ar    1  UNL1       -0.0425
     28 C          -7.4445   -1.8628    0.1325 C.ar    1  UNL1        0.0283
     29 N          -6.8498   -1.0627   -0.7572 N.ar    1  UNL1       -0.2544
     30 H          -1.3514    1.3935    0.5098 H       1  UNL1        0.0573
     31 H           0.0441   -0.6195    0.6667 H       1  UNL1        0.0301
     32 H          -1.1601   -0.9564   -0.6859 H       1  UNL1        0.0301
     33 H           0.5181   -0.3863   -2.3390 H       1  UNL1        0.0465
     34 H           1.5085   -1.2314   -1.1187 H       1  UNL1        0.0465
     35 H           3.0093    2.3215   -1.4936 H       1  UNL1        0.0528
     36 H           3.0403    0.7513   -2.3596 H       1  UNL1        0.0528
     37 H           4.2752   -1.3216   -1.1492 H       1  UNL1        0.0642
     38 H           4.1098    2.3350    0.9940 H       1  UNL1        0.1657
     39 H           6.0003    1.5988    3.0380 H       1  UNL1        0.0851
     40 H           7.5286   -2.3200    2.5421 H       1  UNL1        0.0830
     41 H           6.1409   -2.5817    0.5232 H       1  UNL1        0.0639
     42 H          -1.2360    0.6559   -2.2907 H       1  UNL1        0.1489
     43 H          -5.3332    0.6956   -2.3717 H       1  UNL1        0.0664
     44 H          -5.3562   -1.4879    2.6610 H       1  UNL1        0.0630
     45 H          -7.4813   -2.7539    2.1419 H       1  UNL1        0.0633
     46 H          -8.3727   -2.3982   -0.1348 H       1  UNL1        0.0830
@<TRIPOS>BOND
     1     1     2    1
     2     2     3    1
     3     3     4    1
     4     4     5    1
     5     5     6    1
     6     6     7   ar
     7     7     8   ar
     8     8     9   ar
     9     9    10   ar
    10     9    11   ar
    11    11    12   ar
    12    12    13   ar
    13    13    14   ar
    14     4    15   am
    15    15    16    2
    16     1    17    1
    17    17    18    1
    18    18    19    2
    19    18    20    2
    20    18    21    1
    21    21    22   ar
    22    22    23   ar
    23    23    24   ar
    24    24    25   ar
    25    24    26   ar
    26    26    27   ar
    27    27    28   ar
    28    28    29   ar
    29    15     1    1
    30    25    21   ar
    31    10     6   ar
    32    29    23   ar
    33    14     8   ar
    34     1    30    1
    35     2    31    1
    36     2    32    1
    37     3    33    1
    38     3    34    1
    39     5    35    1
    40     5    36    1
    41     7    37    1
    42    10    38    1
    43    11    39    1
    44    13    40    1
    45    14    41    1
    46    17    42    1
    47    22    43    1
    48    26    44    1
    49    27    45    1
    50    28    46    1
