@<TRIPOS>MOLECULE
*****
 68 72 0 0 0
SMALL
GASTEIGER

@<TRIPOS>ATOM
      1 C          -1.3177   -1.8694    4.0709 C.3     1  UNL1       -0.0217
      2 C          -2.6966   -1.7243    3.4882 C.ar    1  UNL1        0.0472
      3 N          -3.7324   -1.9358    4.3310 N.ar    1  UNL1       -0.2582
      4 C          -4.9950   -1.8632    3.9038 C.ar    1  UNL1        0.0471
      5 C          -5.2428   -1.5655    2.5657 C.ar    1  UNL1        0.0915
      6 C          -6.5868   -1.4178    2.0846 C.1     1  UNL1        0.1026
      7 N          -7.6582   -1.2798    1.7008 N.1     1  UNL1       -0.1908
      8 C          -4.2155   -1.3496    1.6946 C.ar    1  UNL1        0.0593
      9 N          -4.4601   -1.0578    0.3443 N.pl3   1  UNL1       -0.3127
     10 C          -4.4189    0.2334   -0.2258 C.ar    1  UNL1        0.0350
     11 C          -4.1688    1.3619    0.5320 C.ar    1  UNL1       -0.0383
     12 C          -4.0938    2.6125   -0.0490 C.ar    1  UNL1       -0.0360
     13 C          -4.2680    2.7557   -1.4118 C.ar    1  UNL1        0.0468
     14 N          -4.2362    3.8205   -2.2266 N.ar    1  UNL1       -0.3606
     15 C          -4.4565    3.4346   -3.4934 C.ar    1  UNL1        0.0027
     16 C          -4.6404    2.0719   -3.5234 C.ar    1  UNL1       -0.0364
     17 C          -4.5208    1.6518   -2.2148 C.ar    1  UNL1        0.0043
     18 C          -4.5887    0.4213   -1.5904 C.ar    1  UNL1       -0.0202
     19 C          -4.8648   -0.7906   -2.4057 C.3     1  UNL1       -0.0373
     20 C          -2.8814   -1.4272    2.1685 C.ar    1  UNL1        0.0184
     21 C          -1.8692   -1.0444    1.2122 C.2     1  UNL1       -0.0505
     22 C          -0.6426   -0.6810    1.3837 C.2     1  UNL1       -0.0539
     23 C           0.2671   -0.3149    0.2772 C.ar    1  UNL1       -0.0232
     24 C          -0.0817   -0.3570   -1.0471 C.ar    1  UNL1       -0.0545
     25 C           0.7878    0.0822   -2.0561 C.ar    1  UNL1       -0.0594
     26 C           2.0269    0.5696   -1.7097 C.ar    1  UNL1       -0.0353
     27 C           2.4278    0.6322   -0.3843 C.ar    1  UNL1        0.1060
     28 S           3.9814    1.3159    0.0582 S.O2    1  UNL1        0.0609
     29 O           4.1484    2.6139   -0.7185 O.2     1  UNL1       -0.1528
     30 O           3.8829    1.6314    1.5499 O.2     1  UNL1       -0.1528
     31 N           5.3009    0.3303   -0.2975 N.3     1  UNL1       -0.1741
     32 C           5.3168   -0.9352    0.3732 C.3     1  UNL1        0.0333
     33 C           6.4429   -1.7710   -0.2217 C.3     1  UNL1        0.0131
     34 N           7.4473   -0.9759   -0.8660 N.3     1  UNL1       -0.3028
     35 C           7.1846   -0.7216   -2.2555 C.3     1  UNL1       -0.0127
     36 C           7.7474    0.2526   -0.1780 C.3     1  UNL1        0.0131
     37 C           6.5117    1.0562    0.0651 C.3     1  UNL1        0.0333
     38 C           1.5342    0.1858    0.5604 C.ar    1  UNL1       -0.0282
     39 H          -0.6782   -2.5010    3.4622 H       1  UNL1        0.0293
     40 H          -0.9164   -0.9248    4.4511 H       1  UNL1        0.0293
     41 H          -1.4518   -2.4849    5.0309 H       1  UNL1        0.0293
     42 H          -5.8586   -2.0247    4.5494 H       1  UNL1        0.0843
     43 H          -4.6896   -1.8624   -0.2863 H       1  UNL1        0.1522
     44 H          -4.0345    1.2396    1.6115 H       1  UNL1        0.0637
     45 H          -3.8964    3.4772    0.5794 H       1  UNL1        0.0639
     46 H          -4.0711    4.7885   -1.9326 H       1  UNL1        0.1653
     47 H          -4.4754    4.1175   -4.3367 H       1  UNL1        0.0807
     48 H          -4.8345    1.4297   -4.3531 H       1  UNL1        0.0639
     49 H          -5.1078   -0.5138   -3.4498 H       1  UNL1        0.0278
     50 H          -5.7529   -1.3393   -2.0232 H       1  UNL1        0.0278
     51 H          -3.9652   -1.3998   -2.4104 H       1  UNL1        0.0278
     52 H          -2.1893   -1.0882    0.1464 H       1  UNL1        0.0625
     53 H          -0.2133   -0.5945    2.3551 H       1  UNL1        0.0624
     54 H          -1.0477   -0.7431   -1.3371 H       1  UNL1        0.0623
     55 H           0.4246    0.0089   -3.0691 H       1  UNL1        0.0618
     56 H           2.6867    0.9031   -2.4814 H       1  UNL1        0.0637
     57 H           4.3498   -1.4574    0.3170 H       1  UNL1        0.0456
     58 H           5.5850   -0.7342    1.4394 H       1  UNL1        0.0456
     59 H           5.9967   -2.4398   -1.0045 H       1  UNL1        0.0439
     60 H           6.8751   -2.4077    0.5554 H       1  UNL1        0.0439
     61 H           6.1681   -0.3374   -2.4528 H       1  UNL1        0.0391
     62 H           7.8862    0.0597   -2.6393 H       1  UNL1        0.0391
     63 H           7.3242   -1.6150   -2.8743 H       1  UNL1        0.0391
     64 H           8.2848    0.0352    0.7699 H       1  UNL1        0.0439
     65 H           8.4145    0.8512   -0.8218 H       1  UNL1        0.0439
     66 H           6.4285    1.3102    1.1564 H       1  UNL1        0.0456
     67 H           6.5138    2.0562   -0.4588 H       1  UNL1        0.0456
     68 H           1.8736    0.2393    1.6034 H       1  UNL1        0.0643
@<TRIPOS>BOND
     1     1     2    1
     2     2     3   ar
     3     3     4   ar
     4     4     5   ar
     5     5     6    1
     6     6     7    3
     7     5     8   ar
     8     8     9    1
     9     9    10    1
    10    10    11   ar
    11    11    12   ar
    12    12    13   ar
    13    13    14   ar
    14    14    15   ar
    15    15    16   ar
    16    16    17   ar
    17    17    18   ar
    18    18    19    1
    19     8    20   ar
    20    20    21    1
    21    21    22    2
    22    22    23    1
    23    23    24   ar
    24    24    25   ar
    25    25    26   ar
    26    26    27   ar
    27    27    28    1
    28    28    29    2
    29    28    30    2
    30    28    31    1
    31    31    32    1
    32    32    33    1
    33    33    34    1
    34    34    35    1
    35    34    36    1
    36    36    37    1
    37    27    38   ar
    38    20     2   ar
    39    38    23   ar
    40    18    10   ar
    41    37    31    1
    42    17    13   ar
    43     1    39    1
    44     1    40    1
    45     1    41    1
    46     4    42    1
    47     9    43    1
    48    11    44    1
    49    12    45    1
    50    14    46    1
    51    15    47    1
    52    16    48    1
    53    19    49    1
    54    19    50    1
    55    19    51    1
    56    21    52    1
    57    22    53    1
    58    24    54    1
    59    25    55    1
    60    26    56    1
    61    32    57    1
    62    32    58    1
    63    33    59    1
    64    33    60    1
    65    35    61    1
    66    35    62    1
    67    35    63    1
    68    36    64    1
    69    36    65    1
    70    37    66    1
    71    37    67    1
    72    38    68    1
