@<TRIPOS>MOLECULE
*****
 53 56 0 0 0
SMALL
GASTEIGER

@<TRIPOS>ATOM
      1 O          -2.7936   -2.1966   -0.2058 O.2     1  UNL1       -0.2702
      2 C          -2.0552   -1.1989   -0.4366 C.2     1  UNL1        0.2441
      3 N          -2.4877    0.0287    0.0886 N.am    1  UNL1       -0.3110
      4 C          -3.7054    0.1871    0.8563 C.3     1  UNL1        0.0159
      5 C          -4.9472   -0.1965    0.1015 C.3     1  UNL1       -0.0120
      6 C          -6.1376   -0.0015    0.9630 C.ar    1  UNL1       -0.0430
      7 C          -6.6654   -0.9682    1.7891 C.ar    1  UNL1       -0.0404
      8 C          -7.7848   -0.7202    2.5746 C.ar    1  UNL1        0.0278
      9 N          -8.3805    0.4874    2.5402 N.ar    1  UNL1       -0.2632
     10 C          -7.8623    1.4175    1.7371 C.ar    1  UNL1        0.0278
     11 C          -6.7555    1.2286    0.9368 C.ar    1  UNL1       -0.0404
     12 C          -0.8266   -1.3008   -1.1999 C.ar    1  UNL1        0.0385
     13 C          -0.4188   -2.5433   -1.7130 C.ar    1  UNL1       -0.0495
     14 C           0.7388   -2.6899   -2.4430 C.ar    1  UNL1       -0.0592
     15 C           1.5550   -1.6126   -2.7040 C.ar    1  UNL1       -0.0353
     16 C           1.1768   -0.3883   -2.2127 C.ar    1  UNL1        0.1062
     17 S           2.1797    1.0032   -2.5187 S.O2    1  UNL1        0.0612
     18 O           1.2907    2.2186   -2.5561 O.2     1  UNL1       -0.1528
     19 O           2.8495    0.8516   -3.8576 O.2     1  UNL1       -0.1528
     20 N           3.3588    1.2360   -1.2986 N.3     1  UNL1       -0.1720
     21 C           2.6835    1.4643   -0.0325 C.3     1  UNL1        0.0248
     22 C           3.6480    1.9034    1.0508 C.3     1  UNL1       -0.0129
     23 C           4.8736    1.0608    1.0394 C.ar    1  UNL1       -0.0416
     24 C           5.7723    1.1366    2.0747 C.ar    1  UNL1       -0.0582
     25 C           6.8977    0.3557    2.0534 C.ar    1  UNL1       -0.0615
     26 C           7.1668   -0.5207    1.0107 C.ar    1  UNL1       -0.0614
     27 C           6.2518   -0.5809   -0.0179 C.ar    1  UNL1       -0.0570
     28 C           5.1110    0.1957   -0.0189 C.ar    1  UNL1       -0.0285
     29 C           4.1838    0.0611   -1.1718 C.3     1  UNL1        0.0458
     30 C          -0.0034   -0.2434   -1.4694 C.ar    1  UNL1       -0.0232
     31 H          -1.9135    0.8840   -0.0730 H       1  UNL1        0.1490
     32 H          -3.6742   -0.4083    1.8147 H       1  UNL1        0.0465
     33 H          -3.7841    1.2459    1.1598 H       1  UNL1        0.0465
     34 H          -4.8995   -1.2207   -0.3202 H       1  UNL1        0.0328
     35 H          -5.0635    0.4736   -0.7744 H       1  UNL1        0.0328
     36 H          -6.1625   -1.9277    1.7929 H       1  UNL1        0.0635
     37 H          -8.1379   -1.5320    3.1968 H       1  UNL1        0.0829
     38 H          -8.3463    2.3956    1.7105 H       1  UNL1        0.0829
     39 H          -6.3779    2.0433    0.2940 H       1  UNL1        0.0635
     40 H          -1.0591   -3.3785   -1.5061 H       1  UNL1        0.0625
     41 H           1.0598   -3.6491   -2.8429 H       1  UNL1        0.0618
     42 H           2.4746   -1.7479   -3.2880 H       1  UNL1        0.0637
     43 H           1.9738    2.3000   -0.1986 H       1  UNL1        0.0447
     44 H           2.1887    0.5298    0.3021 H       1  UNL1        0.0447
     45 H           3.8650    2.9797    0.9913 H       1  UNL1        0.0326
     46 H           3.1433    1.6993    2.0237 H       1  UNL1        0.0326
     47 H           5.5888    1.8032    2.8896 H       1  UNL1        0.0620
     48 H           7.6275    0.3843    2.8447 H       1  UNL1        0.0618
     49 H           8.0552   -1.1414    0.9875 H       1  UNL1        0.0618
     50 H           6.4740   -1.2695   -0.8260 H       1  UNL1        0.0621
     51 H           3.5093   -0.7865   -0.9352 H       1  UNL1        0.0493
     52 H           4.7986   -0.1036   -2.0701 H       1  UNL1        0.0493
     53 H          -0.2534    0.7523   -1.1046 H       1  UNL1        0.0644
@<TRIPOS>BOND
     1     1     2    2
     2     2     3   am
     3     3     4    1
     4     4     5    1
     5     5     6    1
     6     6     7   ar
     7     7     8   ar
     8     8     9   ar
     9     9    10   ar
    10    10    11   ar
    11     2    12    1
    12    12    13   ar
    13    13    14   ar
    14    14    15   ar
    15    15    16   ar
    16    16    17    1
    17    17    18    2
    18    17    19    2
    19    17    20    1
    20    20    21    1
    21    21    22    1
    22    22    23    1
    23    23    24   ar
    24    24    25   ar
    25    25    26   ar
    26    26    27   ar
    27    27    28   ar
    28    28    29    1
    29    16    30   ar
    30    11     6   ar
    31    30    12   ar
    32    29    20    1
    33    28    23   ar
    34     3    31    1
    35     4    32    1
    36     4    33    1
    37     5    34    1
    38     5    35    1
    39     7    36    1
    40     8    37    1
    41    10    38    1
    42    11    39    1
    43    13    40    1
    44    14    41    1
    45    15    42    1
    46    21    43    1
    47    21    44    1
    48    22    45    1
    49    22    46    1
    50    24    47    1
    51    25    48    1
    52    26    49    1
    53    27    50    1
    54    29    51    1
    55    29    52    1
    56    30    53    1
