
     RDKit          3D

 53 56  0  0  0  0  0  0  0  0999 V2000
   -2.7936   -2.1966   -0.2058 O   0  0  0  0  0  0  0  0  0  0  0  0
   -2.0552   -1.1989   -0.4366 C   0  0  0  0  0  0  0  0  0  0  0  0
   -2.4877    0.0287    0.0886 N   0  0  0  0  0  0  0  0  0  0  0  0
   -3.7054    0.1871    0.8563 C   0  0  0  0  0  0  0  0  0  0  0  0
   -4.9472   -0.1965    0.1015 C   0  0  0  0  0  0  0  0  0  0  0  0
   -6.1376   -0.0015    0.9630 C   0  0  0  0  0  0  0  0  0  0  0  0
   -6.6654   -0.9682    1.7891 C   0  0  0  0  0  0  0  0  0  0  0  0
   -7.7848   -0.7202    2.5746 C   0  0  0  0  0  0  0  0  0  0  0  0
   -8.3805    0.4874    2.5402 N   0  0  0  0  0  0  0  0  0  0  0  0
   -7.8623    1.4175    1.7371 C   0  0  0  0  0  0  0  0  0  0  0  0
   -6.7555    1.2286    0.9368 C   0  0  0  0  0  0  0  0  0  0  0  0
   -0.8266   -1.3008   -1.1999 C   0  0  0  0  0  0  0  0  0  0  0  0
   -0.4188   -2.5433   -1.7130 C   0  0  0  0  0  0  0  0  0  0  0  0
    0.7388   -2.6899   -2.4430 C   0  0  0  0  0  0  0  0  0  0  0  0
    1.5550   -1.6126   -2.7040 C   0  0  0  0  0  0  0  0  0  0  0  0
    1.1768   -0.3883   -2.2127 C   0  0  0  0  0  0  0  0  0  0  0  0
    2.1797    1.0032   -2.5187 S   0  0  0  0  0  6  0  0  0  0  0  0
    1.2907    2.2186   -2.5561 O   0  0  0  0  0  0  0  0  0  0  0  0
    2.8495    0.8516   -3.8576 O   0  0  0  0  0  0  0  0  0  0  0  0
    3.3588    1.2360   -1.2986 N   0  0  0  0  0  0  0  0  0  0  0  0
    2.6835    1.4643   -0.0325 C   0  0  0  0  0  0  0  0  0  0  0  0
    3.6480    1.9034    1.0508 C   0  0  0  0  0  0  0  0  0  0  0  0
    4.8736    1.0608    1.0394 C   0  0  0  0  0  0  0  0  0  0  0  0
    5.7723    1.1366    2.0747 C   0  0  0  0  0  0  0  0  0  0  0  0
    6.8977    0.3557    2.0534 C   0  0  0  0  0  0  0  0  0  0  0  0
    7.1668   -0.5207    1.0107 C   0  0  0  0  0  0  0  0  0  0  0  0
    6.2518   -0.5809   -0.0179 C   0  0  0  0  0  0  0  0  0  0  0  0
    5.1110    0.1957   -0.0189 C   0  0  0  0  0  0  0  0  0  0  0  0
    4.1838    0.0611   -1.1718 C   0  0  0  0  0  0  0  0  0  0  0  0
   -0.0034   -0.2434   -1.4694 C   0  0  0  0  0  0  0  0  0  0  0  0
   -1.9135    0.8840   -0.0730 H   0  0  0  0  0  0  0  0  0  0  0  0
   -3.6742   -0.4083    1.8147 H   0  0  0  0  0  0  0  0  0  0  0  0
   -3.7841    1.2459    1.1598 H   0  0  0  0  0  0  0  0  0  0  0  0
   -4.8995   -1.2207   -0.3202 H   0  0  0  0  0  0  0  0  0  0  0  0
   -5.0635    0.4736   -0.7744 H   0  0  0  0  0  0  0  0  0  0  0  0
   -6.1625   -1.9277    1.7929 H   0  0  0  0  0  0  0  0  0  0  0  0
   -8.1379   -1.5320    3.1968 H   0  0  0  0  0  0  0  0  0  0  0  0
   -8.3463    2.3956    1.7105 H   0  0  0  0  0  0  0  0  0  0  0  0
   -6.3779    2.0433    0.2940 H   0  0  0  0  0  0  0  0  0  0  0  0
   -1.0591   -3.3785   -1.5061 H   0  0  0  0  0  0  0  0  0  0  0  0
    1.0598   -3.6491   -2.8429 H   0  0  0  0  0  0  0  0  0  0  0  0
    2.4746   -1.7479   -3.2880 H   0  0  0  0  0  0  0  0  0  0  0  0
    1.9738    2.3000   -0.1986 H   0  0  0  0  0  0  0  0  0  0  0  0
    2.1887    0.5298    0.3021 H   0  0  0  0  0  0  0  0  0  0  0  0
    3.8650    2.9797    0.9913 H   0  0  0  0  0  0  0  0  0  0  0  0
    3.1433    1.6993    2.0237 H   0  0  0  0  0  0  0  0  0  0  0  0
    5.5888    1.8032    2.8896 H   0  0  0  0  0  0  0  0  0  0  0  0
    7.6275    0.3843    2.8447 H   0  0  0  0  0  0  0  0  0  0  0  0
    8.0552   -1.1414    0.9875 H   0  0  0  0  0  0  0  0  0  0  0  0
    6.4740   -1.2695   -0.8260 H   0  0  0  0  0  0  0  0  0  0  0  0
    3.5093   -0.7865   -0.9352 H   0  0  0  0  0  0  0  0  0  0  0  0
    4.7986   -0.1036   -2.0701 H   0  0  0  0  0  0  0  0  0  0  0  0
   -0.2534    0.7523   -1.1046 H   0  0  0  0  0  0  0  0  0  0  0  0
  1  2  2  0
  2  3  1  0
  3  4  1  0
  4  5  1  0
  5  6  1  0
  6  7  2  0
  7  8  1  0
  8  9  2  0
  9 10  1  0
 10 11  2  0
  2 12  1  0
 12 13  2  0
 13 14  1  0
 14 15  2  0
 15 16  1  0
 16 17  1  0
 17 18  2  0
 17 19  2  0
 17 20  1  0
 20 21  1  0
 21 22  1  0
 22 23  1  0
 23 24  2  0
 24 25  1  0
 25 26  2  0
 26 27  1  0
 27 28  2  0
 28 29  1  0
 16 30  2  0
 11  6  1  0
 30 12  1  0
 29 20  1  0
 28 23  1  0
  3 31  1  0
  4 32  1  0
  4 33  1  0
  5 34  1  0
  5 35  1  0
  7 36  1  0
  8 37  1  0
 10 38  1  0
 11 39  1  0
 13 40  1  0
 14 41  1  0
 15 42  1  0
 21 43  1  0
 21 44  1  0
 22 45  1  0
 22 46  1  0
 24 47  1  0
 25 48  1  0
 26 49  1  0
 27 50  1  0
 29 51  1  0
 29 52  1  0
 30 53  1  0
M  END
$$$$
