
     RDKit          3D

 47 49  0  0  0  0  0  0  0  0999 V2000
   -1.6394    0.4014    1.6063 C   0  0  0  0  0  0  0  0  0  0  0  0
   -2.1841    1.1895    0.5272 N   0  0  0  0  0  0  0  0  0  0  0  0
   -3.4504    1.8671    0.7589 C   0  0  0  0  0  0  0  0  0  0  0  0
   -4.5897    0.9377    0.6972 C   0  0  0  0  0  0  0  0  0  0  0  0
   -5.0749    0.4414    1.8969 C   0  0  0  0  0  0  0  0  0  0  0  0
   -6.1207   -0.4402    1.9481 C   0  0  0  0  0  0  0  0  0  0  0  0
   -6.7188   -0.8565    0.7965 C   0  0  0  0  0  0  0  0  0  0  0  0
   -6.2715   -0.3882   -0.4413 C   0  0  0  0  0  0  0  0  0  0  0  0
   -5.2052    0.5074   -0.4498 C   0  0  0  0  0  0  0  0  0  0  0  0
   -1.5872    1.3252   -0.7397 C   0  0  0  0  0  0  0  0  0  0  0  0
   -2.1545    2.0495   -1.6056 O   0  0  0  0  0  0  0  0  0  0  0  0
   -0.3279    0.6781   -1.1523 C   0  0  0  0  0  0  0  0  0  0  0  0
   -0.2123   -0.6858   -1.3196 C   0  0  0  0  0  0  0  0  0  0  0  0
    0.9807   -1.2588   -1.7030 C   0  0  0  0  0  0  0  0  0  0  0  0
    2.1214   -0.5128   -1.9390 C   0  0  0  0  0  0  0  0  0  0  0  0
    3.6137   -1.3244   -2.4281 S   0  0  0  0  0  6  0  0  0  0  0  0
    4.4946   -0.3003   -3.0531 O   0  0  0  0  0  0  0  0  0  0  0  0
    3.3405   -2.3826   -3.4472 O   0  0  0  0  0  0  0  0  0  0  0  0
    4.2981   -2.0276   -1.0091 N   0  0  0  0  0  0  0  0  0  0  0  0
    4.7156   -1.2454    0.0929 C   0  0  0  0  0  0  0  0  0  0  0  0
    4.2872   -1.4096    1.3626 C   0  0  0  0  0  0  0  0  0  0  0  0
    4.7060   -0.5903    2.4165 C   0  0  0  0  0  0  0  0  0  0  0  0
    5.5851    0.4247    2.1720 C   0  0  0  0  0  0  0  0  0  0  0  0
    6.0403    0.6100    0.8691 C   0  0  0  0  0  0  0  0  0  0  0  0
    5.6224   -0.2035   -0.1661 C   0  0  0  0  0  0  0  0  0  0  0  0
    2.0121    0.8420   -1.7731 C   0  0  0  0  0  0  0  0  0  0  0  0
    0.8065    1.4345   -1.3850 C   0  0  0  0  0  0  0  0  0  0  0  0
   -2.0013    0.8053    2.5814 H   0  0  0  0  0  0  0  0  0  0  0  0
   -1.8633   -0.6941    1.5104 H   0  0  0  0  0  0  0  0  0  0  0  0
   -0.5372    0.5154    1.5853 H   0  0  0  0  0  0  0  0  0  0  0  0
   -3.5978    2.6611   -0.0170 H   0  0  0  0  0  0  0  0  0  0  0  0
   -3.3613    2.4085    1.7215 H   0  0  0  0  0  0  0  0  0  0  0  0
   -4.6436    0.7360    2.8683 H   0  0  0  0  0  0  0  0  0  0  0  0
   -6.5025   -0.8441    2.8798 H   0  0  0  0  0  0  0  0  0  0  0  0
   -7.5610   -1.5658    0.7751 H   0  0  0  0  0  0  0  0  0  0  0  0
   -6.7592   -0.7360   -1.3356 H   0  0  0  0  0  0  0  0  0  0  0  0
   -4.8314    0.8875   -1.3904 H   0  0  0  0  0  0  0  0  0  0  0  0
   -1.0856   -1.3024   -1.1379 H   0  0  0  0  0  0  0  0  0  0  0  0
    1.0777   -2.3507   -1.8390 H   0  0  0  0  0  0  0  0  0  0  0  0
    4.3881   -3.0616   -0.9952 H   0  0  0  0  0  0  0  0  0  0  0  0
    3.5752   -2.2156    1.6028 H   0  0  0  0  0  0  0  0  0  0  0  0
    4.3435   -0.7315    3.4246 H   0  0  0  0  0  0  0  0  0  0  0  0
    5.9440    1.0946    2.9726 H   0  0  0  0  0  0  0  0  0  0  0  0
    6.7377    1.4242    0.7190 H   0  0  0  0  0  0  0  0  0  0  0  0
    5.9528   -0.0812   -1.1645 H   0  0  0  0  0  0  0  0  0  0  0  0
    2.8865    1.4680   -1.9528 H   0  0  0  0  0  0  0  0  0  0  0  0
    0.7512    2.4996   -1.2662 H   0  0  0  0  0  0  0  0  0  0  0  0
  1  2  1  0
  2  3  1  0
  3  4  1  0
  4  5  2  0
  5  6  1  0
  6  7  2  0
  7  8  1  0
  8  9  2  0
  2 10  1  0
 10 11  2  0
 10 12  1  0
 12 13  2  0
 13 14  1  0
 14 15  2  0
 15 16  1  0
 16 17  2  0
 16 18  2  0
 16 19  1  0
 19 20  1  0
 20 21  2  0
 21 22  1  0
 22 23  2  0
 23 24  1  0
 24 25  2  0
 15 26  1  0
 26 27  2  0
  9  4  1  0
 27 12  1  0
 25 20  1  0
  1 28  1  0
  1 29  1  0
  1 30  1  0
  3 31  1  0
  3 32  1  0
  5 33  1  0
  6 34  1  0
  7 35  1  0
  8 36  1  0
  9 37  1  0
 13 38  1  0
 14 39  1  0
 19 40  1  0
 21 41  1  0
 22 42  1  0
 23 43  1  0
 24 44  1  0
 25 45  1  0
 26 46  1  0
 27 47  1  0
M  END
$$$$
