@<TRIPOS>MOLECULE
*****
 47 49 0 0 0
SMALL
GASTEIGER

@<TRIPOS>ATOM
      1 C          -1.6394    0.4014    1.6063 C.3     1  UNL1        0.0038
      2 N          -2.1841    1.1895    0.5272 N.am    1  UNL1       -0.2963
      3 C          -3.4504    1.8671    0.7589 C.3     1  UNL1        0.0397
      4 C          -4.5897    0.9377    0.6972 C.ar    1  UNL1       -0.0301
      5 C          -5.0749    0.4414    1.8969 C.ar    1  UNL1       -0.0571
      6 C          -6.1207   -0.4402    1.9481 C.ar    1  UNL1       -0.0615
      7 C          -6.7188   -0.8565    0.7965 C.ar    1  UNL1       -0.0617
      8 C          -6.2715   -0.3882   -0.4413 C.ar    1  UNL1       -0.0615
      9 C          -5.2052    0.5074   -0.4498 C.ar    1  UNL1       -0.0571
     10 C          -1.5872    1.3252   -0.7397 C.2     1  UNL1        0.2467
     11 O          -2.1545    2.0495   -1.6056 O.2     1  UNL1       -0.2700
     12 C          -0.3279    0.6781   -1.1523 C.ar    1  UNL1        0.0370
     13 C          -0.2123   -0.6858   -1.3196 C.ar    1  UNL1       -0.0478
     14 C           0.9807   -1.2588   -1.7030 C.ar    1  UNL1       -0.0344
     15 C           2.1214   -0.5128   -1.9390 C.ar    1  UNL1        0.1085
     16 S           3.6137   -1.3244   -2.4281 S.O2    1  UNL1        0.0723
     17 O           4.4946   -0.3003   -3.0531 O.2     1  UNL1       -0.1500
     18 O           3.3405   -2.3826   -3.4472 O.2     1  UNL1       -0.1500
     19 N           4.2981   -2.0276   -1.0091 N.pl3   1  UNL1       -0.2163
     20 C           4.7156   -1.2454    0.0929 C.ar    1  UNL1        0.0480
     21 C           4.2872   -1.4096    1.3626 C.ar    1  UNL1       -0.0393
     22 C           4.7060   -0.5903    2.4165 C.ar    1  UNL1       -0.0600
     23 C           5.5851    0.4247    2.1720 C.ar    1  UNL1       -0.0616
     24 C           6.0403    0.6100    0.8691 C.ar    1  UNL1       -0.0600
     25 C           5.6224   -0.2035   -0.1661 C.ar    1  UNL1       -0.0393
     26 C           2.0121    0.8420   -1.7731 C.ar    1  UNL1       -0.0344
     27 C           0.8065    1.4345   -1.3850 C.ar    1  UNL1       -0.0478
     28 H          -2.0013    0.8053    2.5814 H       1  UNL1        0.0429
     29 H          -1.8633   -0.6941    1.5104 H       1  UNL1        0.0429
     30 H          -0.5372    0.5154    1.5853 H       1  UNL1        0.0429
     31 H          -3.5978    2.6611   -0.0170 H       1  UNL1        0.0514
     32 H          -3.3613    2.4085    1.7215 H       1  UNL1        0.0514
     33 H          -4.6436    0.7360    2.8683 H       1  UNL1        0.0621
     34 H          -6.5025   -0.8441    2.8798 H       1  UNL1        0.0618
     35 H          -7.5610   -1.5658    0.7751 H       1  UNL1        0.0618
     36 H          -6.7592   -0.7360   -1.3356 H       1  UNL1        0.0618
     37 H          -4.8314    0.8875   -1.3904 H       1  UNL1        0.0621
     38 H          -1.0856   -1.3024   -1.1379 H       1  UNL1        0.0626
     39 H           1.0777   -2.3507   -1.8390 H       1  UNL1        0.0637
     40 H           4.3881   -3.0616   -0.9952 H       1  UNL1        0.1737
     41 H           3.5752   -2.2156    1.6028 H       1  UNL1        0.0636
     42 H           4.3435   -0.7315    3.4246 H       1  UNL1        0.0618
     43 H           5.9440    1.0946    2.9726 H       1  UNL1        0.0618
     44 H           6.7377    1.4242    0.7190 H       1  UNL1        0.0618
     45 H           5.9528   -0.0812   -1.1645 H       1  UNL1        0.0636
     46 H           2.8865    1.4680   -1.9528 H       1  UNL1        0.0637
     47 H           0.7512    2.4996   -1.2662 H       1  UNL1        0.0626
@<TRIPOS>BOND
     1     1     2    1
     2     2     3    1
     3     3     4    1
     4     4     5   ar
     5     5     6   ar
     6     6     7   ar
     7     7     8   ar
     8     8     9   ar
     9     2    10   am
    10    10    11    2
    11    10    12    1
    12    12    13   ar
    13    13    14   ar
    14    14    15   ar
    15    15    16    1
    16    16    17    2
    17    16    18    2
    18    16    19    1
    19    19    20    1
    20    20    21   ar
    21    21    22   ar
    22    22    23   ar
    23    23    24   ar
    24    24    25   ar
    25    15    26   ar
    26    26    27   ar
    27     9     4   ar
    28    27    12   ar
    29    25    20   ar
    30     1    28    1
    31     1    29    1
    32     1    30    1
    33     3    31    1
    34     3    32    1
    35     5    33    1
    36     6    34    1
    37     7    35    1
    38     8    36    1
    39     9    37    1
    40    13    38    1
    41    14    39    1
    42    19    40    1
    43    21    41    1
    44    22    42    1
    45    23    43    1
    46    24    44    1
    47    25    45    1
    48    26    46    1
    49    27    47    1
