@<TRIPOS>MOLECULE
*****
 35 37 0 0 0
SMALL
GASTEIGER

@<TRIPOS>ATOM
      1 C          -5.0244   -0.4641    0.0551 C.3     1  UNL1        0.0671
      2 N          -3.8532   -1.3410    0.0626 N.pl3   1  UNL1       -0.2347
      3 C          -2.5326   -0.8273   -0.0791 C.2     1  UNL1        0.3538
      4 N          -2.4776    0.3890    0.3509 N.2     1  UNL1       -0.0391
      5 C          -1.3333    1.1991    0.3613 C.ar    1  UNL1        0.1898
      6 C          -0.0124    0.8476    0.1054 C.ar    1  UNL1        0.0995
      7 C           1.0477    1.7549    0.1477 C.ar    1  UNL1       -0.0257
      8 C           0.7641    3.0609    0.4589 C.ar    1  UNL1        0.0420
      9 CL          2.0818    4.1950    0.5127 Cl      1  UNL1       -0.0835
     10 C          -0.5435    3.4443    0.7195 C.ar    1  UNL1       -0.0392
     11 C          -1.5838    2.5364    0.6744 C.ar    1  UNL1       -0.0087
     12 C           0.5372   -0.4758   -0.2461 C.2     1  UNL1        0.2328
     13 C           2.0002   -0.6423   -0.2538 C.ar    1  UNL1        0.0478
     14 C           2.5465   -0.9416    0.9925 C.ar    1  UNL1       -0.0483
     15 C           3.9108   -1.1233    1.1241 C.ar    1  UNL1       -0.0610
     16 C           4.6879   -0.9973   -0.0099 C.ar    1  UNL1       -0.0617
     17 C           4.1479   -0.7009   -1.2445 C.ar    1  UNL1       -0.0610
     18 C           2.7836   -0.5214   -1.3644 C.ar    1  UNL1       -0.0483
     19 N          -0.2055   -1.4998   -0.5487 N.3     1  UNL1       -0.1906
     20 O           0.5849   -2.5941   -0.8306 O.co2   1  UNL1       -0.6239
     21 C          -1.5875   -1.7836   -0.6633 C.3     1  UNL1        0.2572
     22 H          -5.4666   -0.3353    1.0473 H       1  UNL1        0.0687
     23 H          -5.7404   -0.9655   -0.6601 H       1  UNL1        0.0687
     24 H          -4.8088    0.5201   -0.3868 H       1  UNL1        0.0687
     25 H          -4.0608   -2.3729    0.1798 H       1  UNL1        0.2909
     26 H           2.0608    1.4415   -0.0576 H       1  UNL1        0.0641
     27 H          -0.7408    4.4982    0.9662 H       1  UNL1        0.0633
     28 H          -2.6206    2.8332    0.8796 H       1  UNL1        0.0661
     29 H           1.9663   -1.0478    1.9030 H       1  UNL1        0.0626
     30 H           4.3815   -1.3603    2.0878 H       1  UNL1        0.0618
     31 H           5.7570   -1.1391    0.0903 H       1  UNL1        0.0618
     32 H           4.7338   -0.5977   -2.1428 H       1  UNL1        0.0618
     33 H           2.2541   -0.2865   -2.2821 H       1  UNL1        0.0626
     34 H          -1.8284   -1.9243   -1.7513 H       1  UNL1        0.1172
     35 H          -1.8263   -2.7784   -0.1981 H       1  UNL1        0.1172
@<TRIPOS>UNITY_ATOM_ATTR
19 1
charge 1
20 1
charge -1
@<TRIPOS>BOND
     1     1     2    1
     2     2     3    1
     3     3     4    2
     4     4     5    1
     5     5     6   ar
     6     6     7   ar
     7     7     8   ar
     8     8     9    1
     9     8    10   ar
    10    10    11   ar
    11     6    12    1
    12    12    13    1
    13    13    14   ar
    14    14    15   ar
    15    15    16   ar
    16    16    17   ar
    17    17    18   ar
    18    12    19    2
    19    19    20    1
    20    19    21    1
    21    21     3    1
    22    11     5   ar
    23    18    13   ar
    24     1    22    1
    25     1    23    1
    26     1    24    1
    27     2    25    1
    28     7    26    1
    29    10    27    1
    30    11    28    1
    31    14    29    1
    32    15    30    1
    33    16    31    1
    34    17    32    1
    35    18    33    1
    36    21    34    1
    37    21    35    1
