
     RDKit          3D

 35 37  0  0  0  0  0  0  0  0999 V2000
   -5.0244   -0.4641    0.0551 C   0  0  0  0  0  0  0  0  0  0  0  0
   -3.8532   -1.3410    0.0626 N   0  0  0  0  0  0  0  0  0  0  0  0
   -2.5326   -0.8273   -0.0791 C   0  0  0  0  0  0  0  0  0  0  0  0
   -2.4776    0.3890    0.3509 N   0  0  0  0  0  0  0  0  0  0  0  0
   -1.3333    1.1991    0.3613 C   0  0  0  0  0  0  0  0  0  0  0  0
   -0.0124    0.8476    0.1054 C   0  0  0  0  0  0  0  0  0  0  0  0
    1.0477    1.7549    0.1477 C   0  0  0  0  0  0  0  0  0  0  0  0
    0.7641    3.0609    0.4589 C   0  0  0  0  0  0  0  0  0  0  0  0
    2.0818    4.1950    0.5127 Cl  0  0  0  0  0  0  0  0  0  0  0  0
   -0.5435    3.4443    0.7195 C   0  0  0  0  0  0  0  0  0  0  0  0
   -1.5838    2.5364    0.6744 C   0  0  0  0  0  0  0  0  0  0  0  0
    0.5372   -0.4758   -0.2461 C   0  0  0  0  0  0  0  0  0  0  0  0
    2.0002   -0.6423   -0.2538 C   0  0  0  0  0  0  0  0  0  0  0  0
    2.5465   -0.9416    0.9925 C   0  0  0  0  0  0  0  0  0  0  0  0
    3.9108   -1.1233    1.1241 C   0  0  0  0  0  0  0  0  0  0  0  0
    4.6879   -0.9973   -0.0099 C   0  0  0  0  0  0  0  0  0  0  0  0
    4.1479   -0.7009   -1.2445 C   0  0  0  0  0  0  0  0  0  0  0  0
    2.7836   -0.5214   -1.3644 C   0  0  0  0  0  0  0  0  0  0  0  0
   -0.2055   -1.4998   -0.5487 N   0  0  0  0  0  4  0  0  0  0  0  0
    0.5849   -2.5941   -0.8306 O   0  0  0  0  0  1  0  0  0  0  0  0
   -1.5875   -1.7836   -0.6633 C   0  0  0  0  0  0  0  0  0  0  0  0
   -5.4666   -0.3353    1.0473 H   0  0  0  0  0  0  0  0  0  0  0  0
   -5.7404   -0.9655   -0.6601 H   0  0  0  0  0  0  0  0  0  0  0  0
   -4.8088    0.5201   -0.3868 H   0  0  0  0  0  0  0  0  0  0  0  0
   -4.0608   -2.3729    0.1798 H   0  0  0  0  0  0  0  0  0  0  0  0
    2.0608    1.4415   -0.0576 H   0  0  0  0  0  0  0  0  0  0  0  0
   -0.7408    4.4982    0.9662 H   0  0  0  0  0  0  0  0  0  0  0  0
   -2.6206    2.8332    0.8796 H   0  0  0  0  0  0  0  0  0  0  0  0
    1.9663   -1.0478    1.9030 H   0  0  0  0  0  0  0  0  0  0  0  0
    4.3815   -1.3603    2.0878 H   0  0  0  0  0  0  0  0  0  0  0  0
    5.7570   -1.1391    0.0903 H   0  0  0  0  0  0  0  0  0  0  0  0
    4.7338   -0.5977   -2.1428 H   0  0  0  0  0  0  0  0  0  0  0  0
    2.2541   -0.2865   -2.2821 H   0  0  0  0  0  0  0  0  0  0  0  0
   -1.8284   -1.9243   -1.7513 H   0  0  0  0  0  0  0  0  0  0  0  0
   -1.8263   -2.7784   -0.1981 H   0  0  0  0  0  0  0  0  0  0  0  0
  1  2  1  0
  2  3  1  0
  3  4  2  0
  4  5  1  0
  5  6  2  0
  6  7  1  0
  7  8  2  0
  8  9  1  0
  8 10  1  0
 10 11  2  0
  6 12  1  0
 12 13  1  0
 13 14  2  0
 14 15  1  0
 15 16  2  0
 16 17  1  0
 17 18  2  0
 12 19  2  0
 19 20  1  0
 19 21  1  0
 21  3  1  0
 11  5  1  0
 18 13  1  0
  1 22  1  0
  1 23  1  0
  1 24  1  0
  2 25  1  0
  7 26  1  0
 10 27  1  0
 11 28  1  0
 14 29  1  0
 15 30  1  0
 16 31  1  0
 17 32  1  0
 18 33  1  0
 21 34  1  0
 21 35  1  0
M  CHG  2  19   1  20  -1
M  END
$$$$
