@<TRIPOS>MOLECULE
*****
 63 65 0 0 0
SMALL
GASTEIGER

@<TRIPOS>ATOM
      1 C          -2.9844    2.5322    0.8948 C.3     1  UNL1       -0.0349
      2 C          -2.6475    1.2284    1.5871 C.3     1  UNL1        0.1123
      3 C          -1.5147    1.4073    2.5769 C.3     1  UNL1       -0.0349
      4 C          -3.8754    0.7275    2.2344 C.2     1  UNL1        0.2489
      5 O          -4.2948    0.9715    3.4137 O.2     1  UNL1       -0.2725
      6 N          -4.5330   -0.1005    1.2886 N.am    1  UNL1       -0.2196
      7 C          -5.8770   -0.5530    1.2755 C.ar    1  UNL1        0.0436
      8 C          -6.2359   -1.7167    1.8780 C.ar    1  UNL1       -0.0386
      9 C          -7.5717   -2.1095    1.8182 C.ar    1  UNL1       -0.0420
     10 C          -8.5094   -1.3651    1.1803 C.ar    1  UNL1        0.0635
     11 C          -9.8868   -1.7717    1.1075 C.1     1  UNL1        0.0997
     12 N         -11.0047   -2.1105    1.0666 N.1     1  UNL1       -0.1909
     13 C          -8.1405   -0.1756    0.5661 C.ar    1  UNL1        0.0739
     14 C          -9.1731    0.6187   -0.1179 C.3     1  UNL1        0.4187
     15 F          -9.7849   -0.0701   -1.1383 F       1  UNL1       -0.1659
     16 F         -10.1820    0.9951    0.7663 F       1  UNL1       -0.1659
     17 F          -8.6306    1.8008   -0.5998 F       1  UNL1       -0.1659
     18 C          -6.8367    0.2167    0.6188 C.ar    1  UNL1       -0.0270
     19 C          -3.5632   -0.4182    0.2713 C.2     1  UNL1        0.1515
     20 S          -3.7929   -1.3451   -1.0454 S.2     1  UNL1       -0.0174
     21 N          -2.3388    0.2170    0.6045 N.am    1  UNL1       -0.2676
     22 C          -1.0209   -0.0156    0.1095 C.ar    1  UNL1        0.0392
     23 C          -0.1185   -0.8801    0.6811 C.ar    1  UNL1       -0.0394
     24 C           1.1370   -1.0484    0.1400 C.ar    1  UNL1       -0.0451
     25 C           1.5658   -0.3671   -0.9995 C.ar    1  UNL1        0.0719
     26 C           2.8926   -0.6014   -1.5155 C.2     1  UNL1        0.2469
     27 O           3.6867   -1.3101   -0.8044 O.2     1  UNL1       -0.2701
     28 N           3.4419   -0.1445   -2.7239 N.am    1  UNL1       -0.3091
     29 C           4.7830   -0.4021   -3.1922 C.3     1  UNL1        0.0353
     30 C           5.8652    0.1357   -2.2833 C.3     1  UNL1        0.0632
     31 O           7.0709   -0.1980   -2.8890 O.3     1  UNL1       -0.3777
     32 C           8.1894    0.2335   -2.2321 C.3     1  UNL1        0.0560
     33 C           8.2558   -0.3506   -0.8605 C.3     1  UNL1        0.0493
     34 C           9.4938    0.1155   -0.1389 C.2     1  UNL1        0.2376
     35 O          10.3178    0.9024   -0.7119 O.2     1  UNL1       -0.2737
     36 N           9.6852   -0.3572    1.1773 N.am    1  UNL1       -0.1974
     37 O          10.7756    0.0184    1.8907 O.3     1  UNL1       -0.2952
     38 C           0.6600    0.4871   -1.5557 C.ar    1  UNL1        0.1372
     39 F           0.9737    1.1970   -2.6538 F       1  UNL1       -0.2046
     40 C          -0.6214    0.6674   -1.0142 C.ar    1  UNL1       -0.0042
     41 H          -3.3612    3.2289    1.6721 H       1  UNL1        0.0255
     42 H          -3.7465    2.3541    0.1205 H       1  UNL1        0.0255
     43 H          -2.0491    2.9802    0.4637 H       1  UNL1        0.0255
     44 H          -1.7020    2.3470    3.1408 H       1  UNL1        0.0255
     45 H          -1.4736    0.6099    3.3245 H       1  UNL1        0.0255
     46 H          -0.5806    1.5790    2.0156 H       1  UNL1        0.0255
     47 H          -5.4809   -2.3071    2.3859 H       1  UNL1        0.0637
     48 H          -7.8715   -3.0354    2.2960 H       1  UNL1        0.0631
     49 H          -6.5099    1.1289    0.1568 H       1  UNL1        0.0642
     50 H          -0.4315   -1.4088    1.5569 H       1  UNL1        0.0636
     51 H           1.8460   -1.7339    0.5993 H       1  UNL1        0.0626
     52 H           2.8488    0.4284   -3.3572 H       1  UNL1        0.1491
     53 H           4.9553   -0.0519   -4.2122 H       1  UNL1        0.0485
     54 H           4.9268   -1.5122   -3.2031 H       1  UNL1        0.0485
     55 H           5.8423    1.2354   -2.1783 H       1  UNL1        0.0575
     56 H           5.7380   -0.3703   -1.3107 H       1  UNL1        0.0575
     57 H           8.1334    1.3565   -2.2093 H       1  UNL1        0.0564
     58 H           9.0663   -0.0866   -2.8662 H       1  UNL1        0.0564
     59 H           8.2966   -1.4539   -0.9112 H       1  UNL1        0.0382
     60 H           7.3971    0.0257   -0.2651 H       1  UNL1        0.0382
     61 H           8.9960   -0.9927    1.6082 H       1  UNL1        0.1822
     62 H          10.8312    1.0103    1.9830 H       1  UNL1        0.2414
     63 H          -1.3265    1.3565   -1.4806 H       1  UNL1        0.0665
@<TRIPOS>BOND
     1     1     2    1
     2     2     3    1
     3     2     4    1
     4     4     5    2
     5     4     6   am
     6     6     7    1
     7     7     8   ar
     8     8     9   ar
     9     9    10   ar
    10    10    11    1
    11    11    12    3
    12    10    13   ar
    13    13    14    1
    14    14    15    1
    15    14    16    1
    16    14    17    1
    17    13    18   ar
    18     6    19    1
    19    19    20    2
    20    19    21    1
    21    21    22    1
    22    22    23   ar
    23    23    24   ar
    24    24    25   ar
    25    25    26    1
    26    26    27    2
    27    26    28   am
    28    28    29    1
    29    29    30    1
    30    30    31    1
    31    31    32    1
    32    32    33    1
    33    33    34    1
    34    34    35    2
    35    34    36   am
    36    36    37    1
    37    25    38   ar
    38    38    39    1
    39    38    40   ar
    40    21     2    1
    41    40    22   ar
    42    18     7   ar
    43     1    41    1
    44     1    42    1
    45     1    43    1
    46     3    44    1
    47     3    45    1
    48     3    46    1
    49     8    47    1
    50     9    48    1
    51    18    49    1
    52    23    50    1
    53    24    51    1
    54    28    52    1
    55    29    53    1
    56    29    54    1
    57    30    55    1
    58    30    56    1
    59    32    57    1
    60    32    58    1
    61    33    59    1
    62    33    60    1
    63    36    61    1
    64    37    62    1
    65    40    63    1
