
     RDKit          3D

 63 65  0  0  0  0  0  0  0  0999 V2000
   -2.9844    2.5322    0.8948 C   0  0  0  0  0  0  0  0  0  0  0  0
   -2.6475    1.2284    1.5871 C   0  0  0  0  0  0  0  0  0  0  0  0
   -1.5147    1.4073    2.5769 C   0  0  0  0  0  0  0  0  0  0  0  0
   -3.8754    0.7275    2.2344 C   0  0  0  0  0  0  0  0  0  0  0  0
   -4.2948    0.9715    3.4137 O   0  0  0  0  0  0  0  0  0  0  0  0
   -4.5330   -0.1005    1.2886 N   0  0  0  0  0  0  0  0  0  0  0  0
   -5.8770   -0.5530    1.2755 C   0  0  0  0  0  0  0  0  0  0  0  0
   -6.2359   -1.7167    1.8780 C   0  0  0  0  0  0  0  0  0  0  0  0
   -7.5717   -2.1095    1.8182 C   0  0  0  0  0  0  0  0  0  0  0  0
   -8.5094   -1.3651    1.1803 C   0  0  0  0  0  0  0  0  0  0  0  0
   -9.8868   -1.7717    1.1075 C   0  0  0  0  0  0  0  0  0  0  0  0
  -11.0047   -2.1105    1.0666 N   0  0  0  0  0  0  0  0  0  0  0  0
   -8.1405   -0.1756    0.5661 C   0  0  0  0  0  0  0  0  0  0  0  0
   -9.1731    0.6187   -0.1179 C   0  0  0  0  0  0  0  0  0  0  0  0
   -9.7849   -0.0701   -1.1383 F   0  0  0  0  0  0  0  0  0  0  0  0
  -10.1820    0.9951    0.7663 F   0  0  0  0  0  0  0  0  0  0  0  0
   -8.6306    1.8008   -0.5998 F   0  0  0  0  0  0  0  0  0  0  0  0
   -6.8367    0.2167    0.6188 C   0  0  0  0  0  0  0  0  0  0  0  0
   -3.5632   -0.4182    0.2713 C   0  0  0  0  0  0  0  0  0  0  0  0
   -3.7929   -1.3451   -1.0454 S   0  0  0  0  0  0  0  0  0  0  0  0
   -2.3388    0.2170    0.6045 N   0  0  0  0  0  0  0  0  0  0  0  0
   -1.0209   -0.0156    0.1095 C   0  0  0  0  0  0  0  0  0  0  0  0
   -0.1185   -0.8801    0.6811 C   0  0  0  0  0  0  0  0  0  0  0  0
    1.1370   -1.0484    0.1400 C   0  0  0  0  0  0  0  0  0  0  0  0
    1.5658   -0.3671   -0.9995 C   0  0  0  0  0  0  0  0  0  0  0  0
    2.8926   -0.6014   -1.5155 C   0  0  0  0  0  0  0  0  0  0  0  0
    3.6867   -1.3101   -0.8044 O   0  0  0  0  0  0  0  0  0  0  0  0
    3.4419   -0.1445   -2.7239 N   0  0  0  0  0  0  0  0  0  0  0  0
    4.7830   -0.4021   -3.1922 C   0  0  0  0  0  0  0  0  0  0  0  0
    5.8652    0.1357   -2.2833 C   0  0  0  0  0  0  0  0  0  0  0  0
    7.0709   -0.1980   -2.8890 O   0  0  0  0  0  0  0  0  0  0  0  0
    8.1894    0.2335   -2.2321 C   0  0  0  0  0  0  0  0  0  0  0  0
    8.2558   -0.3506   -0.8605 C   0  0  0  0  0  0  0  0  0  0  0  0
    9.4938    0.1155   -0.1389 C   0  0  0  0  0  0  0  0  0  0  0  0
   10.3178    0.9024   -0.7119 O   0  0  0  0  0  0  0  0  0  0  0  0
    9.6852   -0.3572    1.1773 N   0  0  0  0  0  0  0  0  0  0  0  0
   10.7756    0.0184    1.8907 O   0  0  0  0  0  0  0  0  0  0  0  0
    0.6600    0.4871   -1.5557 C   0  0  0  0  0  0  0  0  0  0  0  0
    0.9737    1.1970   -2.6538 F   0  0  0  0  0  0  0  0  0  0  0  0
   -0.6214    0.6674   -1.0142 C   0  0  0  0  0  0  0  0  0  0  0  0
   -3.3612    3.2289    1.6721 H   0  0  0  0  0  0  0  0  0  0  0  0
   -3.7465    2.3541    0.1205 H   0  0  0  0  0  0  0  0  0  0  0  0
   -2.0491    2.9802    0.4637 H   0  0  0  0  0  0  0  0  0  0  0  0
   -1.7020    2.3470    3.1408 H   0  0  0  0  0  0  0  0  0  0  0  0
   -1.4736    0.6099    3.3245 H   0  0  0  0  0  0  0  0  0  0  0  0
   -0.5806    1.5790    2.0156 H   0  0  0  0  0  0  0  0  0  0  0  0
   -5.4809   -2.3071    2.3859 H   0  0  0  0  0  0  0  0  0  0  0  0
   -7.8715   -3.0354    2.2960 H   0  0  0  0  0  0  0  0  0  0  0  0
   -6.5099    1.1289    0.1568 H   0  0  0  0  0  0  0  0  0  0  0  0
   -0.4315   -1.4088    1.5569 H   0  0  0  0  0  0  0  0  0  0  0  0
    1.8460   -1.7339    0.5993 H   0  0  0  0  0  0  0  0  0  0  0  0
    2.8488    0.4284   -3.3572 H   0  0  0  0  0  0  0  0  0  0  0  0
    4.9553   -0.0519   -4.2122 H   0  0  0  0  0  0  0  0  0  0  0  0
    4.9268   -1.5122   -3.2031 H   0  0  0  0  0  0  0  0  0  0  0  0
    5.8423    1.2354   -2.1783 H   0  0  0  0  0  0  0  0  0  0  0  0
    5.7380   -0.3703   -1.3107 H   0  0  0  0  0  0  0  0  0  0  0  0
    8.1334    1.3565   -2.2093 H   0  0  0  0  0  0  0  0  0  0  0  0
    9.0663   -0.0866   -2.8662 H   0  0  0  0  0  0  0  0  0  0  0  0
    8.2966   -1.4539   -0.9112 H   0  0  0  0  0  0  0  0  0  0  0  0
    7.3971    0.0257   -0.2651 H   0  0  0  0  0  0  0  0  0  0  0  0
    8.9960   -0.9927    1.6082 H   0  0  0  0  0  0  0  0  0  0  0  0
   10.8312    1.0103    1.9830 H   0  0  0  0  0  0  0  0  0  0  0  0
   -1.3265    1.3565   -1.4806 H   0  0  0  0  0  0  0  0  0  0  0  0
  1  2  1  0
  2  3  1  0
  2  4  1  0
  4  5  2  0
  4  6  1  0
  6  7  1  0
  7  8  2  0
  8  9  1  0
  9 10  2  0
 10 11  1  0
 11 12  3  0
 10 13  1  0
 13 14  1  0
 14 15  1  0
 14 16  1  0
 14 17  1  0
 13 18  2  0
  6 19  1  0
 19 20  2  0
 19 21  1  0
 21 22  1  0
 22 23  2  0
 23 24  1  0
 24 25  2  0
 25 26  1  0
 26 27  2  0
 26 28  1  0
 28 29  1  0
 29 30  1  0
 30 31  1  0
 31 32  1  0
 32 33  1  0
 33 34  1  0
 34 35  2  0
 34 36  1  0
 36 37  1  0
 25 38  1  0
 38 39  1  0
 38 40  2  0
 21  2  1  0
 40 22  1  0
 18  7  1  0
  1 41  1  0
  1 42  1  0
  1 43  1  0
  3 44  1  0
  3 45  1  0
  3 46  1  0
  8 47  1  0
  9 48  1  0
 18 49  1  0
 23 50  1  0
 24 51  1  0
 28 52  1  0
 29 53  1  0
 29 54  1  0
 30 55  1  0
 30 56  1  0
 32 57  1  0
 32 58  1  0
 33 59  1  0
 33 60  1  0
 36 61  1  0
 37 62  1  0
 40 63  1  0
M  END
$$$$
