
     RDKit          3D

 55 58  0  0  0  0  0  0  0  0999 V2000
    3.0529   -3.3133    0.0347 C   0  0  0  0  0  0  0  0  0  0  0  0
    3.2311   -2.1252   -0.4436 C   0  0  0  0  0  0  0  0  0  0  0  0
    2.4325   -1.6616   -1.6485 C   0  0  0  0  0  0  0  0  0  0  0  0
    1.4549   -0.2094   -1.3361 S   0  0  0  0  0  0  0  0  0  0  0  0
    0.0832   -0.4413   -0.2379 C   0  0  0  0  0  0  0  0  0  0  0  0
   -0.6750    0.5707    0.1275 N   0  0  0  0  0  0  0  0  0  0  0  0
   -0.3731    1.8923   -0.3829 C   0  0  0  0  0  0  0  0  0  0  0  0
   -0.5279    2.8893    0.7507 C   0  0  0  0  0  0  0  0  0  0  0  0
   -0.0017    4.1830    0.2220 C   0  0  0  0  0  0  0  0  0  0  0  0
   -0.8098    4.6902   -0.9309 C   0  0  0  0  0  0  0  0  0  0  0  0
   -1.2469    3.6910   -1.9146 C   0  0  0  0  0  0  0  0  0  0  0  0
   -1.2922    2.2713   -1.5064 C   0  0  0  0  0  0  0  0  0  0  0  0
   -0.3015   -1.6914    0.3274 N   0  0  0  0  0  0  0  0  0  0  0  0
   -1.6639   -2.0023    0.5556 C   0  0  0  0  0  0  0  0  0  0  0  0
   -2.5166   -1.9960   -0.6946 C   0  0  0  0  0  0  0  0  0  0  0  0
   -3.7975   -2.7218   -0.3434 C   0  0  0  0  0  0  0  0  0  0  0  0
   -4.5005   -2.1782    0.8467 C   0  0  0  0  0  0  0  0  0  0  0  0
   -3.5959   -1.8482    2.0067 C   0  0  0  0  0  0  0  0  0  0  0  0
   -2.3510   -1.0834    1.5398 C   0  0  0  0  0  0  0  0  0  0  0  0
    4.1732   -1.2881    0.1944 N   0  0  0  0  0  0  0  0  0  0  0  0
    4.7072    0.0824    0.0179 C   0  0  0  0  0  0  0  0  0  0  0  0
    5.6627    0.2426    1.1450 C   0  0  0  0  0  0  0  0  0  0  0  0
    5.6508   -1.0112    1.8335 N   0  0  0  0  0  0  0  0  0  0  0  0
    4.8318   -1.8356    1.3026 C   0  0  0  0  0  0  0  0  0  0  0  0
    4.1431   -3.5047    1.4213 S   0  0  0  0  0  0  0  0  0  0  0  0
    2.3711   -4.1082   -0.3031 H   0  0  0  0  0  0  0  0  0  0  0  0
    1.7599   -2.4608   -2.0138 H   0  0  0  0  0  0  0  0  0  0  0  0
    3.1356   -1.4726   -2.5007 H   0  0  0  0  0  0  0  0  0  0  0  0
    0.6675    1.9873   -0.7435 H   0  0  0  0  0  0  0  0  0  0  0  0
   -1.5737    3.0053    1.0616 H   0  0  0  0  0  0  0  0  0  0  0  0
    0.1069    2.5177    1.5776 H   0  0  0  0  0  0  0  0  0  0  0  0
    1.0688    4.0211   -0.0926 H   0  0  0  0  0  0  0  0  0  0  0  0
    0.0364    4.9630    1.0111 H   0  0  0  0  0  0  0  0  0  0  0  0
   -0.1909    5.5075   -1.4082 H   0  0  0  0  0  0  0  0  0  0  0  0
   -1.6790    5.2503   -0.4828 H   0  0  0  0  0  0  0  0  0  0  0  0
   -2.2465    3.9798   -2.3211 H   0  0  0  0  0  0  0  0  0  0  0  0
   -0.5603    3.7622   -2.8117 H   0  0  0  0  0  0  0  0  0  0  0  0
   -2.3156    1.9402   -1.2044 H   0  0  0  0  0  0  0  0  0  0  0  0
   -1.0246    1.5889   -2.3646 H   0  0  0  0  0  0  0  0  0  0  0  0
    0.4442   -2.3754    0.5679 H   0  0  0  0  0  0  0  0  0  0  0  0
   -1.7466   -3.0255    0.9764 H   0  0  0  0  0  0  0  0  0  0  0  0
   -2.0409   -2.5395   -1.5321 H   0  0  0  0  0  0  0  0  0  0  0  0
   -2.7952   -0.9581   -0.9698 H   0  0  0  0  0  0  0  0  0  0  0  0
   -3.5581   -3.7972   -0.2196 H   0  0  0  0  0  0  0  0  0  0  0  0
   -4.5233   -2.6685   -1.2059 H   0  0  0  0  0  0  0  0  0  0  0  0
   -5.2175   -2.9495    1.2146 H   0  0  0  0  0  0  0  0  0  0  0  0
   -5.1284   -1.2896    0.6010 H   0  0  0  0  0  0  0  0  0  0  0  0
   -3.2168   -2.7639    2.5026 H   0  0  0  0  0  0  0  0  0  0  0  0
   -4.1736   -1.2053    2.6954 H   0  0  0  0  0  0  0  0  0  0  0  0
   -1.7495   -0.8137    2.4005 H   0  0  0  0  0  0  0  0  0  0  0  0
   -2.7542   -0.2080    0.9630 H   0  0  0  0  0  0  0  0  0  0  0  0
    3.8845    0.8262   -0.0046 H   0  0  0  0  0  0  0  0  0  0  0  0
    5.2970    0.1195   -0.9385 H   0  0  0  0  0  0  0  0  0  0  0  0
    6.6876    0.5342    0.8045 H   0  0  0  0  0  0  0  0  0  0  0  0
    5.2656    1.0316    1.8539 H   0  0  0  0  0  0  0  0  0  0  0  0
  1  2  2  0
  2  3  1  0
  3  4  1  0
  4  5  1  0
  5  6  2  0
  6  7  1  0
  7  8  1  0
  8  9  1  0
  9 10  1  0
 10 11  1  0
 11 12  1  0
  5 13  1  0
 13 14  1  0
 14 15  1  0
 15 16  1  0
 16 17  1  0
 17 18  1  0
 18 19  1  0
  2 20  1  0
 20 21  1  0
 21 22  1  0
 22 23  1  0
 23 24  2  0
 24 25  1  0
 25  1  1  0
 12  7  1  0
 19 14  1  0
 24 20  1  0
  1 26  1  0
  3 27  1  0
  3 28  1  0
  7 29  1  0
  8 30  1  0
  8 31  1  0
  9 32  1  0
  9 33  1  0
 10 34  1  0
 10 35  1  0
 11 36  1  0
 11 37  1  0
 12 38  1  0
 12 39  1  0
 13 40  1  0
 14 41  1  0
 15 42  1  0
 15 43  1  0
 16 44  1  0
 16 45  1  0
 17 46  1  0
 17 47  1  0
 18 48  1  0
 18 49  1  0
 19 50  1  0
 19 51  1  0
 21 52  1  0
 21 53  1  0
 22 54  1  0
 22 55  1  0
M  END
$$$$
