@<TRIPOS>MOLECULE
*****
 55 58 0 0 0
SMALL
GASTEIGER

@<TRIPOS>ATOM
      1 C           3.0529   -3.3133    0.0347 C.2     1  UNL1       -0.0031
      2 C           3.2311   -2.1252   -0.4436 C.2     1  UNL1        0.0296
      3 C           2.4325   -1.6616   -1.6485 C.3     1  UNL1        0.0398
      4 S           1.4549   -0.2094   -1.3361 S.3     1  UNL1       -0.0849
      5 C           0.0832   -0.4413   -0.2379 C.2     1  UNL1        0.1501
      6 N          -0.6750    0.5707    0.1275 N.2     1  UNL1       -0.2602
      7 C          -0.3731    1.8923   -0.3829 C.3     1  UNL1        0.0533
      8 C          -0.5279    2.8893    0.7507 C.3     1  UNL1       -0.0305
      9 C          -0.0017    4.1830    0.2220 C.3     1  UNL1       -0.0511
     10 C          -0.8098    4.6902   -0.9309 C.3     1  UNL1       -0.0529
     11 C          -1.2469    3.6910   -1.9146 C.3     1  UNL1       -0.0511
     12 C          -1.2922    2.2713   -1.5064 C.3     1  UNL1       -0.0305
     13 N          -0.3015   -1.6914    0.3274 N.pl3   1  UNL1       -0.3211
     14 C          -1.6639   -2.0023    0.5556 C.3     1  UNL1        0.0224
     15 C          -2.5166   -1.9960   -0.6946 C.3     1  UNL1       -0.0345
     16 C          -3.7975   -2.7218   -0.3434 C.3     1  UNL1       -0.0514
     17 C          -4.5005   -2.1782    0.8467 C.3     1  UNL1       -0.0529
     18 C          -3.5959   -1.8482    2.0067 C.3     1  UNL1       -0.0514
     19 C          -2.3510   -1.0834    1.5398 C.3     1  UNL1       -0.0345
     20 N           4.1732   -1.2881    0.1944 N.pl3   1  UNL1       -0.2805
     21 C           4.7072    0.0824    0.0179 C.3     1  UNL1        0.0384
     22 C           5.6627    0.2426    1.1450 C.3     1  UNL1        0.0583
     23 N           5.6508   -1.0112    1.8335 N.2     1  UNL1       -0.2613
     24 C           4.8318   -1.8356    1.3026 C.2     1  UNL1        0.1603
     25 S           4.1431   -3.5047    1.4213 S.3     1  UNL1       -0.0607
     26 H           2.3711   -4.1082   -0.3031 H       1  UNL1        0.0710
     27 H           1.7599   -2.4608   -2.0138 H       1  UNL1        0.0442
     28 H           3.1356   -1.4726   -2.5007 H       1  UNL1        0.0442
     29 H           0.6675    1.9873   -0.7435 H       1  UNL1        0.0545
     30 H          -1.5737    3.0053    1.0616 H       1  UNL1        0.0286
     31 H           0.1069    2.5177    1.5776 H       1  UNL1        0.0286
     32 H           1.0688    4.0211   -0.0926 H       1  UNL1        0.0266
     33 H           0.0364    4.9630    1.0111 H       1  UNL1        0.0266
     34 H          -0.1909    5.5075   -1.4082 H       1  UNL1        0.0265
     35 H          -1.6790    5.2503   -0.4828 H       1  UNL1        0.0265
     36 H          -2.2465    3.9798   -2.3211 H       1  UNL1        0.0266
     37 H          -0.5603    3.7622   -2.8117 H       1  UNL1        0.0266
     38 H          -2.3156    1.9402   -1.2044 H       1  UNL1        0.0286
     39 H          -1.0246    1.5889   -2.3646 H       1  UNL1        0.0286
     40 H           0.4442   -2.3754    0.5679 H       1  UNL1        0.1482
     41 H          -1.7466   -3.0255    0.9764 H       1  UNL1        0.0498
     42 H          -2.0409   -2.5395   -1.5321 H       1  UNL1        0.0283
     43 H          -2.7952   -0.9581   -0.9698 H       1  UNL1        0.0283
     44 H          -3.5581   -3.7972   -0.2196 H       1  UNL1        0.0266
     45 H          -4.5233   -2.6685   -1.2059 H       1  UNL1        0.0266
     46 H          -5.2175   -2.9495    1.2146 H       1  UNL1        0.0265
     47 H          -5.1284   -1.2896    0.6010 H       1  UNL1        0.0265
     48 H          -3.2168   -2.7639    2.5026 H       1  UNL1        0.0266
     49 H          -4.1736   -1.2053    2.6954 H       1  UNL1        0.0266
     50 H          -1.7495   -0.8137    2.4005 H       1  UNL1        0.0283
     51 H          -2.7542   -0.2080    0.9630 H       1  UNL1        0.0283
     52 H           3.8845    0.8262   -0.0046 H       1  UNL1        0.0486
     53 H           5.2970    0.1195   -0.9385 H       1  UNL1        0.0486
     54 H           6.6876    0.5342    0.8045 H       1  UNL1        0.0525
     55 H           5.2656    1.0316    1.8539 H       1  UNL1        0.0525
@<TRIPOS>BOND
     1     1     2    2
     2     2     3    1
     3     3     4    1
     4     4     5    1
     5     5     6    2
     6     6     7    1
     7     7     8    1
     8     8     9    1
     9     9    10    1
    10    10    11    1
    11    11    12    1
    12     5    13    1
    13    13    14    1
    14    14    15    1
    15    15    16    1
    16    16    17    1
    17    17    18    1
    18    18    19    1
    19     2    20    1
    20    20    21    1
    21    21    22    1
    22    22    23    1
    23    23    24    2
    24    24    25    1
    25    25     1    1
    26    12     7    1
    27    19    14    1
    28    24    20    1
    29     1    26    1
    30     3    27    1
    31     3    28    1
    32     7    29    1
    33     8    30    1
    34     8    31    1
    35     9    32    1
    36     9    33    1
    37    10    34    1
    38    10    35    1
    39    11    36    1
    40    11    37    1
    41    12    38    1
    42    12    39    1
    43    13    40    1
    44    14    41    1
    45    15    42    1
    46    15    43    1
    47    16    44    1
    48    16    45    1
    49    17    46    1
    50    17    47    1
    51    18    48    1
    52    18    49    1
    53    19    50    1
    54    19    51    1
    55    21    52    1
    56    21    53    1
    57    22    54    1
    58    22    55    1
