
     RDKit          3D

 39 41  0  0  0  0  0  0  0  0999 V2000
   -4.5543    1.8809    0.1779 C   0  0  0  0  0  0  0  0  0  0  0  0
   -4.1793    0.6517    0.8573 N   0  0  0  0  0  0  0  0  0  0  0  0
   -4.6983    0.2862    2.0474 C   0  0  0  0  0  0  0  0  0  0  0  0
   -4.1447   -0.9024    2.4062 C   0  0  0  0  0  0  0  0  0  0  0  0
   -3.2626   -1.2513    1.3840 C   0  0  0  0  0  0  0  0  0  0  0  0
   -3.2989   -0.2696    0.4284 C   0  0  0  0  0  0  0  0  0  0  0  0
   -2.5588   -0.1656   -0.8420 C   0  0  0  0  0  0  0  0  0  0  0  0
   -3.1707    0.2346   -1.8609 O   0  0  0  0  0  0  0  0  0  0  0  0
   -1.1891   -0.4988   -0.9618 N   0  0  0  0  0  0  0  0  0  0  0  0
   -0.5495   -0.3645   -2.2534 C   0  0  0  0  0  0  0  0  0  0  0  0
    0.7418   -1.1671   -2.3116 C   0  0  0  0  0  0  0  0  0  0  0  0
    1.5543   -0.7085   -1.1434 C   0  0  0  0  0  0  0  0  0  0  0  0
    2.8835   -0.3821   -1.2444 C   0  0  0  0  0  0  0  0  0  0  0  0
    3.6503    0.0515   -0.1485 C   0  0  0  0  0  0  0  0  0  0  0  0
    5.0517    0.3730   -0.3768 C   0  0  0  0  0  0  0  0  0  0  0  0
    5.5669    0.2644   -1.5141 O   0  0  0  0  0  0  0  0  0  0  0  0
    5.8785    0.8195    0.6786 N   0  0  0  0  0  0  0  0  0  0  0  0
    7.2045    1.1202    0.4356 O   0  0  0  0  0  0  0  0  0  0  0  0
    3.0089    0.1398    1.0599 C   0  0  0  0  0  0  0  0  0  0  0  0
    1.6600   -0.1834    1.2028 C   0  0  0  0  0  0  0  0  0  0  0  0
    0.9445   -0.6071    0.0891 C   0  0  0  0  0  0  0  0  0  0  0  0
   -0.4823   -0.9576    0.1974 C   0  0  0  0  0  0  0  0  0  0  0  0
   -5.2119    2.5072    0.7827 H   0  0  0  0  0  0  0  0  0  0  0  0
   -3.5964    2.3947   -0.0946 H   0  0  0  0  0  0  0  0  0  0  0  0
   -5.0955    1.6227   -0.7579 H   0  0  0  0  0  0  0  0  0  0  0  0
   -5.4356    0.8182    2.6537 H   0  0  0  0  0  0  0  0  0  0  0  0
   -4.3108   -1.4948    3.2744 H   0  0  0  0  0  0  0  0  0  0  0  0
   -2.6532   -2.1338    1.3412 H   0  0  0  0  0  0  0  0  0  0  0  0
   -1.2059   -0.5508   -3.1086 H   0  0  0  0  0  0  0  0  0  0  0  0
   -0.2254    0.7145   -2.3097 H   0  0  0  0  0  0  0  0  0  0  0  0
    1.2450   -0.9111   -3.2552 H   0  0  0  0  0  0  0  0  0  0  0  0
    0.5431   -2.2499   -2.2726 H   0  0  0  0  0  0  0  0  0  0  0  0
    3.3530   -0.4649   -2.2173 H   0  0  0  0  0  0  0  0  0  0  0  0
    5.4896    0.9203    1.6348 H   0  0  0  0  0  0  0  0  0  0  0  0
    7.6975    0.2617    0.5722 H   0  0  0  0  0  0  0  0  0  0  0  0
    3.5773    0.4712    1.9238 H   0  0  0  0  0  0  0  0  0  0  0  0
    1.1887   -0.0975    2.1816 H   0  0  0  0  0  0  0  0  0  0  0  0
   -0.8727   -0.5403    1.1439 H   0  0  0  0  0  0  0  0  0  0  0  0
   -0.5433   -2.0743    0.1999 H   0  0  0  0  0  0  0  0  0  0  0  0
  1  2  1  0
  2  3  1  0
  3  4  2  0
  4  5  1  0
  5  6  2  0
  6  7  1  0
  7  8  2  0
  7  9  1  0
  9 10  1  0
 10 11  1  0
 11 12  1  0
 12 13  2  0
 13 14  1  0
 14 15  1  0
 15 16  2  0
 15 17  1  0
 17 18  1  0
 14 19  2  0
 19 20  1  0
 20 21  2  0
 21 22  1  0
  6  2  1  0
 22  9  1  0
 21 12  1  0
  1 23  1  0
  1 24  1  0
  1 25  1  0
  3 26  1  0
  4 27  1  0
  5 28  1  0
 10 29  1  0
 10 30  1  0
 11 31  1  0
 11 32  1  0
 13 33  1  0
 17 34  1  0
 18 35  1  0
 19 36  1  0
 20 37  1  0
 22 38  1  0
 22 39  1  0
M  END
$$$$
