@<TRIPOS>MOLECULE
*****
 39 41 0 0 0
SMALL
GASTEIGER

@<TRIPOS>ATOM
      1 C          -4.5543    1.8809    0.1779 C.3     1  UNL1        0.0120
      2 N          -4.1793    0.6517    0.8573 N.ar    1  UNL1       -0.3461
      3 C          -4.6983    0.2862    2.0474 C.ar    1  UNL1        0.0050
      4 C          -4.1447   -0.9024    2.4062 C.ar    1  UNL1       -0.0435
      5 C          -3.2626   -1.2513    1.3840 C.ar    1  UNL1       -0.0317
      6 C          -3.2989   -0.2696    0.4284 C.ar    1  UNL1        0.1043
      7 C          -2.5588   -0.1656   -0.8420 C.2     1  UNL1        0.2634
      8 O          -3.1707    0.2346   -1.8609 O.2     1  UNL1       -0.2684
      9 N          -1.1891   -0.4988   -0.9618 N.am    1  UNL1       -0.2917
     10 C          -0.5495   -0.3645   -2.2534 C.3     1  UNL1        0.0194
     11 C           0.7418   -1.1671   -2.3116 C.3     1  UNL1       -0.0115
     12 C           1.5543   -0.7085   -1.1434 C.ar    1  UNL1       -0.0405
     13 C           2.8835   -0.3821   -1.2444 C.ar    1  UNL1       -0.0460
     14 C           3.6503    0.0515   -0.1485 C.ar    1  UNL1        0.0390
     15 C           5.0517    0.3730   -0.3768 C.2     1  UNL1        0.2665
     16 O           5.5669    0.2644   -1.5141 O.2     1  UNL1       -0.2681
     17 N           5.8785    0.8195    0.6786 N.am    1  UNL1       -0.1935
     18 O           7.2045    1.1202    0.4356 O.3     1  UNL1       -0.2949
     19 C           3.0089    0.1398    1.0599 C.ar    1  UNL1       -0.0492
     20 C           1.6600   -0.1834    1.2028 C.ar    1  UNL1       -0.0561
     21 C           0.9445   -0.6071    0.0891 C.ar    1  UNL1       -0.0268
     22 C          -0.4823   -0.9576    0.1974 C.3     1  UNL1        0.0403
     23 H          -5.2119    2.5072    0.7827 H       1  UNL1        0.0456
     24 H          -3.5964    2.3947   -0.0946 H       1  UNL1        0.0456
     25 H          -5.0955    1.6227   -0.7579 H       1  UNL1        0.0456
     26 H          -5.4356    0.8182    2.6537 H       1  UNL1        0.0809
     27 H          -4.3108   -1.4948    3.2744 H       1  UNL1        0.0633
     28 H          -2.6532   -2.1338    1.3412 H       1  UNL1        0.0640
     29 H          -1.2059   -0.5508   -3.1086 H       1  UNL1        0.0468
     30 H          -0.2254    0.7145   -2.3097 H       1  UNL1        0.0468
     31 H           1.2450   -0.9111   -3.2552 H       1  UNL1        0.0328
     32 H           0.5431   -2.2499   -2.2726 H       1  UNL1        0.0328
     33 H           3.3530   -0.4649   -2.2173 H       1  UNL1        0.0628
     34 H           5.4896    0.9203    1.6348 H       1  UNL1        0.1825
     35 H           7.6975    0.2617    0.5722 H       1  UNL1        0.2414
     36 H           3.5773    0.4712    1.9238 H       1  UNL1        0.0625
     37 H           1.1887   -0.0975    2.1816 H       1  UNL1        0.0621
     38 H          -0.8727   -0.5403    1.1439 H       1  UNL1        0.0514
     39 H          -0.5433   -2.0743    0.1999 H       1  UNL1        0.0514
@<TRIPOS>BOND
     1     1     2    1
     2     2     3   ar
     3     3     4   ar
     4     4     5   ar
     5     5     6   ar
     6     6     7    1
     7     7     8    2
     8     7     9   am
     9     9    10    1
    10    10    11    1
    11    11    12    1
    12    12    13   ar
    13    13    14   ar
    14    14    15    1
    15    15    16    2
    16    15    17   am
    17    17    18    1
    18    14    19   ar
    19    19    20   ar
    20    20    21   ar
    21    21    22    1
    22     6     2   ar
    23    22     9    1
    24    21    12   ar
    25     1    23    1
    26     1    24    1
    27     1    25    1
    28     3    26    1
    29     4    27    1
    30     5    28    1
    31    10    29    1
    32    10    30    1
    33    11    31    1
    34    11    32    1
    35    13    33    1
    36    17    34    1
    37    18    35    1
    38    19    36    1
    39    20    37    1
    40    22    38    1
    41    22    39    1
