@<TRIPOS>MOLECULE
*****
 73 78 0 0 0
SMALL
GASTEIGER

@<TRIPOS>ATOM
      1 C           4.2725    3.0994   -1.7643 C.3     1  UNL1       -0.0392
      2 C           3.3623    1.9664   -1.4577 C.ar    1  UNL1       -0.0388
      3 C           2.0556    2.2429   -1.1018 C.ar    1  UNL1       -0.0182
      4 C           1.1552    1.2445   -0.8078 C.ar    1  UNL1        0.1253
      5 N          -0.1903    1.5565   -0.4320 N.pl3   1  UNL1       -0.2684
      6 C          -1.1183    0.5170   -0.1431 C.ar    1  UNL1        0.2224
      7 N          -0.7493   -0.7751   -0.2662 N.ar    1  UNL1       -0.2219
      8 C          -1.6007   -1.7820    0.0022 C.ar    1  UNL1        0.0419
      9 C          -2.9054   -1.5232    0.4205 C.ar    1  UNL1        0.0378
     10 C          -3.9904   -2.2894    0.7680 C.ar    1  UNL1       -0.0209
     11 C          -5.0300   -1.4418    1.1073 C.ar    1  UNL1        0.1070
     12 C          -6.3818   -1.8591    1.5458 C.2     1  UNL1        0.2627
     13 O          -6.7036   -1.7125    2.7504 O.2     1  UNL1       -0.2684
     14 N          -7.2952   -2.4096    0.6424 N.am    1  UNL1       -0.3024
     15 C          -8.6150   -2.8190    1.0680 C.3     1  UNL1        0.0032
     16 C          -6.9256   -2.5786   -0.7456 C.3     1  UNL1        0.0032
     17 N          -4.5605   -0.1998    0.9595 N.ar    1  UNL1       -0.3180
     18 C          -5.2700    1.0403    1.1964 C.3     1  UNL1        0.0366
     19 C          -6.7243    0.9403    0.8190 C.3     1  UNL1       -0.0320
     20 C          -7.1070    2.3231    0.3414 C.3     1  UNL1       -0.0511
     21 C          -5.8613    3.0836    0.0581 C.3     1  UNL1       -0.0511
     22 C          -4.7267    2.1518    0.3070 C.3     1  UNL1       -0.0320
     23 C          -3.2634   -0.2042    0.5404 C.ar    1  UNL1        0.1466
     24 N          -2.3752    0.7647    0.2599 N.ar    1  UNL1       -0.1962
     25 N           1.5983   -0.0323   -0.8798 N.ar    1  UNL1       -0.2397
     26 C           2.8770   -0.3097   -1.2277 C.ar    1  UNL1        0.0369
     27 C           3.8087    0.6551   -1.5288 C.ar    1  UNL1        0.0168
     28 C           5.1946    0.3062   -1.9035 C.3     1  UNL1        0.1365
     29 O           5.2479   -0.7637   -2.8239 O.3     1  UNL1       -0.3729
     30 N           6.0692    0.0282   -0.8394 N.3     1  UNL1       -0.2709
     31 C           5.7700   -1.0129    0.0549 C.3     1  UNL1        0.0170
     32 C           6.7313   -1.1253    1.2157 C.3     1  UNL1        0.0208
     33 C           7.9226   -1.9261    0.7581 C.3     1  UNL1       -0.0349
     34 C           8.9843   -0.8684    0.4485 C.3     1  UNL1       -0.0349
     35 C           8.1631    0.4003    0.3806 C.3     1  UNL1        0.0208
     36 C           7.4104    0.4545   -0.9263 C.3     1  UNL1        0.0170
     37 N           7.2441    0.2147    1.5023 N.3     1  UNL1       -0.3081
     38 H           3.9326    3.9696   -1.1353 H       1  UNL1        0.0278
     39 H           4.0719    3.3668   -2.8316 H       1  UNL1        0.0278
     40 H           5.3194    2.9163   -1.5334 H       1  UNL1        0.0278
     41 H           1.6854    3.2682   -1.0421 H       1  UNL1        0.0655
     42 H          -0.4445    2.5660   -0.3840 H       1  UNL1        0.1564
     43 H          -1.3264   -2.8342   -0.0885 H       1  UNL1        0.0838
     44 H          -4.0341   -3.3766    0.7779 H       1  UNL1        0.0647
     45 H          -8.5918   -3.9256    1.1557 H       1  UNL1        0.0428
     46 H          -9.4076   -2.4577    0.3752 H       1  UNL1        0.0428
     47 H          -8.8607   -2.4255    2.0565 H       1  UNL1        0.0428
     48 H          -6.4968   -3.6000   -0.8576 H       1  UNL1        0.0428
     49 H          -6.2513   -1.7828   -1.1193 H       1  UNL1        0.0428
     50 H          -7.8375   -2.5201   -1.4066 H       1  UNL1        0.0428
     51 H          -5.1720    1.2938    2.2634 H       1  UNL1        0.0528
     52 H          -7.3806    0.7054    1.6782 H       1  UNL1        0.0285
     53 H          -6.8843    0.2619   -0.0462 H       1  UNL1        0.0285
     54 H          -7.7023    2.8506    1.1330 H       1  UNL1        0.0266
     55 H          -7.7706    2.2692   -0.5504 H       1  UNL1        0.0266
     56 H          -5.7926    3.9691    0.7436 H       1  UNL1        0.0266
     57 H          -5.8787    3.4712   -0.9960 H       1  UNL1        0.0266
     58 H          -3.9364    2.6744    0.8787 H       1  UNL1        0.0285
     59 H          -4.3350    1.7085   -0.6323 H       1  UNL1        0.0285
     60 H           3.1651   -1.3527   -1.2696 H       1  UNL1        0.0834
     61 H           5.6641    1.1582   -2.4944 H       1  UNL1        0.0820
     62 H           5.0341   -1.5770   -2.3049 H       1  UNL1        0.2118
     63 H           4.7312   -0.8841    0.4615 H       1  UNL1        0.0443
     64 H           5.7724   -1.9917   -0.4635 H       1  UNL1        0.0443
     65 H           6.2535   -1.5447    2.1112 H       1  UNL1        0.0473
     66 H           7.7303   -2.4583   -0.1943 H       1  UNL1        0.0281
     67 H           8.2879   -2.6370    1.5290 H       1  UNL1        0.0281
     68 H           9.5256   -1.1019   -0.4788 H       1  UNL1        0.0281
     69 H           9.7197   -0.8313    1.2796 H       1  UNL1        0.0281
     70 H           8.8338    1.2493    0.5438 H       1  UNL1        0.0473
     71 H           7.9630   -0.1907   -1.6490 H       1  UNL1        0.0443
     72 H           7.4535    1.5221   -1.2741 H       1  UNL1        0.0443
     73 H           6.4864    0.9145    1.4291 H       1  UNL1        0.1225
@<TRIPOS>BOND
     1     1     2    1
     2     2     3   ar
     3     3     4   ar
     4     4     5    1
     5     5     6    1
     6     6     7   ar
     7     7     8   ar
     8     8     9   ar
     9     9    10   ar
    10    10    11   ar
    11    11    12    1
    12    12    13    2
    13    12    14   am
    14    14    15    1
    15    14    16    1
    16    11    17   ar
    17    17    18    1
    18    18    19    1
    19    19    20    1
    20    20    21    1
    21    21    22    1
    22    17    23   ar
    23    23    24   ar
    24     4    25   ar
    25    25    26   ar
    26    26    27   ar
    27    27    28    1
    28    28    29    1
    29    28    30    1
    30    30    31    1
    31    31    32    1
    32    32    33    1
    33    33    34    1
    34    34    35    1
    35    35    36    1
    36    35    37    1
    37    27     2   ar
    38    36    30    1
    39    24     6   ar
    40    37    32    1
    41    23     9   ar
    42    22    18    1
    43     1    38    1
    44     1    39    1
    45     1    40    1
    46     3    41    1
    47     5    42    1
    48     8    43    1
    49    10    44    1
    50    15    45    1
    51    15    46    1
    52    15    47    1
    53    16    48    1
    54    16    49    1
    55    16    50    1
    56    18    51    1
    57    19    52    1
    58    19    53    1
    59    20    54    1
    60    20    55    1
    61    21    56    1
    62    21    57    1
    63    22    58    1
    64    22    59    1
    65    26    60    1
    66    28    61    1
    67    29    62    1
    68    31    63    1
    69    31    64    1
    70    32    65    1
    71    33    66    1
    72    33    67    1
    73    34    68    1
    74    34    69    1
    75    35    70    1
    76    36    71    1
    77    36    72    1
    78    37    73    1
