@<TRIPOS>MOLECULE
*****
 41 44 0 0 0
SMALL
GASTEIGER

@<TRIPOS>ATOM
      1 C           5.5278    0.1410    0.0631 C.3     1  UNL1       -0.0469
      2 C           5.0950    1.4375    0.6668 C.3     1  UNL1        0.0168
      3 C           4.6143    1.3059    2.0889 C.3     1  UNL1       -0.0469
      4 N           4.0573    2.0149   -0.1642 N.pl3   1  UNL1       -0.3211
      5 C           2.9603    1.1628   -0.2463 C.ar    1  UNL1        0.1594
      6 N           2.5998    0.0256    0.1948 N.ar    1  UNL1       -0.2249
      7 C           1.4119   -0.4585   -0.1338 C.ar    1  UNL1        0.0803
      8 C           0.4857    0.2625   -0.9900 C.ar    1  UNL1        0.0414
      9 S           1.4900    1.7484   -1.3000 S.2     1  UNL1       -0.0524
     10 C          -0.7370   -0.2185   -1.3371 C.ar    1  UNL1       -0.0351
     11 C          -1.1553   -1.4479   -0.8742 C.ar    1  UNL1        0.0206
     12 C          -0.2814   -2.1396   -0.0603 C.ar    1  UNL1       -0.0489
     13 C           0.9565   -1.6833    0.3083 C.ar    1  UNL1       -0.0345
     14 C          -2.4806   -1.8558   -1.3134 C.ar    1  UNL1        0.1628
     15 C          -3.7456   -1.3383   -1.1276 C.ar    1  UNL1        0.1197
     16 N          -4.5821   -2.1771   -1.7928 N.ar    1  UNL1       -0.2154
     17 C          -3.8435   -3.1571   -2.3538 C.ar    1  UNL1        0.1831
     18 O          -2.5840   -2.9401   -2.0501 O.2     1  UNL1       -0.4418
     19 C          -3.9726   -0.1262   -0.3472 C.ar    1  UNL1        0.0392
     20 C          -3.6009   -0.2761    0.9753 C.ar    1  UNL1       -0.0497
     21 C          -3.7527    0.7908    1.8599 C.ar    1  UNL1       -0.0610
     22 C          -4.2744    1.9617    1.3631 C.ar    1  UNL1       -0.0590
     23 C          -4.6546    2.1361    0.0408 C.ar    1  UNL1       -0.0258
     24 C          -4.4945    1.0634   -0.8175 C.ar    1  UNL1        0.1327
     25 F          -4.8182    1.0702   -2.1437 F       1  UNL1       -0.2048
     26 H           5.7944   -0.6462    0.8180 H       1  UNL1        0.0247
     27 H           6.4683    0.3118   -0.5096 H       1  UNL1        0.0247
     28 H           4.8004   -0.3131   -0.6384 H       1  UNL1        0.0247
     29 H           5.9745    2.1395    0.7161 H       1  UNL1        0.0492
     30 H           4.2469    2.3002    2.4132 H       1  UNL1        0.0247
     31 H           5.4943    1.0804    2.7494 H       1  UNL1        0.0247
     32 H           3.8546    0.5421    2.2497 H       1  UNL1        0.0247
     33 H           4.1336    2.9410   -0.6306 H       1  UNL1        0.1482
     34 H          -1.2329    0.4854   -1.9695 H       1  UNL1        0.0636
     35 H          -0.6921   -3.1091    0.2648 H       1  UNL1        0.0625
     36 H           1.4871   -2.3813    0.9546 H       1  UNL1        0.0639
     37 H          -4.4366   -3.8715   -2.9055 H       1  UNL1        0.1255
     38 H          -3.1840   -1.1812    1.4137 H       1  UNL1        0.0625
     39 H          -3.4696    0.6973    2.8963 H       1  UNL1        0.0618
     40 H          -4.3963    2.7933    2.0376 H       1  UNL1        0.0618
     41 H          -5.0635    3.0400   -0.3689 H       1  UNL1        0.0646
@<TRIPOS>BOND
     1     1     2    1
     2     2     3    1
     3     2     4    1
     4     4     5    1
     5     5     6   ar
     6     6     7   ar
     7     7     8   ar
     8     8     9   ar
     9     8    10   ar
    10    10    11   ar
    11    11    12   ar
    12    12    13   ar
    13    11    14    1
    14    14    15   ar
    15    15    16   ar
    16    16    17   ar
    17    17    18   ar
    18    15    19    1
    19    19    20   ar
    20    20    21   ar
    21    21    22   ar
    22    22    23   ar
    23    23    24   ar
    24    24    25    1
    25     9     5   ar
    26    18    14   ar
    27    24    19   ar
    28    13     7   ar
    29     1    26    1
    30     1    27    1
    31     1    28    1
    32     2    29    1
    33     3    30    1
    34     3    31    1
    35     3    32    1
    36     4    33    1
    37    10    34    1
    38    12    35    1
    39    13    36    1
    40    17    37    1
    41    20    38    1
    42    21    39    1
    43    22    40    1
    44    23    41    1
