
     RDKit          3D

 88 90  0  0  0  0  0  0  0  0999 V2000
    3.8734    1.8824   -0.2494 C   0  0  1  0  0  0  0  0  0  0  0  0
    4.5633    2.6642    0.6498 O   0  0  0  0  0  0  0  0  0  0  0  0
    4.5955    0.6309   -0.6240 C   0  0  0  0  0  0  0  0  0  0  0  0
    4.7748   -0.5811   -1.2887 O   0  0  0  0  0  0  0  0  0  0  0  0
    5.7073    0.1014   -0.3141 N   0  0  0  0  0  0  0  0  0  0  0  0
    6.7063    0.5898    0.5763 C   0  0  0  0  0  0  0  0  0  0  0  0
    7.8450    1.2894   -0.1332 C   0  0  0  0  0  0  0  0  0  0  0  0
    8.5536    0.3979   -1.0965 C   0  0  0  0  0  0  0  0  0  0  0  0
    8.1731   -0.2922   -2.2133 O   0  0  0  0  0  0  0  0  0  0  0  0
    9.7678    0.0289   -1.1274 N   0  0  0  0  0  0  0  0  0  0  0  0
   10.7945    0.3994   -0.1991 C   0  0  0  0  0  0  0  0  0  0  0  0
   11.0260   -0.8226    0.6930 C   0  0  0  0  0  0  0  0  0  0  0  0
   11.4567   -1.9456   -0.2403 C   0  0  0  0  0  0  0  0  0  0  0  0
   11.7104   -3.1825    0.5063 N   0  0  0  0  0  0  0  0  0  0  0  0
   12.1061   -4.2577   -0.2536 O   0  0  0  0  0  0  0  0  0  0  0  0
   11.6299   -3.4397    1.7425 O   0  0  0  0  0  0  0  0  0  0  0  0
    2.4656    1.5627    0.2400 C   0  0  0  0  0  0  0  0  0  0  0  0
    2.5124    0.8155    1.5575 C   0  0  0  0  0  0  0  0  0  0  0  0
    1.7349    2.8597    0.4690 C   0  0  0  0  0  0  0  0  0  0  0  0
    1.7423    0.7230   -0.7696 C   0  0  0  0  0  0  0  0  0  0  0  0
    0.4569    0.3759   -0.4243 O   0  0  0  0  0  0  0  0  0  0  0  0
   -0.2605   -0.6413   -1.5463 P   0  0  0  0  0  0  0  0  0  0  0  0
    0.2352   -0.2465   -3.1283 O   0  0  0  0  0  0  0  0  0  0  0  0
    0.1502   -2.0565   -1.1890 O   0  0  0  0  0  0  0  0  0  0  0  0
   -1.9334   -0.4541   -1.4831 O   0  0  0  0  0  0  0  0  0  0  0  0
   -2.4264    1.1263   -1.2479 P   0  0  0  0  0  0  0  0  0  0  0  0
   -1.0961    2.0930   -0.9243 O   0  0  0  0  0  0  0  0  0  0  0  0
   -3.0636    1.6612   -2.5255 O   0  0  0  0  0  0  0  0  0  0  0  0
   -3.6191    1.2226   -0.0531 O   0  0  0  0  0  0  0  0  0  0  0  0
   -4.1645   -0.0783    0.0434 C   0  0  0  0  0  0  0  0  0  0  0  0
   -5.2052   -0.0233    1.1331 C   0  0  1  0  0  0  0  0  0  0  0  0
   -6.2123    0.8956    0.8362 O   0  0  0  0  0  0  0  0  0  0  0  0
   -7.2882    0.5931    1.6363 C   0  0  1  0  0  0  0  0  0  0  0  0
   -8.5621    0.8149    0.9467 N   0  0  0  0  0  0  0  0  0  0  0  0
   -9.6955    1.3688    1.4150 C   0  0  0  0  0  0  0  0  0  0  0  0
  -10.6442    1.3920    0.4689 N   0  0  0  0  0  0  0  0  0  0  0  0
  -10.1314    0.8393   -0.6600 C   0  0  0  0  0  0  0  0  0  0  0  0
  -10.6723    0.6152   -1.9210 C   0  0  0  0  0  0  0  0  0  0  0  0
  -12.0093    0.9829   -2.2360 N   0  0  0  0  0  0  0  0  0  0  0  0
   -9.8214    0.0331   -2.7778 N   0  0  0  0  0  0  0  0  0  0  0  0
   -8.5634   -0.3195   -2.5009 C   0  0  0  0  0  0  0  0  0  0  0  0
   -8.0581   -0.0898   -1.2612 N   0  0  0  0  0  0  0  0  0  0  0  0
   -8.8182    0.4850   -0.3293 C   0  0  0  0  0  0  0  0  0  0  0  0
   -7.1785   -0.8339    2.0689 C   0  0  2  0  0  0  0  0  0  0  0  0
   -6.7559   -0.8551    3.3974 O   0  0  0  0  0  0  0  0  0  0  0  0
   -5.9962   -1.3120    1.2218 C   0  0  2  0  0  0  0  0  0  0  0  0
   -5.2975   -2.3389    1.8464 O   0  0  0  0  0  0  0  0  0  0  0  0
   -5.3145   -3.6348    0.7293 P   0  0  0  0  0  0  0  0  0  0  0  0
   -6.9120   -3.9688    0.2750 O   0  0  0  0  0  0  0  0  0  0  0  0
   -4.6663   -5.0337    1.4191 O   0  0  0  0  0  0  0  0  0  0  0  0
   -4.5490   -3.2659   -0.5226 O   0  0  0  0  0  0  0  0  0  0  0  0
    3.7463    2.4973   -1.1741 H   0  0  0  0  0  0  0  0  0  0  0  0
    4.5886    3.6205    0.3964 H   0  0  0  0  0  0  0  0  0  0  0  0
    4.3127   -0.8134   -2.1490 H   0  0  0  0  0  0  0  0  0  0  0  0
    7.1506   -0.2852    1.1098 H   0  0  0  0  0  0  0  0  0  0  0  0
    6.3353    1.2836    1.3448 H   0  0  0  0  0  0  0  0  0  0  0  0
    7.5717    2.2285   -0.6106 H   0  0  0  0  0  0  0  0  0  0  0  0
    8.5897    1.5240    0.6512 H   0  0  0  0  0  0  0  0  0  0  0  0
    7.9856   -1.2820   -2.2504 H   0  0  0  0  0  0  0  0  0  0  0  0
   11.7517    0.5380   -0.7416 H   0  0  0  0  0  0  0  0  0  0  0  0
   10.5960    1.3028    0.3928 H   0  0  0  0  0  0  0  0  0  0  0  0
   10.0891   -1.0542    1.2115 H   0  0  0  0  0  0  0  0  0  0  0  0
   11.8729   -0.5715    1.3566 H   0  0  0  0  0  0  0  0  0  0  0  0
   12.3379   -1.6221   -0.8117 H   0  0  0  0  0  0  0  0  0  0  0  0
   10.6294   -2.1912   -0.9439 H   0  0  0  0  0  0  0  0  0  0  0  0
    3.2709    1.2778    2.2310 H   0  0  0  0  0  0  0  0  0  0  0  0
    2.7695   -0.2307    1.3235 H   0  0  0  0  0  0  0  0  0  0  0  0
    1.5069    0.8464    2.0100 H   0  0  0  0  0  0  0  0  0  0  0  0
    0.7802    2.6957    1.0160 H   0  0  0  0  0  0  0  0  0  0  0  0
    1.4318    3.3433   -0.5053 H   0  0  0  0  0  0  0  0  0  0  0  0
    2.3827    3.6065    0.9896 H   0  0  0  0  0  0  0  0  0  0  0  0
    2.3328   -0.2153   -0.9176 H   0  0  0  0  0  0  0  0  0  0  0  0
    1.6884    1.2633   -1.7392 H   0  0  0  0  0  0  0  0  0  0  0  0
   -0.1960   -0.8132   -3.7860 H   0  0  0  0  0  0  0  0  0  0  0  0
   -1.3466    2.9498   -0.5105 H   0  0  0  0  0  0  0  0  0  0  0  0
   -3.3487   -0.7442    0.4012 H   0  0  0  0  0  0  0  0  0  0  0  0
   -4.5697   -0.3725   -0.9239 H   0  0  0  0  0  0  0  0  0  0  0  0
   -4.7881    0.2258    2.1091 H   0  0  0  0  0  0  0  0  0  0  0  0
   -7.2604    1.3140    2.4982 H   0  0  0  0  0  0  0  0  0  0  0  0
   -9.7224    1.7185    2.4498 H   0  0  0  0  0  0  0  0  0  0  0  0
  -12.7733    0.8354   -1.5178 H   0  0  0  0  0  0  0  0  0  0  0  0
  -12.2153    1.3932   -3.1719 H   0  0  0  0  0  0  0  0  0  0  0  0
   -7.9342   -0.7924   -3.2613 H   0  0  0  0  0  0  0  0  0  0  0  0
   -8.0786   -1.4469    1.9020 H   0  0  0  0  0  0  0  0  0  0  0  0
   -6.5176    0.0600    3.7331 H   0  0  0  0  0  0  0  0  0  0  0  0
   -6.3134   -1.6799    0.2435 H   0  0  0  0  0  0  0  0  0  0  0  0
   -7.0539   -3.8577   -0.6984 H   0  0  0  0  0  0  0  0  0  0  0  0
   -5.2682   -5.3220    2.1303 H   0  0  0  0  0  0  0  0  0  0  0  0
  1  2  1  0
  1  3  1  0
  3  4  1  0
  3  5  2  3
  5  6  1  0
  6  7  1  0
  7  8  1  0
  8  9  1  0
  8 10  2  3
 10 11  1  0
 11 12  1  0
 12 13  1  0
 13 14  1  0
 14 15  1  0
 14 16  2  0
  1 17  1  0
 17 18  1  0
 17 19  1  0
 17 20  1  0
 20 21  1  0
 21 22  1  0
 22 23  1  0
 22 24  2  0
 22 25  1  0
 25 26  1  0
 26 27  1  0
 26 28  2  0
 26 29  1  0
 29 30  1  0
 30 31  1  0
 31 32  1  0
 32 33  1  0
 33 34  1  0
 34 35  1  0
 35 36  2  0
 36 37  1  0
 37 38  2  0
 38 39  1  0
 38 40  1  0
 40 41  2  0
 41 42  1  0
 42 43  2  0
 33 44  1  0
 44 45  1  0
 44 46  1  0
 46 47  1  0
 47 48  1  0
 48 49  1  0
 48 50  1  0
 48 51  2  0
 46 31  1  0
 43 34  1  0
 43 37  1  0
  1 52  1  6
  2 53  1  0
  4 54  1  0
  6 55  1  0
  6 56  1  0
  7 57  1  0
  7 58  1  0
  9 59  1  0
 11 60  1  0
 11 61  1  0
 12 62  1  0
 12 63  1  0
 13 64  1  0
 13 65  1  0
 18 66  1  0
 18 67  1  0
 18 68  1  0
 19 69  1  0
 19 70  1  0
 19 71  1  0
 20 72  1  0
 20 73  1  0
 23 74  1  0
 27 75  1  0
 30 76  1  0
 30 77  1  0
 31 78  1  1
 33 79  1  1
 35 80  1  0
 39 81  1  0
 39 82  1  0
 41 83  1  0
 44 84  1  1
 45 85  1  0
 46 86  1  6
 49 87  1  0
 50 88  1  0
M  CHG  2  14   1  15  -1
M  END
$$$$
