@<TRIPOS>MOLECULE
*****
 44 45 0 0 0
SMALL
GASTEIGER

@<TRIPOS>ATOM
      1 C          -5.3389   -0.2121    0.7912 C.3     1  UNL1       -0.0453
      2 C          -5.4808   -0.9337   -0.5131 C.3     1  UNL1        0.0681
      3 S          -4.1376   -2.1125   -0.7014 S.O2    1  UNL1       -0.0033
      4 O          -4.1493   -3.0429    0.4796 O.2     1  UNL1       -0.1694
      5 O          -4.3258   -2.8534   -1.9806 O.2     1  UNL1       -0.1694
      6 C          -2.6088   -1.2424   -0.6690 C.ar    1  UNL1        0.0884
      7 C          -2.0495   -0.7637   -1.8364 C.ar    1  UNL1       -0.0363
      8 C          -0.8528   -0.0818   -1.8172 C.ar    1  UNL1       -0.0519
      9 C          -0.1771    0.1459   -0.6484 C.ar    1  UNL1       -0.0114
     10 C           1.0944    0.8653   -0.5901 C.ar    1  UNL1        0.0246
     11 C           1.1685    2.2303   -0.4245 C.ar    1  UNL1       -0.0389
     12 C           2.3700    2.9186   -0.3684 C.ar    1  UNL1        0.0556
     13 C           2.4084    4.4043   -0.1871 C.3     1  UNL1        0.4174
     14 F           3.3809    4.6976    0.7762 F       1  UNL1       -0.1659
     15 F           1.2093    4.8826    0.2696 F       1  UNL1       -0.1659
     16 F           2.7283    5.0539   -1.3578 F       1  UNL1       -0.1659
     17 C           3.5483    2.2095   -0.4832 C.ar    1  UNL1       -0.0466
     18 C           3.5176    0.8379   -0.6508 C.ar    1  UNL1       -0.0188
     19 C           2.3191    0.1907   -0.7015 C.ar    1  UNL1        0.1290
     20 O           2.2436   -1.1680   -0.8676 O.3     1  UNL1       -0.4802
     21 C           3.3310   -2.0492   -0.9900 C.3     1  UNL1        0.1857
     22 C           4.2069   -2.0720    0.2061 C.2     1  UNL1        0.3427
     23 O           3.9422   -1.3965    1.2301 O.2     1  UNL1       -0.2472
     24 O           5.3608   -2.8417    0.2491 O.3     1  UNL1       -0.4783
     25 C          -0.7377   -0.3342    0.5243 C.ar    1  UNL1       -0.0408
     26 C          -0.0862   -0.1411    1.8464 C.3     1  UNL1       -0.0391
     27 C          -1.9324   -1.0158    0.5111 C.ar    1  UNL1       -0.0334
     28 H          -5.0682   -0.9076    1.6383 H       1  UNL1        0.0245
     29 H          -4.4720    0.4902    0.7000 H       1  UNL1        0.0245
     30 H          -6.2296    0.3666    1.0363 H       1  UNL1        0.0245
     31 H          -5.3668   -0.1964   -1.3313 H       1  UNL1        0.0501
     32 H          -6.4483   -1.4373   -0.6544 H       1  UNL1        0.0501
     33 H          -2.5659   -0.9290   -2.7939 H       1  UNL1        0.0637
     34 H          -0.4333    0.2848   -2.7488 H       1  UNL1        0.0624
     35 H           0.2163    2.7678   -0.3363 H       1  UNL1        0.0630
     36 H           4.4979    2.7476   -0.4396 H       1  UNL1        0.0624
     37 H           4.4846    0.3529   -0.7426 H       1  UNL1        0.0654
     38 H           3.0046   -3.0768   -1.2113 H       1  UNL1        0.0815
     39 H           3.9741   -1.7431   -1.8581 H       1  UNL1        0.0815
     40 H           5.7213   -3.2502    1.1205 H       1  UNL1        0.2952
     41 H          -0.7916    0.4802    2.4551 H       1  UNL1        0.0278
     42 H           0.8795    0.3943    1.7733 H       1  UNL1        0.0278
     43 H           0.0115   -1.1283    2.3305 H       1  UNL1        0.0278
     44 H          -2.3665   -1.3912    1.4460 H       1  UNL1        0.0639
@<TRIPOS>BOND
     1     1     2    1
     2     2     3    1
     3     3     4    2
     4     3     5    2
     5     3     6    1
     6     6     7   ar
     7     7     8   ar
     8     8     9   ar
     9     9    10    1
    10    10    11   ar
    11    11    12   ar
    12    12    13    1
    13    13    14    1
    14    13    15    1
    15    13    16    1
    16    12    17   ar
    17    17    18   ar
    18    18    19   ar
    19    19    20    1
    20    20    21    1
    21    21    22    1
    22    22    23    2
    23    22    24    1
    24     9    25   ar
    25    25    26    1
    26    25    27   ar
    27    27     6   ar
    28    19    10   ar
    29     1    28    1
    30     1    29    1
    31     1    30    1
    32     2    31    1
    33     2    32    1
    34     7    33    1
    35     8    34    1
    36    11    35    1
    37    17    36    1
    38    18    37    1
    39    21    38    1
    40    21    39    1
    41    24    40    1
    42    26    41    1
    43    26    42    1
    44    26    43    1
    45    27    44    1
