@<TRIPOS>MOLECULE
*****
 51 54 0 0 0
SMALL
GASTEIGER

@<TRIPOS>ATOM
      1 C          -3.8387    0.3590    0.4752 C.3     1  UNL1        0.0609
      2 O          -4.9518   -0.1546   -0.2222 O.3     1  UNL1       -0.3912
      3 C          -3.7852   -0.3014    1.8529 C.3     1  UNL1       -0.0261
      4 C          -2.3462   -0.7695    2.0281 C.3     1  UNL1       -0.0470
      5 C          -1.6236    0.0589    1.0447 C.3     1  UNL1       -0.0301
      6 C          -0.3013   -0.4465    0.5697 C.3     1  UNL1       -0.0343
      7 C           0.6511   -0.8697    1.6293 C.3     1  UNL1       -0.0494
      8 C           1.8596   -1.4546    0.9686 C.3     1  UNL1       -0.0491
      9 C           2.1830   -0.8573   -0.3626 C.3     1  UNL1       -0.0287
     10 C           3.6420   -1.0139   -0.6049 C.3     1  UNL1        0.0092
     11 C           4.4292    0.2277   -0.4516 C.2     1  UNL1        0.1337
     12 O           5.6462    0.1069   -0.4762 O.2     1  UNL1       -0.2974
     13 C           3.8916    1.5916   -0.2726 C.3     1  UNL1        0.0063
     14 C           2.4786    1.5645    0.2601 C.3     1  UNL1       -0.0404
     15 C           1.7087    0.5595   -0.5583 C.3     1  UNL1       -0.0254
     16 C           1.9208    0.9102   -2.0173 C.3     1  UNL1       -0.0590
     17 C           0.2577    0.7033   -0.2646 C.3     1  UNL1       -0.0322
     18 C          -0.6090    0.7574   -1.5076 C.3     1  UNL1       -0.0489
     19 C          -2.0290    1.0322   -1.1289 C.3     1  UNL1       -0.0447
     20 C          -2.5465    0.0038   -0.1699 C.3     1  UNL1       -0.0030
     21 C          -2.6535   -1.3752   -0.7477 C.3     1  UNL1       -0.0569
     22 H          -3.8891    1.4650    0.5600 H       1  UNL1        0.0599
     23 H          -5.5669   -0.6424    0.3768 H       1  UNL1        0.2098
     24 H          -3.9446    0.5073    2.6095 H       1  UNL1        0.0290
     25 H          -4.5117   -1.1184    1.9653 H       1  UNL1        0.0290
     26 H          -1.9870   -0.5234    3.0530 H       1  UNL1        0.0269
     27 H          -2.2291   -1.8490    1.8999 H       1  UNL1        0.0269
     28 H          -1.5799    1.1071    1.3593 H       1  UNL1        0.0310
     29 H          -0.3912   -1.2935   -0.1502 H       1  UNL1        0.0306
     30 H           0.1257   -1.6590    2.2292 H       1  UNL1        0.0268
     31 H           0.8848   -0.0768    2.3680 H       1  UNL1        0.0268
     32 H           2.7341   -1.4732    1.6652 H       1  UNL1        0.0268
     33 H           1.6338   -2.5479    0.8067 H       1  UNL1        0.0268
     34 H           1.6639   -1.4436   -1.1602 H       1  UNL1        0.0310
     35 H           4.1001   -1.7568    0.1053 H       1  UNL1        0.0344
     36 H           3.8857   -1.4046   -1.6284 H       1  UNL1        0.0344
     37 H           3.9562    2.1669   -1.2391 H       1  UNL1        0.0342
     38 H           4.4980    2.1449    0.4685 H       1  UNL1        0.0342
     39 H           2.0164    2.5489    0.0590 H       1  UNL1        0.0275
     40 H           2.5140    1.3610    1.3333 H       1  UNL1        0.0275
     41 H           2.9554    0.7043   -2.3704 H       1  UNL1        0.0235
     42 H           1.2667    0.3266   -2.6962 H       1  UNL1        0.0235
     43 H           1.7390    2.0162   -2.1505 H       1  UNL1        0.0235
     44 H           0.0599    1.6759    0.2737 H       1  UNL1        0.0309
     45 H          -0.5804   -0.2139   -2.0194 H       1  UNL1        0.0268
     46 H          -0.2891    1.5548   -2.2130 H       1  UNL1        0.0268
     47 H          -2.6441    0.9550   -2.0622 H       1  UNL1        0.0271
     48 H          -2.2023    2.0336   -0.7102 H       1  UNL1        0.0271
     49 H          -2.2341   -2.1708   -0.1154 H       1  UNL1        0.0236
     50 H          -3.7335   -1.6413   -0.8831 H       1  UNL1        0.0236
     51 H          -2.2341   -1.3852   -1.7786 H       1  UNL1        0.0236
@<TRIPOS>BOND
     1     1     2    1
     2     1     3    1
     3     3     4    1
     4     4     5    1
     5     5     6    1
     6     6     7    1
     7     7     8    1
     8     8     9    1
     9     9    10    1
    10    10    11    1
    11    11    12    2
    12    11    13    1
    13    13    14    1
    14    14    15    1
    15    15    16    1
    16    15    17    1
    17    17    18    1
    18    18    19    1
    19    19    20    1
    20    20    21    1
    21    20     1    1
    22    20     5    1
    23    17     6    1
    24    15     9    1
    25     1    22    1
    26     2    23    1
    27     3    24    1
    28     3    25    1
    29     4    26    1
    30     4    27    1
    31     5    28    1
    32     6    29    1
    33     7    30    1
    34     7    31    1
    35     8    32    1
    36     8    33    1
    37     9    34    1
    38    10    35    1
    39    10    36    1
    40    13    37    1
    41    13    38    1
    42    14    39    1
    43    14    40    1
    44    16    41    1
    45    16    42    1
    46    16    43    1
    47    17    44    1
    48    18    45    1
    49    18    46    1
    50    19    47    1
    51    19    48    1
    52    21    49    1
    53    21    50    1
    54    21    51    1
