
     RDKit          3D

 51 54  0  0  0  0  0  0  0  0999 V2000
   -3.8387    0.3590    0.4752 C   0  0  1  0  0  0  0  0  0  0  0  0
   -4.9518   -0.1546   -0.2222 O   0  0  0  0  0  0  0  0  0  0  0  0
   -3.7852   -0.3014    1.8529 C   0  0  0  0  0  0  0  0  0  0  0  0
   -2.3462   -0.7695    2.0281 C   0  0  0  0  0  0  0  0  0  0  0  0
   -1.6236    0.0589    1.0447 C   0  0  1  0  0  0  0  0  0  0  0  0
   -0.3013   -0.4465    0.5697 C   0  0  2  0  0  0  0  0  0  0  0  0
    0.6511   -0.8697    1.6293 C   0  0  0  0  0  0  0  0  0  0  0  0
    1.8596   -1.4546    0.9686 C   0  0  0  0  0  0  0  0  0  0  0  0
    2.1830   -0.8573   -0.3626 C   0  0  2  0  0  0  0  0  0  0  0  0
    3.6420   -1.0139   -0.6049 C   0  0  0  0  0  0  0  0  0  0  0  0
    4.4292    0.2277   -0.4516 C   0  0  0  0  0  0  0  0  0  0  0  0
    5.6462    0.1069   -0.4762 O   0  0  0  0  0  0  0  0  0  0  0  0
    3.8916    1.5916   -0.2726 C   0  0  0  0  0  0  0  0  0  0  0  0
    2.4786    1.5645    0.2601 C   0  0  0  0  0  0  0  0  0  0  0  0
    1.7087    0.5595   -0.5583 C   0  0  1  0  0  0  0  0  0  0  0  0
    1.9208    0.9102   -2.0173 C   0  0  0  0  0  0  0  0  0  0  0  0
    0.2577    0.7033   -0.2646 C   0  0  1  0  0  0  0  0  0  0  0  0
   -0.6090    0.7574   -1.5076 C   0  0  0  0  0  0  0  0  0  0  0  0
   -2.0290    1.0322   -1.1289 C   0  0  0  0  0  0  0  0  0  0  0  0
   -2.5465    0.0038   -0.1699 C   0  0  2  0  0  0  0  0  0  0  0  0
   -2.6535   -1.3752   -0.7477 C   0  0  0  0  0  0  0  0  0  0  0  0
   -3.8891    1.4650    0.5600 H   0  0  0  0  0  0  0  0  0  0  0  0
   -5.5669   -0.6424    0.3768 H   0  0  0  0  0  0  0  0  0  0  0  0
   -3.9446    0.5073    2.6095 H   0  0  0  0  0  0  0  0  0  0  0  0
   -4.5117   -1.1184    1.9653 H   0  0  0  0  0  0  0  0  0  0  0  0
   -1.9870   -0.5234    3.0530 H   0  0  0  0  0  0  0  0  0  0  0  0
   -2.2291   -1.8490    1.8999 H   0  0  0  0  0  0  0  0  0  0  0  0
   -1.5799    1.1071    1.3593 H   0  0  0  0  0  0  0  0  0  0  0  0
   -0.3912   -1.2935   -0.1502 H   0  0  0  0  0  0  0  0  0  0  0  0
    0.1257   -1.6590    2.2292 H   0  0  0  0  0  0  0  0  0  0  0  0
    0.8848   -0.0768    2.3680 H   0  0  0  0  0  0  0  0  0  0  0  0
    2.7341   -1.4732    1.6652 H   0  0  0  0  0  0  0  0  0  0  0  0
    1.6338   -2.5479    0.8067 H   0  0  0  0  0  0  0  0  0  0  0  0
    1.6639   -1.4436   -1.1602 H   0  0  0  0  0  0  0  0  0  0  0  0
    4.1001   -1.7568    0.1053 H   0  0  0  0  0  0  0  0  0  0  0  0
    3.8857   -1.4046   -1.6284 H   0  0  0  0  0  0  0  0  0  0  0  0
    3.9562    2.1669   -1.2391 H   0  0  0  0  0  0  0  0  0  0  0  0
    4.4980    2.1449    0.4685 H   0  0  0  0  0  0  0  0  0  0  0  0
    2.0164    2.5489    0.0590 H   0  0  0  0  0  0  0  0  0  0  0  0
    2.5140    1.3610    1.3333 H   0  0  0  0  0  0  0  0  0  0  0  0
    2.9554    0.7043   -2.3704 H   0  0  0  0  0  0  0  0  0  0  0  0
    1.2667    0.3266   -2.6962 H   0  0  0  0  0  0  0  0  0  0  0  0
    1.7390    2.0162   -2.1505 H   0  0  0  0  0  0  0  0  0  0  0  0
    0.0599    1.6759    0.2737 H   0  0  0  0  0  0  0  0  0  0  0  0
   -0.5804   -0.2139   -2.0194 H   0  0  0  0  0  0  0  0  0  0  0  0
   -0.2891    1.5548   -2.2130 H   0  0  0  0  0  0  0  0  0  0  0  0
   -2.6441    0.9550   -2.0622 H   0  0  0  0  0  0  0  0  0  0  0  0
   -2.2023    2.0336   -0.7102 H   0  0  0  0  0  0  0  0  0  0  0  0
   -2.2341   -2.1708   -0.1154 H   0  0  0  0  0  0  0  0  0  0  0  0
   -3.7335   -1.6413   -0.8831 H   0  0  0  0  0  0  0  0  0  0  0  0
   -2.2341   -1.3852   -1.7786 H   0  0  0  0  0  0  0  0  0  0  0  0
  1  2  1  0
  1  3  1  0
  3  4  1  0
  4  5  1  0
  5  6  1  0
  6  7  1  0
  7  8  1  0
  8  9  1  0
  9 10  1  0
 10 11  1  0
 11 12  2  0
 11 13  1  0
 13 14  1  0
 14 15  1  0
 15 16  1  6
 15 17  1  0
 17 18  1  0
 18 19  1  0
 19 20  1  0
 20 21  1  6
 20  1  1  0
 20  5  1  0
 17  6  1  0
 15  9  1  0
  1 22  1  1
  2 23  1  0
  3 24  1  0
  3 25  1  0
  4 26  1  0
  4 27  1  0
  5 28  1  1
  6 29  1  6
  7 30  1  0
  7 31  1  0
  8 32  1  0
  8 33  1  0
  9 34  1  6
 10 35  1  0
 10 36  1  0
 13 37  1  0
 13 38  1  0
 14 39  1  0
 14 40  1  0
 16 41  1  0
 16 42  1  0
 16 43  1  0
 17 44  1  1
 18 45  1  0
 18 46  1  0
 19 47  1  0
 19 48  1  0
 21 49  1  0
 21 50  1  0
 21 51  1  0
M  END
$$$$
