@<TRIPOS>MOLECULE
*****
 72 79 0 0 0
SMALL
GASTEIGER

@<TRIPOS>ATOM
      1 C          -3.2926    1.5708   -4.2600 C.ar    1  UNL1       -0.0617
      2 C          -3.4505    2.3481   -3.1212 C.ar    1  UNL1       -0.0612
      3 C          -4.0532    1.8261   -2.0003 C.ar    1  UNL1       -0.0540
      4 C          -4.5113    0.5171   -1.9916 C.ar    1  UNL1       -0.0158
      5 C          -5.1557   -0.0874   -0.8305 C.ar    1  UNL1        0.0088
      6 C          -6.4802   -0.5003   -0.8991 C.ar    1  UNL1       -0.0392
      7 C          -7.0141   -1.0657    0.2571 C.ar    1  UNL1        0.0456
      8 C          -6.2525   -1.1998    1.3993 C.ar    1  UNL1        0.0766
      9 C          -6.8318   -1.7703    2.5277 C.ar    1  UNL1       -0.0190
     10 C          -8.1311   -2.1966    2.5246 C.ar    1  UNL1        0.0147
     11 N          -8.8402   -2.0438    1.3783 N.ar    1  UNL1       -0.2884
     12 C         -10.1115   -2.3629    1.0847 C.ar    1  UNL1        0.1241
     13 N         -10.3659   -2.0174   -0.1886 N.ar    1  UNL1       -0.1372
     14 N          -9.2617   -1.4888   -0.6807 N.ar    1  UNL1       -0.1290
     15 C          -8.3124   -1.4996    0.2774 C.ar    1  UNL1        0.1701
     16 N          -4.9768   -0.7846    1.4137 N.ar    1  UNL1       -0.2459
     17 C          -4.4281   -0.2350    0.3186 C.ar    1  UNL1        0.0794
     18 C          -3.0345    0.2183    0.3382 C.ar    1  UNL1        0.0010
     19 C          -2.7109    1.2239    1.2191 C.ar    1  UNL1       -0.0522
     20 C          -1.4319    1.6978    1.2917 C.ar    1  UNL1       -0.0567
     21 C          -0.4162    1.1812    0.4797 C.ar    1  UNL1       -0.0333
     22 C           0.9603    1.7047    0.5323 C.3     1  UNL1        0.0240
     23 N           1.7019    1.0833    1.5671 N.3     1  UNL1       -0.2981
     24 C           3.0345    1.6655    1.5922 C.3     1  UNL1       -0.0001
     25 C           3.9533    0.8600    2.4581 C.3     1  UNL1       -0.0304
     26 C           4.1956   -0.4661    1.7516 C.3     1  UNL1        0.0212
     27 C           5.2155   -0.2182    0.6969 C.ar    1  UNL1        0.1344
     28 N           5.0570    0.4257   -0.4706 N.ar    1  UNL1       -0.1339
     29 N           6.2124    0.4443   -1.1395 N.ar    1  UNL1       -0.1278
     30 C           7.1400   -0.1960   -0.4002 C.ar    1  UNL1        0.1800
     31 C           8.5398   -0.3863   -0.7878 C.ar    1  UNL1        0.1077
     32 C           9.4368   -1.0463    0.0258 C.ar    1  UNL1       -0.0326
     33 C          10.7616   -1.2147   -0.3573 C.ar    1  UNL1       -0.0582
     34 C          11.2180   -0.7201   -1.5755 C.ar    1  UNL1       -0.0436
     35 C          10.2866   -0.0676   -2.3554 C.ar    1  UNL1        0.0284
     36 N           9.0096    0.0796   -1.9563 N.ar    1  UNL1       -0.2519
     37 N           6.5143   -0.5913    0.7121 N.ar    1  UNL1       -0.3237
     38 C           2.9506   -0.9741    1.0962 C.3     1  UNL1       -0.0304
     39 C           1.6990   -0.3254    1.6559 C.3     1  UNL1       -0.0001
     40 C          -0.7773    0.1818   -0.3837 C.ar    1  UNL1       -0.0567
     41 C          -2.0650   -0.3036   -0.4648 C.ar    1  UNL1       -0.0522
     42 C          -4.3560   -0.2513   -3.1153 C.ar    1  UNL1       -0.0540
     43 C          -3.7532    0.2552   -4.2508 C.ar    1  UNL1       -0.0612
     44 H          -2.8321    1.9194   -5.1634 H       1  UNL1        0.0618
     45 H          -3.0764    3.3617   -3.1795 H       1  UNL1        0.0618
     46 H          -4.1685    2.4360   -1.1308 H       1  UNL1        0.0624
     47 H          -7.0697   -0.3890   -1.8046 H       1  UNL1        0.0632
     48 H          -6.2314   -1.8685    3.4058 H       1  UNL1        0.0654
     49 H          -8.5904   -2.6411    3.3954 H       1  UNL1        0.0814
     50 H         -10.7890   -2.8243    1.7939 H       1  UNL1        0.1051
     51 H          -3.4681    1.6689    1.8829 H       1  UNL1        0.0624
     52 H          -1.1190    2.4864    1.9646 H       1  UNL1        0.0621
     53 H           0.9101    2.8134    0.6309 H       1  UNL1        0.0476
     54 H           1.4315    1.5315   -0.4651 H       1  UNL1        0.0476
     55 H           2.9392    2.6761    2.0304 H       1  UNL1        0.0427
     56 H           3.3817    1.7611    0.5486 H       1  UNL1        0.0427
     57 H           4.9080    1.3796    2.5607 H       1  UNL1        0.0284
     58 H           3.4218    0.6984    3.4316 H       1  UNL1        0.0284
     59 H           4.6188   -1.1369    2.5311 H       1  UNL1        0.0380
     60 H           9.0617   -1.4239    0.9708 H       1  UNL1        0.0640
     61 H          11.4605   -1.7314    0.2814 H       1  UNL1        0.0619
     62 H          12.2540   -0.8527   -1.8733 H       1  UNL1        0.0633
     63 H          10.6436    0.3201   -3.3099 H       1  UNL1        0.0830
     64 H           6.9630   -1.1129    1.4820 H       1  UNL1        0.1686
     65 H           2.8685   -2.0553    1.2403 H       1  UNL1        0.0284
     66 H           2.9211   -0.7674   -0.0094 H       1  UNL1        0.0284
     67 H           0.8390   -0.7601    1.1220 H       1  UNL1        0.0427
     68 H           1.5517   -0.6585    2.7327 H       1  UNL1        0.0427
     69 H          -0.0182   -0.2522   -1.0421 H       1  UNL1        0.0621
     70 H          -2.3312   -1.1032   -1.1625 H       1  UNL1        0.0624
     71 H          -4.7117   -1.2721   -3.1118 H       1  UNL1        0.0624
     72 H          -3.6409   -0.3648   -5.1223 H       1  UNL1        0.0618
@<TRIPOS>BOND
     1     1     2   ar
     2     2     3   ar
     3     3     4   ar
     4     4     5    1
     5     5     6   ar
     6     6     7   ar
     7     7     8   ar
     8     8     9   ar
     9     9    10   ar
    10    10    11   ar
    11    11    12   ar
    12    12    13   ar
    13    13    14   ar
    14    14    15   ar
    15     8    16   ar
    16    16    17   ar
    17    17    18    1
    18    18    19   ar
    19    19    20   ar
    20    20    21   ar
    21    21    22    1
    22    22    23    1
    23    23    24    1
    24    24    25    1
    25    25    26    1
    26    26    27    1
    27    27    28   ar
    28    28    29   ar
    29    29    30   ar
    30    30    31    1
    31    31    32   ar
    32    32    33   ar
    33    33    34   ar
    34    34    35   ar
    35    35    36   ar
    36    30    37   ar
    37    26    38    1
    38    38    39    1
    39    21    40   ar
    40    40    41   ar
    41     4    42   ar
    42    42    43   ar
    43    43     1   ar
    44    17     5   ar
    45    41    18   ar
    46    15     7   ar
    47    39    23    1
    48    15    11   ar
    49    37    27   ar
    50    36    31   ar
    51     1    44    1
    52     2    45    1
    53     3    46    1
    54     6    47    1
    55     9    48    1
    56    10    49    1
    57    12    50    1
    58    19    51    1
    59    20    52    1
    60    22    53    1
    61    22    54    1
    62    24    55    1
    63    24    56    1
    64    25    57    1
    65    25    58    1
    66    26    59    1
    67    32    60    1
    68    33    61    1
    69    34    62    1
    70    35    63    1
    71    37    64    1
    72    38    65    1
    73    38    66    1
    74    39    67    1
    75    39    68    1
    76    40    69    1
    77    41    70    1
    78    42    71    1
    79    43    72    1
