@<TRIPOS>MOLECULE
*****
 69 74 0 0 0
SMALL
GASTEIGER

@<TRIPOS>ATOM
      1 C          -7.0012    1.8762   -0.7583 C.3     1  UNL1       -0.0380
      2 C          -6.7899    0.8948    0.3214 C.ar    1  UNL1       -0.0279
      3 C          -7.6151    0.8287    1.4411 C.ar    1  UNL1       -0.0557
      4 C          -7.4150   -0.0916    2.4476 C.ar    1  UNL1       -0.0433
      5 C          -6.3442   -0.9688    2.3088 C.ar    1  UNL1        0.0279
      6 N          -5.5460   -0.8949    1.2125 N.ar    1  UNL1       -0.2583
      7 C          -5.7415    0.0009    0.2335 C.ar    1  UNL1        0.0581
      8 C          -4.8525    0.0594   -0.9484 C.3     1  UNL1        0.0415
      9 N          -3.9552    1.1856   -0.7983 N.3     1  UNL1       -0.2965
     10 C          -3.0733    1.3056   -1.9220 C.3     1  UNL1        0.0017
     11 C          -1.6130    1.2295   -1.5961 C.3     1  UNL1       -0.0095
     12 C          -1.2640    0.1610   -0.6015 C.3     1  UNL1        0.1240
     13 C          -2.3087    0.0187    0.4818 C.3     1  UNL1       -0.0095
     14 C          -3.2775    1.1758    0.4772 C.3     1  UNL1        0.0017
     15 C          -0.0049    0.5831    0.0896 C.2     1  UNL1        0.2516
     16 O          -0.0235    1.5776    0.8754 O.2     1  UNL1       -0.2724
     17 N           1.0526   -0.2649   -0.2853 N.am    1  UNL1       -0.1920
     18 C           2.4405   -0.0751    0.0824 C.ar    1  UNL1        0.0455
     19 C           3.4068   -0.9905   -0.2787 C.ar    1  UNL1       -0.0392
     20 C           4.7526   -0.7825    0.0780 C.ar    1  UNL1       -0.0523
     21 C           5.1602    0.3160    0.7857 C.ar    1  UNL1       -0.0178
     22 C           6.5527    0.5302    1.1521 C.ar    1  UNL1       -0.0178
     23 C           7.1230    1.7792    1.2801 C.ar    1  UNL1       -0.0533
     24 C           8.4450    1.9824    1.6277 C.ar    1  UNL1       -0.0472
     25 C           9.2290    0.8768    1.8572 C.ar    1  UNL1        0.0589
     26 C          10.6305    1.0329    2.2272 C.2     1  UNL1        0.3368
     27 O          11.1146    2.1977    2.3336 O.2     1  UNL1       -0.2451
     28 O          11.4744   -0.0186    2.4720 O.3     1  UNL1       -0.4771
     29 C           8.7092   -0.4008    1.7431 C.ar    1  UNL1       -0.0472
     30 C           7.3684   -0.5622    1.3896 C.ar    1  UNL1       -0.0533
     31 C           4.1895    1.2218    1.1405 C.ar    1  UNL1       -0.0523
     32 C           2.8560    1.0223    0.7911 C.ar    1  UNL1       -0.0392
     33 C           0.4973   -1.3002   -1.0816 C.2     1  UNL1        0.3219
     34 O           1.1272   -2.2752   -1.6195 O.2     1  UNL1       -0.2512
     35 N          -0.9146   -1.0939   -1.2038 N.am    1  UNL1       -0.2241
     36 C          -1.7866   -2.0221   -1.8370 C.ar    1  UNL1        0.1328
     37 C          -1.9729   -1.8624   -3.2020 C.ar    1  UNL1       -0.0031
     38 C          -2.8105   -2.7411   -3.8384 C.ar    1  UNL1        0.0326
     39 N          -3.4468   -3.7395   -3.1826 N.ar    1  UNL1       -0.2436
     40 C          -3.2530   -3.8754   -1.8644 C.ar    1  UNL1        0.1180
     41 N          -2.4246   -3.0115   -1.2179 N.ar    1  UNL1       -0.2203
     42 H          -6.1194    2.5242   -0.9357 H       1  UNL1        0.0278
     43 H          -7.1660    1.3251   -1.7273 H       1  UNL1        0.0278
     44 H          -7.9124    2.5050   -0.5652 H       1  UNL1        0.0278
     45 H          -8.4407    1.5412    1.5005 H       1  UNL1        0.0621
     46 H          -8.0501   -0.1472    3.3169 H       1  UNL1        0.0633
     47 H          -6.1941   -1.6827    3.0961 H       1  UNL1        0.0829
     48 H          -5.4463    0.2461   -1.8682 H       1  UNL1        0.0491
     49 H          -4.3267   -0.9144   -1.0169 H       1  UNL1        0.0491
     50 H          -3.3872    0.6231   -2.7377 H       1  UNL1        0.0427
     51 H          -3.2390    2.3407   -2.3383 H       1  UNL1        0.0427
     52 H          -1.0695    0.9908   -2.5371 H       1  UNL1        0.0303
     53 H          -1.2145    2.2221   -1.2563 H       1  UNL1        0.0303
     54 H          -1.8465   -0.0312    1.5041 H       1  UNL1        0.0303
     55 H          -2.8116   -0.9561    0.3378 H       1  UNL1        0.0303
     56 H          -4.0398    0.9894    1.2517 H       1  UNL1        0.0427
     57 H          -2.7409    2.1125    0.6055 H       1  UNL1        0.0427
     58 H           3.1440   -1.8762   -0.8345 H       1  UNL1        0.0636
     59 H           5.4811   -1.5345   -0.2301 H       1  UNL1        0.0624
     60 H           6.5132    2.6501    1.1022 H       1  UNL1        0.0624
     61 H           8.8841    2.9723    1.7251 H       1  UNL1        0.0626
     62 H          12.4158    0.0841    2.8626 H       1  UNL1        0.2954
     63 H           9.3501   -1.2676    1.9301 H       1  UNL1        0.0626
     64 H           7.0218   -1.5927    1.3167 H       1  UNL1        0.0624
     65 H           4.5026    2.1010    1.7048 H       1  UNL1        0.0624
     66 H           2.1722    1.7783    1.1060 H       1  UNL1        0.0636
     67 H          -1.4828   -1.0825   -3.7471 H       1  UNL1        0.0667
     68 H          -2.9570   -2.6182   -4.9013 H       1  UNL1        0.0831
     69 H          -3.7353   -4.6569   -1.2780 H       1  UNL1        0.1047
@<TRIPOS>BOND
     1     1     2    1
     2     2     3   ar
     3     3     4   ar
     4     4     5   ar
     5     5     6   ar
     6     6     7   ar
     7     7     8    1
     8     8     9    1
     9     9    10    1
    10    10    11    1
    11    11    12    1
    12    12    13    1
    13    13    14    1
    14    12    15    1
    15    15    16    2
    16    15    17   am
    17    17    18    1
    18    18    19   ar
    19    19    20   ar
    20    20    21   ar
    21    21    22    1
    22    22    23   ar
    23    23    24   ar
    24    24    25   ar
    25    25    26    1
    26    26    27    2
    27    26    28    1
    28    25    29   ar
    29    29    30   ar
    30    21    31   ar
    31    31    32   ar
    32    17    33   am
    33    33    34    2
    34    33    35   am
    35    35    36    1
    36    36    37   ar
    37    37    38   ar
    38    38    39   ar
    39    39    40   ar
    40    40    41   ar
    41     7     2   ar
    42    14     9    1
    43    32    18   ar
    44    41    36   ar
    45    35    12    1
    46    30    22   ar
    47     1    42    1
    48     1    43    1
    49     1    44    1
    50     3    45    1
    51     4    46    1
    52     5    47    1
    53     8    48    1
    54     8    49    1
    55    10    50    1
    56    10    51    1
    57    11    52    1
    58    11    53    1
    59    13    54    1
    60    13    55    1
    61    14    56    1
    62    14    57    1
    63    19    58    1
    64    20    59    1
    65    23    60    1
    66    24    61    1
    67    28    62    1
    68    29    63    1
    69    30    64    1
    70    31    65    1
    71    32    66    1
    72    37    67    1
    73    38    68    1
    74    40    69    1
