
     RDKit          3D

 69 74  0  0  0  0  0  0  0  0999 V2000
   -7.0012    1.8762   -0.7583 C   0  0  0  0  0  0  0  0  0  0  0  0
   -6.7899    0.8948    0.3214 C   0  0  0  0  0  0  0  0  0  0  0  0
   -7.6151    0.8287    1.4411 C   0  0  0  0  0  0  0  0  0  0  0  0
   -7.4150   -0.0916    2.4476 C   0  0  0  0  0  0  0  0  0  0  0  0
   -6.3442   -0.9688    2.3088 C   0  0  0  0  0  0  0  0  0  0  0  0
   -5.5460   -0.8949    1.2125 N   0  0  0  0  0  0  0  0  0  0  0  0
   -5.7415    0.0009    0.2335 C   0  0  0  0  0  0  0  0  0  0  0  0
   -4.8525    0.0594   -0.9484 C   0  0  0  0  0  0  0  0  0  0  0  0
   -3.9552    1.1856   -0.7983 N   0  0  0  0  0  0  0  0  0  0  0  0
   -3.0733    1.3056   -1.9220 C   0  0  0  0  0  0  0  0  0  0  0  0
   -1.6130    1.2295   -1.5961 C   0  0  0  0  0  0  0  0  0  0  0  0
   -1.2640    0.1610   -0.6015 C   0  0  0  0  0  0  0  0  0  0  0  0
   -2.3087    0.0187    0.4818 C   0  0  0  0  0  0  0  0  0  0  0  0
   -3.2775    1.1758    0.4772 C   0  0  0  0  0  0  0  0  0  0  0  0
   -0.0049    0.5831    0.0896 C   0  0  0  0  0  0  0  0  0  0  0  0
   -0.0235    1.5776    0.8754 O   0  0  0  0  0  0  0  0  0  0  0  0
    1.0526   -0.2649   -0.2853 N   0  0  0  0  0  0  0  0  0  0  0  0
    2.4405   -0.0751    0.0824 C   0  0  0  0  0  0  0  0  0  0  0  0
    3.4068   -0.9905   -0.2787 C   0  0  0  0  0  0  0  0  0  0  0  0
    4.7526   -0.7825    0.0780 C   0  0  0  0  0  0  0  0  0  0  0  0
    5.1602    0.3160    0.7857 C   0  0  0  0  0  0  0  0  0  0  0  0
    6.5527    0.5302    1.1521 C   0  0  0  0  0  0  0  0  0  0  0  0
    7.1230    1.7792    1.2801 C   0  0  0  0  0  0  0  0  0  0  0  0
    8.4450    1.9824    1.6277 C   0  0  0  0  0  0  0  0  0  0  0  0
    9.2290    0.8768    1.8572 C   0  0  0  0  0  0  0  0  0  0  0  0
   10.6305    1.0329    2.2272 C   0  0  0  0  0  0  0  0  0  0  0  0
   11.1146    2.1977    2.3336 O   0  0  0  0  0  0  0  0  0  0  0  0
   11.4744   -0.0186    2.4720 O   0  0  0  0  0  0  0  0  0  0  0  0
    8.7092   -0.4008    1.7431 C   0  0  0  0  0  0  0  0  0  0  0  0
    7.3684   -0.5622    1.3896 C   0  0  0  0  0  0  0  0  0  0  0  0
    4.1895    1.2218    1.1405 C   0  0  0  0  0  0  0  0  0  0  0  0
    2.8560    1.0223    0.7911 C   0  0  0  0  0  0  0  0  0  0  0  0
    0.4973   -1.3002   -1.0816 C   0  0  0  0  0  0  0  0  0  0  0  0
    1.1272   -2.2752   -1.6195 O   0  0  0  0  0  0  0  0  0  0  0  0
   -0.9146   -1.0939   -1.2038 N   0  0  0  0  0  0  0  0  0  0  0  0
   -1.7866   -2.0221   -1.8370 C   0  0  0  0  0  0  0  0  0  0  0  0
   -1.9729   -1.8624   -3.2020 C   0  0  0  0  0  0  0  0  0  0  0  0
   -2.8105   -2.7411   -3.8384 C   0  0  0  0  0  0  0  0  0  0  0  0
   -3.4468   -3.7395   -3.1826 N   0  0  0  0  0  0  0  0  0  0  0  0
   -3.2530   -3.8754   -1.8644 C   0  0  0  0  0  0  0  0  0  0  0  0
   -2.4246   -3.0115   -1.2179 N   0  0  0  0  0  0  0  0  0  0  0  0
   -6.1194    2.5242   -0.9357 H   0  0  0  0  0  0  0  0  0  0  0  0
   -7.1660    1.3251   -1.7273 H   0  0  0  0  0  0  0  0  0  0  0  0
   -7.9124    2.5050   -0.5652 H   0  0  0  0  0  0  0  0  0  0  0  0
   -8.4407    1.5412    1.5005 H   0  0  0  0  0  0  0  0  0  0  0  0
   -8.0501   -0.1472    3.3169 H   0  0  0  0  0  0  0  0  0  0  0  0
   -6.1941   -1.6827    3.0961 H   0  0  0  0  0  0  0  0  0  0  0  0
   -5.4463    0.2461   -1.8682 H   0  0  0  0  0  0  0  0  0  0  0  0
   -4.3267   -0.9144   -1.0169 H   0  0  0  0  0  0  0  0  0  0  0  0
   -3.3872    0.6231   -2.7377 H   0  0  0  0  0  0  0  0  0  0  0  0
   -3.2390    2.3407   -2.3383 H   0  0  0  0  0  0  0  0  0  0  0  0
   -1.0695    0.9908   -2.5371 H   0  0  0  0  0  0  0  0  0  0  0  0
   -1.2145    2.2221   -1.2563 H   0  0  0  0  0  0  0  0  0  0  0  0
   -1.8465   -0.0312    1.5041 H   0  0  0  0  0  0  0  0  0  0  0  0
   -2.8116   -0.9561    0.3378 H   0  0  0  0  0  0  0  0  0  0  0  0
   -4.0398    0.9894    1.2517 H   0  0  0  0  0  0  0  0  0  0  0  0
   -2.7409    2.1125    0.6055 H   0  0  0  0  0  0  0  0  0  0  0  0
    3.1440   -1.8762   -0.8345 H   0  0  0  0  0  0  0  0  0  0  0  0
    5.4811   -1.5345   -0.2301 H   0  0  0  0  0  0  0  0  0  0  0  0
    6.5132    2.6501    1.1022 H   0  0  0  0  0  0  0  0  0  0  0  0
    8.8841    2.9723    1.7251 H   0  0  0  0  0  0  0  0  0  0  0  0
   12.4158    0.0841    2.8626 H   0  0  0  0  0  0  0  0  0  0  0  0
    9.3501   -1.2676    1.9301 H   0  0  0  0  0  0  0  0  0  0  0  0
    7.0218   -1.5927    1.3167 H   0  0  0  0  0  0  0  0  0  0  0  0
    4.5026    2.1010    1.7048 H   0  0  0  0  0  0  0  0  0  0  0  0
    2.1722    1.7783    1.1060 H   0  0  0  0  0  0  0  0  0  0  0  0
   -1.4828   -1.0825   -3.7471 H   0  0  0  0  0  0  0  0  0  0  0  0
   -2.9570   -2.6182   -4.9013 H   0  0  0  0  0  0  0  0  0  0  0  0
   -3.7353   -4.6569   -1.2780 H   0  0  0  0  0  0  0  0  0  0  0  0
  1  2  1  0
  2  3  2  0
  3  4  1  0
  4  5  2  0
  5  6  1  0
  6  7  2  0
  7  8  1  0
  8  9  1  0
  9 10  1  0
 10 11  1  0
 11 12  1  0
 12 13  1  0
 13 14  1  0
 12 15  1  0
 15 16  2  0
 15 17  1  0
 17 18  1  0
 18 19  2  0
 19 20  1  0
 20 21  2  0
 21 22  1  0
 22 23  2  0
 23 24  1  0
 24 25  2  0
 25 26  1  0
 26 27  2  0
 26 28  1  0
 25 29  1  0
 29 30  2  0
 21 31  1  0
 31 32  2  0
 17 33  1  0
 33 34  2  0
 33 35  1  0
 35 36  1  0
 36 37  2  0
 37 38  1  0
 38 39  2  0
 39 40  1  0
 40 41  2  0
  7  2  1  0
 14  9  1  0
 32 18  1  0
 41 36  1  0
 35 12  1  0
 30 22  1  0
  1 42  1  0
  1 43  1  0
  1 44  1  0
  3 45  1  0
  4 46  1  0
  5 47  1  0
  8 48  1  0
  8 49  1  0
 10 50  1  0
 10 51  1  0
 11 52  1  0
 11 53  1  0
 13 54  1  0
 13 55  1  0
 14 56  1  0
 14 57  1  0
 19 58  1  0
 20 59  1  0
 23 60  1  0
 24 61  1  0
 28 62  1  0
 29 63  1  0
 30 64  1  0
 31 65  1  0
 32 66  1  0
 37 67  1  0
 38 68  1  0
 40 69  1  0
M  END
$$$$
