
     RDKit          3D

 38 37  0  0  0  0  0  0  0  0999 V2000
    4.6029   -0.9349    1.5894 N   0  0  0  0  0  0  0  0  0  0  0  0
    4.4909    0.0613    0.5473 C   0  0  1  0  0  0  0  0  0  0  0  0
    3.9782   -0.4322   -0.7525 C   0  0  0  0  0  0  0  0  0  0  0  0
    2.6301   -1.0374   -0.7724 C   0  0  0  0  0  0  0  0  0  0  0  0
    1.4933   -0.1808   -0.3420 C   0  0  0  0  0  0  0  0  0  0  0  0
    0.2791   -1.0050   -0.4542 N   0  0  0  0  0  0  0  0  0  0  0  0
   -1.0095   -0.5042   -0.1209 C   0  0  0  0  0  0  0  0  0  0  0  0
   -1.0873    0.5541    0.5870 N   0  0  0  0  0  0  0  0  0  0  0  0
   -2.1756   -1.1651   -0.5648 N   0  0  0  0  0  0  0  0  0  0  0  0
   -3.5186   -0.6263   -0.3362 C   0  0  2  0  0  0  0  0  0  0  0  0
   -3.7179    0.7254   -0.9597 C   0  0  0  0  0  0  0  0  0  0  0  0
   -5.1073    1.2158   -0.6886 C   0  0  0  0  0  0  0  0  0  0  0  0
   -6.2790    0.8741   -0.0695 O   0  0  0  0  0  0  0  0  0  0  0  0
   -5.3630    2.3444   -1.1755 O   0  0  0  0  0  0  0  0  0  0  0  0
   -3.6977   -0.5653    1.1354 C   0  0  0  0  0  0  0  0  0  0  0  0
   -4.7838   -0.1335    1.8518 O   0  0  0  0  0  0  0  0  0  0  0  0
   -2.8261   -0.9227    1.9883 O   0  0  0  0  0  0  0  0  0  0  0  0
    3.8110    1.2790    1.0123 C   0  0  0  0  0  0  0  0  0  0  0  0
    3.6718    2.2528    0.0195 O   0  0  0  0  0  0  0  0  0  0  0  0
    3.3228    1.6308    2.1312 O   0  0  0  0  0  0  0  0  0  0  0  0
    4.9334   -1.8267    1.2108 H   0  0  0  0  0  0  0  0  0  0  0  0
    5.3094   -0.5868    2.2821 H   0  0  0  0  0  0  0  0  0  0  0  0
    5.5609    0.3822    0.3526 H   0  0  0  0  0  0  0  0  0  0  0  0
    4.0542    0.3934   -1.4801 H   0  0  0  0  0  0  0  0  0  0  0  0
    4.6937   -1.2241   -1.1225 H   0  0  0  0  0  0  0  0  0  0  0  0
    2.5782   -1.9746   -0.1503 H   0  0  0  0  0  0  0  0  0  0  0  0
    2.4068   -1.3812   -1.8080 H   0  0  0  0  0  0  0  0  0  0  0  0
    1.5455    0.0682    0.7498 H   0  0  0  0  0  0  0  0  0  0  0  0
    1.3677    0.7436   -0.9321 H   0  0  0  0  0  0  0  0  0  0  0  0
    0.2946   -2.0144   -0.7882 H   0  0  0  0  0  0  0  0  0  0  0  0
   -0.2383    1.0464    0.9176 H   0  0  0  0  0  0  0  0  0  0  0  0
   -2.0691   -2.0870   -1.0833 H   0  0  0  0  0  0  0  0  0  0  0  0
   -4.2593   -1.3187   -0.7345 H   0  0  0  0  0  0  0  0  0  0  0  0
   -2.9657    1.4603   -0.5594 H   0  0  0  0  0  0  0  0  0  0  0  0
   -3.5310    0.6504   -2.0503 H   0  0  0  0  0  0  0  0  0  0  0  0
   -7.0681    0.4852   -0.5938 H   0  0  0  0  0  0  0  0  0  0  0  0
   -4.7226    0.5438    2.5908 H   0  0  0  0  0  0  0  0  0  0  0  0
    3.3955    3.2098    0.2325 H   0  0  0  0  0  0  0  0  0  0  0  0
  1  2  1  0
  2  3  1  0
  3  4  1  0
  4  5  1  0
  5  6  1  0
  6  7  1  0
  7  8  2  3
  7  9  1  0
  9 10  1  0
 10 11  1  0
 11 12  1  0
 12 13  1  0
 12 14  2  0
 10 15  1  0
 15 16  1  0
 15 17  2  0
  2 18  1  0
 18 19  1  0
 18 20  2  0
  1 21  1  0
  1 22  1  0
  2 23  1  6
  3 24  1  0
  3 25  1  0
  4 26  1  0
  4 27  1  0
  5 28  1  0
  5 29  1  0
  6 30  1  0
  8 31  1  0
  9 32  1  0
 10 33  1  6
 11 34  1  0
 11 35  1  0
 13 36  1  0
 16 37  1  0
 19 38  1  0
M  END
$$$$
