
     RDKit          3D

 54 55  0  0  0  0  0  0  0  0999 V2000
    0.6326    2.7092    3.5070 C   0  0  0  0  0  0  0  0  0  0  0  0
    0.2972    2.6483    2.0436 C   0  0  0  0  0  0  0  0  0  0  0  0
    0.5198    1.2654    1.4937 C   0  0  0  0  0  0  0  0  0  0  0  0
    0.9187    0.2684    2.0904 O   0  0  0  0  0  0  0  0  0  0  0  0
    0.2257    1.1778    0.1770 O   0  0  0  0  0  0  0  0  0  0  0  0
    0.3157    0.0831   -0.7013 C   0  0  1  0  0  0  0  0  0  0  0  0
    1.6430   -0.4683   -0.9879 C   0  0  0  0  0  0  0  0  0  0  0  0
    2.5223   -0.9953    0.0340 C   0  0  0  0  0  0  0  0  0  0  0  0
    3.5466   -0.1800    0.5596 C   0  0  0  0  0  0  0  0  0  0  0  0
    4.4434   -0.5418    1.5174 C   0  0  0  0  0  0  0  0  0  0  0  0
    4.3585   -1.8148    2.0305 C   0  0  0  0  0  0  0  0  0  0  0  0
    3.3830   -2.6831    1.5722 C   0  0  0  0  0  0  0  0  0  0  0  0
    2.4913   -2.2585    0.5903 C   0  0  0  0  0  0  0  0  0  0  0  0
   -0.6959   -0.9095   -0.1823 C   0  0  2  0  0  0  0  0  0  0  0  0
   -0.8248   -2.1960   -0.8954 C   0  0  0  0  0  0  0  0  0  0  0  0
   -2.0922   -0.2692   -0.1649 C   0  0  0  0  0  0  0  0  0  0  0  0
   -3.0770   -1.2186    0.3328 N   0  0  0  0  0  0  0  0  0  0  0  0
   -2.8775   -1.5108    1.7565 C   0  0  0  0  0  0  0  0  0  0  0  0
   -4.4216   -0.7595    0.1441 C   0  0  0  0  0  0  0  0  0  0  0  0
   -0.1320    0.7047   -2.0201 C   0  0  0  0  0  0  0  0  0  0  0  0
   -0.8345    0.1058   -3.0237 C   0  0  0  0  0  0  0  0  0  0  0  0
   -1.1767    0.7804   -4.1694 C   0  0  0  0  0  0  0  0  0  0  0  0
   -0.8254    2.0979   -4.3602 C   0  0  0  0  0  0  0  0  0  0  0  0
   -0.1151    2.7704   -3.3917 C   0  0  0  0  0  0  0  0  0  0  0  0
    0.1953    2.0477   -2.2764 C   0  0  0  0  0  0  0  0  0  0  0  0
    0.6435    1.7139    3.9649 H   0  0  0  0  0  0  0  0  0  0  0  0
    1.6409    3.1927    3.5940 H   0  0  0  0  0  0  0  0  0  0  0  0
   -0.1132    3.3622    4.0171 H   0  0  0  0  0  0  0  0  0  0  0  0
   -0.7786    2.8839    1.8794 H   0  0  0  0  0  0  0  0  0  0  0  0
    0.8841    3.3767    1.4474 H   0  0  0  0  0  0  0  0  0  0  0  0
    1.6064   -1.2705   -1.7986 H   0  0  0  0  0  0  0  0  0  0  0  0
    2.1824    0.3607   -1.5811 H   0  0  0  0  0  0  0  0  0  0  0  0
    3.6225    0.8402    0.1560 H   0  0  0  0  0  0  0  0  0  0  0  0
    5.1952    0.1658    1.8510 H   0  0  0  0  0  0  0  0  0  0  0  0
    5.0927   -2.0643    2.7916 H   0  0  0  0  0  0  0  0  0  0  0  0
    3.3682   -3.6509    2.0059 H   0  0  0  0  0  0  0  0  0  0  0  0
    1.7318   -2.9350    0.2330 H   0  0  0  0  0  0  0  0  0  0  0  0
   -0.4668   -1.0790    0.8860 H   0  0  0  0  0  0  0  0  0  0  0  0
   -0.0041   -2.4661   -1.5957 H   0  0  0  0  0  0  0  0  0  0  0  0
   -1.8455   -2.4165   -1.3020 H   0  0  0  0  0  0  0  0  0  0  0  0
   -0.7205   -3.0273   -0.1163 H   0  0  0  0  0  0  0  0  0  0  0  0
   -2.1330    0.6000    0.5353 H   0  0  0  0  0  0  0  0  0  0  0  0
   -2.4340    0.0294   -1.1593 H   0  0  0  0  0  0  0  0  0  0  0  0
   -2.8689   -0.5900    2.3720 H   0  0  0  0  0  0  0  0  0  0  0  0
   -1.9357   -2.0882    1.9167 H   0  0  0  0  0  0  0  0  0  0  0  0
   -3.7329   -2.1341    2.0644 H   0  0  0  0  0  0  0  0  0  0  0  0
   -4.4112    0.3481    0.0439 H   0  0  0  0  0  0  0  0  0  0  0  0
   -4.8365   -1.2461   -0.7581 H   0  0  0  0  0  0  0  0  0  0  0  0
   -5.0776   -1.0677    0.9922 H   0  0  0  0  0  0  0  0  0  0  0  0
   -1.1257   -0.8957   -2.9319 H   0  0  0  0  0  0  0  0  0  0  0  0
   -1.7368    0.2485   -4.9323 H   0  0  0  0  0  0  0  0  0  0  0  0
   -1.1138    2.5899   -5.2780 H   0  0  0  0  0  0  0  0  0  0  0  0
    0.1855    3.7947   -3.4828 H   0  0  0  0  0  0  0  0  0  0  0  0
    0.7614    2.5714   -1.4908 H   0  0  0  0  0  0  0  0  0  0  0  0
  1  2  1  0
  2  3  1  0
  3  4  2  0
  3  5  1  0
  6  5  1  1
  6  7  1  0
  7  8  1  0
  8  9  2  0
  9 10  1  0
 10 11  2  0
 11 12  1  0
 12 13  2  0
  6 14  1  0
 14 15  1  0
 14 16  1  0
 16 17  1  0
 17 18  1  0
 17 19  1  0
  6 20  1  0
 20 21  2  0
 21 22  1  0
 22 23  2  0
 23 24  1  0
 24 25  2  0
 13  8  1  0
 25 20  1  0
  1 26  1  0
  1 27  1  0
  1 28  1  0
  2 29  1  0
  2 30  1  0
  7 31  1  0
  7 32  1  0
  9 33  1  0
 10 34  1  0
 11 35  1  0
 12 36  1  0
 13 37  1  0
 14 38  1  1
 15 39  1  0
 15 40  1  0
 15 41  1  0
 16 42  1  0
 16 43  1  0
 18 44  1  0
 18 45  1  0
 18 46  1  0
 19 47  1  0
 19 48  1  0
 19 49  1  0
 21 50  1  0
 22 51  1  0
 23 52  1  0
 24 53  1  0
 25 54  1  0
M  END
$$$$
