@<TRIPOS>MOLECULE
*****
 91 95 0 0 0
SMALL
GASTEIGER

@<TRIPOS>ATOM
      1 C           4.3146    0.1266   -1.3182 C.3     1  UNL1        0.1084
      2 C           3.5106   -0.6647   -2.2725 C.3     1  UNL1       -0.0146
      3 C           2.0309   -0.7194   -2.0392 C.3     1  UNL1       -0.0433
      4 C           1.6788   -0.6332   -0.5361 C.3     1  UNL1       -0.0182
      5 C           2.3027   -1.7939    0.1016 C.3     1  UNL1       -0.0586
      6 C           2.1459    0.7388   -0.1895 C.3     1  UNL1       -0.0264
      7 C           1.6034    1.2622    1.1067 C.3     1  UNL1       -0.0486
      8 C           0.0917    1.2874    0.9797 C.3     1  UNL1       -0.0459
      9 C          -0.4593   -0.1413    0.7673 C.3     1  UNL1       -0.0127
     10 C          -0.0048   -0.8580    2.0161 C.3     1  UNL1       -0.0581
     11 C           0.1697   -0.5707   -0.4924 C.3     1  UNL1        0.0333
     12 C          -0.4747   -1.7465   -1.0788 C.2     1  UNL1        0.1602
     13 O           0.0424   -2.8433   -1.4076 O.2     1  UNL1       -0.2923
     14 C          -1.9072   -1.6215   -1.3090 C.2     1  UNL1       -0.0188
     15 C          -2.5768   -0.8510   -0.4221 C.2     1  UNL1       -0.0562
     16 C          -4.0426   -0.7104   -0.6393 C.3     1  UNL1       -0.0126
     17 C          -4.4776    0.5179   -1.3414 C.3     1  UNL1       -0.0304
     18 C          -5.8063    1.0626   -0.9772 C.3     1  UNL1        0.0654
     19 C          -5.7895    2.5941   -1.1216 C.3     1  UNL1       -0.0494
     20 C          -6.3095    0.7992    0.3922 C.3     1  UNL1       -0.0370
     21 C          -6.1752   -0.6333    0.7211 C.3     1  UNL1       -0.0461
     22 C          -4.7416   -1.0801    0.6211 C.3     1  UNL1       -0.0254
     23 C          -4.8897   -2.6289    0.6302 C.3     1  UNL1       -0.0590
     24 C          -4.0568   -0.7867    1.8933 C.3     1  UNL1       -0.0463
     25 C          -2.5625   -0.9958    1.8974 C.3     1  UNL1       -0.0429
     26 C          -1.9322   -0.1703    0.7501 C.3     1  UNL1       -0.0043
     27 C          -2.4398    1.2152    1.0278 C.3     1  UNL1       -0.0553
     28 C          -6.8704    0.6333   -1.9597 C.2     1  UNL1        0.3107
     29 O          -6.5675    1.0831   -3.2594 O.3     1  UNL1       -0.4802
     30 O          -7.9356   -0.0234   -1.8501 O.2     1  UNL1       -0.2504
     31 C           3.5799    1.0559   -0.4331 C.3     1  UNL1        0.0055
     32 C           3.7143    2.4716   -1.0277 C.3     1  UNL1       -0.0562
     33 C           4.2892    1.1998    0.9061 C.3     1  UNL1       -0.0562
     34 O           5.1661   -0.6721   -0.4854 O.3     1  UNL1       -0.4608
     35 C           6.5308   -0.6589   -0.5214 C.2     1  UNL1        0.3079
     36 O           7.0493    0.1084   -1.3429 O.2     1  UNL1       -0.2508
     37 C           7.2443   -1.5539    0.4156 C.3     1  UNL1        0.0550
     38 C           7.6576   -0.7547    1.6309 C.3     1  UNL1        0.0548
     39 C           8.5544    0.3734    1.3217 C.2     1  UNL1        0.3052
     40 O           8.9479    1.1270    2.4011 O.3     1  UNL1       -0.4806
     41 O           9.0429    0.7907    0.2265 O.2     1  UNL1       -0.2510
     42 H           5.0678    0.6990   -1.9406 H       1  UNL1        0.0739
     43 H           3.9370   -1.7114   -2.2671 H       1  UNL1        0.0301
     44 H           3.6375   -0.3522   -3.3397 H       1  UNL1        0.0301
     45 H           1.6587   -1.6259   -2.5078 H       1  UNL1        0.0272
     46 H           1.5915    0.1871   -2.5121 H       1  UNL1        0.0272
     47 H           3.0145   -1.6327    0.9158 H       1  UNL1        0.0235
     48 H           1.4847   -2.5184    0.3978 H       1  UNL1        0.0235
     49 H           2.8910   -2.4430   -0.6189 H       1  UNL1        0.0235
     50 H           1.5811    1.3759   -0.9482 H       1  UNL1        0.0313
     51 H           2.0032    0.8557    2.0165 H       1  UNL1        0.0268
     52 H           1.8881    2.3596    1.1171 H       1  UNL1        0.0268
     53 H          -0.2924    1.7745    1.8590 H       1  UNL1        0.0271
     54 H          -0.0614    1.8366    0.0049 H       1  UNL1        0.0271
     55 H          -0.2659   -0.1745    2.8608 H       1  UNL1        0.0236
     56 H          -0.4240   -1.8671    2.1394 H       1  UNL1        0.0236
     57 H           1.0961   -0.9256    2.1329 H       1  UNL1        0.0236
     58 H          -0.0163    0.2867   -1.2143 H       1  UNL1        0.0392
     59 H          -2.4613   -2.1066   -2.1338 H       1  UNL1        0.0652
     60 H          -4.3749   -1.5191   -1.3716 H       1  UNL1        0.0351
     61 H          -3.7287    1.3594   -1.3456 H       1  UNL1        0.0282
     62 H          -4.5627    0.3877   -2.4757 H       1  UNL1        0.0282
     63 H          -6.5732    3.0612   -0.4664 H       1  UNL1        0.0240
     64 H          -6.0036    2.9144   -2.1478 H       1  UNL1        0.0240
     65 H          -4.8292    2.9957   -0.7480 H       1  UNL1        0.0240
     66 H          -5.8582    1.5217    1.0923 H       1  UNL1        0.0276
     67 H          -7.4040    1.1095    0.3768 H       1  UNL1        0.0276
     68 H          -6.5155   -0.8529    1.7631 H       1  UNL1        0.0271
     69 H          -6.8385   -1.2029    0.0259 H       1  UNL1        0.0271
     70 H          -5.5871   -2.9634    1.3971 H       1  UNL1        0.0235
     71 H          -5.2655   -2.8566   -0.3992 H       1  UNL1        0.0235
     72 H          -3.8840   -3.0840    0.7550 H       1  UNL1        0.0235
     73 H          -4.2913    0.1734    2.3898 H       1  UNL1        0.0271
     74 H          -4.4059   -1.5233    2.6895 H       1  UNL1        0.0271
     75 H          -2.3485   -2.0611    1.6515 H       1  UNL1        0.0274
     76 H          -2.1980   -0.7461    2.8774 H       1  UNL1        0.0274
     77 H          -2.2265    1.3718    2.1325 H       1  UNL1        0.0238
     78 H          -3.5270    1.3452    0.9816 H       1  UNL1        0.0238
     79 H          -1.9479    2.0355    0.5197 H       1  UNL1        0.0238
     80 H          -7.2161    0.9512   -4.0352 H       1  UNL1        0.2951
     81 H           4.7866    2.7770   -0.9895 H       1  UNL1        0.0236
     82 H           3.0492    3.1890   -0.5346 H       1  UNL1        0.0236
     83 H           3.4915    2.3698   -2.1152 H       1  UNL1        0.0236
     84 H           4.2318    0.3295    1.5495 H       1  UNL1        0.0236
     85 H           3.9451    2.1574    1.3653 H       1  UNL1        0.0236
     86 H           5.3673    1.3515    0.6650 H       1  UNL1        0.0236
     87 H           6.5878   -2.3641    0.7898 H       1  UNL1        0.0383
     88 H           8.1715   -1.9738   -0.0260 H       1  UNL1        0.0383
     89 H           8.0550   -1.4032    2.4402 H       1  UNL1        0.0383
     90 H           6.7035   -0.3199    2.0457 H       1  UNL1        0.0383
     91 H           9.2191    2.1172    2.2956 H       1  UNL1        0.2951
@<TRIPOS>BOND
     1     1     2    1
     2     2     3    1
     3     3     4    1
     4     4     5    1
     5     4     6    1
     6     6     7    1
     7     7     8    1
     8     8     9    1
     9     9    10    1
    10     9    11    1
    11    11    12    1
    12    12    13    2
    13    12    14    1
    14    14    15    2
    15    15    16    1
    16    16    17    1
    17    17    18    1
    18    18    19    1
    19    18    20    1
    20    20    21    1
    21    21    22    1
    22    22    23    1
    23    22    24    1
    24    24    25    1
    25    25    26    1
    26    26    27    1
    27    18    28    1
    28    28    29    1
    29    28    30    2
    30     6    31    1
    31    31    32    1
    32    31    33    1
    33     1    34    1
    34    34    35    1
    35    35    36    2
    36    35    37    1
    37    37    38    1
    38    38    39    1
    39    39    40    1
    40    39    41    2
    41    31     1    1
    42    11     4    1
    43    26    15    1
    44    26     9    1
    45    22    16    1
    46     1    42    1
    47     2    43    1
    48     2    44    1
    49     3    45    1
    50     3    46    1
    51     5    47    1
    52     5    48    1
    53     5    49    1
    54     6    50    1
    55     7    51    1
    56     7    52    1
    57     8    53    1
    58     8    54    1
    59    10    55    1
    60    10    56    1
    61    10    57    1
    62    11    58    1
    63    14    59    1
    64    16    60    1
    65    17    61    1
    66    17    62    1
    67    19    63    1
    68    19    64    1
    69    19    65    1
    70    20    66    1
    71    20    67    1
    72    21    68    1
    73    21    69    1
    74    23    70    1
    75    23    71    1
    76    23    72    1
    77    24    73    1
    78    24    74    1
    79    25    75    1
    80    25    76    1
    81    27    77    1
    82    27    78    1
    83    27    79    1
    84    29    80    1
    85    32    81    1
    86    32    82    1
    87    32    83    1
    88    33    84    1
    89    33    85    1
    90    33    86    1
    91    37    87    1
    92    37    88    1
    93    38    89    1
    94    38    90    1
    95    40    91    1
