
     RDKit          3D

 64 66  0  0  0  0  0  0  0  0999 V2000
   -9.1635   -0.0525    0.3596 C   0  0  0  0  0  0  0  0  0  0  0  0
   -8.1353   -0.3630    1.3977 C   0  0  0  0  0  0  0  0  0  0  0  0
   -6.8086   -0.1763    0.9279 N   0  0  0  0  0  0  0  0  0  0  0  0
   -6.3483    1.1052    0.6608 C   0  0  0  0  0  0  0  0  0  0  0  0
   -6.8815    1.8853   -0.4693 C   0  0  0  0  0  0  0  0  0  0  0  0
   -6.2852   -1.2821    0.1845 C   0  0  0  0  0  0  0  0  0  0  0  0
   -4.8715   -1.0424   -0.2889 C   0  0  0  0  0  0  0  0  0  0  0  0
   -4.3343   -2.2267   -1.0621 C   0  0  0  0  0  0  0  0  0  0  0  0
   -2.9189   -1.9262   -1.5085 C   0  0  0  0  0  0  0  0  0  0  0  0
   -2.1024   -1.7014   -0.3514 N   0  0  0  0  0  0  0  0  0  0  0  0
   -0.7409   -1.3325   -0.4790 C   0  0  0  0  0  0  0  0  0  0  0  0
    0.0559   -1.1035    0.6493 C   0  0  0  0  0  0  0  0  0  0  0  0
    1.3751   -0.7356    0.5597 C   0  0  0  0  0  0  0  0  0  0  0  0
    2.1348   -0.5088    1.6684 N   0  0  0  0  0  0  0  0  0  0  0  0
    3.4214   -0.1413    1.5930 C   0  0  0  0  0  0  0  0  0  0  0  0
    4.2194    0.1007    2.7443 N   0  0  0  0  0  0  0  0  0  0  0  0
    3.9908    0.0109    0.3527 C   0  0  0  0  0  0  0  0  0  0  0  0
    5.3898    0.4249    0.2620 C   0  0  0  0  0  0  0  0  0  0  0  0
    6.3852   -0.0992    1.0412 C   0  0  0  0  0  0  0  0  0  0  0  0
    7.7292    0.3275    0.9316 C   0  0  0  0  0  0  0  0  0  0  0  0
    8.6883   -0.1602    1.6663 O   0  0  0  0  0  0  0  0  0  0  0  0
    9.6383   -0.6398    2.3905 C   0  0  0  0  0  0  0  0  0  0  0  0
    8.0151    1.3253   -0.0215 C   0  0  0  0  0  0  0  0  0  0  0  0
    7.0282    1.8595   -0.8113 C   0  0  0  0  0  0  0  0  0  0  0  0
    7.3131    2.8413   -1.7505 O   0  0  0  0  0  0  0  0  0  0  0  0
    6.3091    3.3857   -2.5571 C   0  0  0  0  0  0  0  0  0  0  0  0
    5.7639    1.3961   -0.6432 C   0  0  0  0  0  0  0  0  0  0  0  0
    3.2412   -0.2138   -0.7736 C   0  0  0  0  0  0  0  0  0  0  0  0
    1.9207   -0.5911   -0.7104 C   0  0  0  0  0  0  0  0  0  0  0  0
    1.1273   -0.8199   -1.8158 C   0  0  0  0  0  0  0  0  0  0  0  0
   -0.1639   -1.1791   -1.6740 N   0  0  0  0  0  0  0  0  0  0  0  0
   -8.7577   -0.1540   -0.6675 H   0  0  0  0  0  0  0  0  0  0  0  0
  -10.0719   -0.6979    0.4987 H   0  0  0  0  0  0  0  0  0  0  0  0
   -9.5294    0.9811    0.5194 H   0  0  0  0  0  0  0  0  0  0  0  0
   -8.2813   -1.3616    1.8683 H   0  0  0  0  0  0  0  0  0  0  0  0
   -8.2909    0.3572    2.2553 H   0  0  0  0  0  0  0  0  0  0  0  0
   -5.2195    1.0777    0.5978 H   0  0  0  0  0  0  0  0  0  0  0  0
   -6.5128    1.7298    1.5948 H   0  0  0  0  0  0  0  0  0  0  0  0
   -6.1550    2.7132   -0.7439 H   0  0  0  0  0  0  0  0  0  0  0  0
   -7.8045    2.4560   -0.2026 H   0  0  0  0  0  0  0  0  0  0  0  0
   -7.0752    1.3629   -1.4017 H   0  0  0  0  0  0  0  0  0  0  0  0
   -6.9512   -1.6109   -0.6426 H   0  0  0  0  0  0  0  0  0  0  0  0
   -6.2332   -2.1439    0.8862 H   0  0  0  0  0  0  0  0  0  0  0  0
   -4.2698   -0.8583    0.6199 H   0  0  0  0  0  0  0  0  0  0  0  0
   -4.7731   -0.1425   -0.9328 H   0  0  0  0  0  0  0  0  0  0  0  0
   -4.2413   -3.0909   -0.3434 H   0  0  0  0  0  0  0  0  0  0  0  0
   -4.9732   -2.5143   -1.8947 H   0  0  0  0  0  0  0  0  0  0  0  0
   -2.9309   -1.0319   -2.1941 H   0  0  0  0  0  0  0  0  0  0  0  0
   -2.5269   -2.7537   -2.1515 H   0  0  0  0  0  0  0  0  0  0  0  0
   -2.4966   -1.8094    0.5954 H   0  0  0  0  0  0  0  0  0  0  0  0
   -0.3998   -1.2241    1.6052 H   0  0  0  0  0  0  0  0  0  0  0  0
    4.6742    1.0160    2.9003 H   0  0  0  0  0  0  0  0  0  0  0  0
    4.3486   -0.6510    3.4417 H   0  0  0  0  0  0  0  0  0  0  0  0
    6.1470   -0.8684    1.7653 H   0  0  0  0  0  0  0  0  0  0  0  0
    9.4868   -0.5777    3.5194 H   0  0  0  0  0  0  0  0  0  0  0  0
    9.9507   -1.7315    2.1980 H   0  0  0  0  0  0  0  0  0  0  0  0
   10.6627   -0.1290    2.2965 H   0  0  0  0  0  0  0  0  0  0  0  0
    9.0508    1.6605   -0.1092 H   0  0  0  0  0  0  0  0  0  0  0  0
    5.6458    4.1008   -2.0117 H   0  0  0  0  0  0  0  0  0  0  0  0
    5.6332    2.6135   -2.9935 H   0  0  0  0  0  0  0  0  0  0  0  0
    6.7235    3.9224   -3.4506 H   0  0  0  0  0  0  0  0  0  0  0  0
    4.9699    1.8042   -1.2509 H   0  0  0  0  0  0  0  0  0  0  0  0
    3.6789   -0.0975   -1.7562 H   0  0  0  0  0  0  0  0  0  0  0  0
    1.5299   -0.7138   -2.8085 H   0  0  0  0  0  0  0  0  0  0  0  0
  1  2  1  0
  2  3  1  0
  3  4  1  0
  4  5  1  0
  3  6  1  0
  6  7  1  0
  7  8  1  0
  8  9  1  0
  9 10  1  0
 10 11  1  0
 11 12  2  0
 12 13  1  0
 13 14  2  0
 14 15  1  0
 15 16  1  0
 15 17  2  0
 17 18  1  0
 18 19  2  0
 19 20  1  0
 20 21  1  0
 21 22  1  0
 20 23  2  0
 23 24  1  0
 24 25  1  0
 25 26  1  0
 24 27  2  0
 17 28  1  0
 28 29  2  0
 29 30  1  0
 30 31  2  0
 31 11  1  0
 29 13  1  0
 27 18  1  0
  1 32  1  0
  1 33  1  0
  1 34  1  0
  2 35  1  0
  2 36  1  0
  4 37  1  0
  4 38  1  0
  5 39  1  0
  5 40  1  0
  5 41  1  0
  6 42  1  0
  6 43  1  0
  7 44  1  0
  7 45  1  0
  8 46  1  0
  8 47  1  0
  9 48  1  0
  9 49  1  0
 10 50  1  0
 12 51  1  0
 16 52  1  0
 16 53  1  0
 19 54  1  0
 22 55  1  0
 22 56  1  0
 22 57  1  0
 23 58  1  0
 26 59  1  0
 26 60  1  0
 26 61  1  0
 27 62  1  0
 28 63  1  0
 30 64  1  0
M  END
$$$$
