@<TRIPOS>MOLECULE
*****
 64 66 0 0 0
SMALL
GASTEIGER

@<TRIPOS>ATOM
      1 C          -9.1635   -0.0525    0.3596 C.3     1  UNL1       -0.0524
      2 C          -8.1353   -0.3630    1.3977 C.3     1  UNL1       -0.0040
      3 N          -6.8086   -0.1763    0.9279 N.3     1  UNL1       -0.3028
      4 C          -6.3483    1.1052    0.6608 C.3     1  UNL1       -0.0040
      5 C          -6.8815    1.8853   -0.4693 C.3     1  UNL1       -0.0524
      6 C          -6.2852   -1.2821    0.1845 C.3     1  UNL1       -0.0011
      7 C          -4.8715   -1.0424   -0.2889 C.3     1  UNL1       -0.0388
      8 C          -4.3343   -2.2267   -1.0621 C.3     1  UNL1       -0.0363
      9 C          -2.9189   -1.9262   -1.5085 C.3     1  UNL1        0.0105
     10 N          -2.1024   -1.7014   -0.3514 N.pl3   1  UNL1       -0.3290
     11 C          -0.7409   -1.3325   -0.4790 C.ar    1  UNL1        0.1207
     12 C           0.0559   -1.1035    0.6493 C.ar    1  UNL1        0.0041
     13 C           1.3751   -0.7356    0.5597 C.ar    1  UNL1        0.0778
     14 N           2.1348   -0.5088    1.6684 N.ar    1  UNL1       -0.2317
     15 C           3.4214   -0.1413    1.5930 C.ar    1  UNL1        0.1246
     16 N           4.2194    0.1007    2.7443 N.pl3   1  UNL1       -0.3426
     17 C           3.9908    0.0109    0.3527 C.ar    1  UNL1        0.0225
     18 C           5.3898    0.4249    0.2620 C.ar    1  UNL1       -0.0077
     19 C           6.3852   -0.0992    1.0412 C.ar    1  UNL1       -0.0119
     20 C           7.7292    0.3275    0.9316 C.ar    1  UNL1        0.1241
     21 O           8.6883   -0.1602    1.6663 O.3     1  UNL1       -0.4950
     22 C           9.6383   -0.6398    2.3905 C.3     1  UNL1        0.0788
     23 C           8.0151    1.3253   -0.0215 C.ar    1  UNL1        0.0218
     24 C           7.0282    1.8595   -0.8113 C.ar    1  UNL1        0.1241
     25 O           7.3131    2.8413   -1.7505 O.3     1  UNL1       -0.4950
     26 C           6.3091    3.3857   -2.5571 C.3     1  UNL1        0.0788
     27 C           5.7639    1.3961   -0.6432 C.ar    1  UNL1       -0.0119
     28 C           3.2412   -0.2138   -0.7736 C.ar    1  UNL1       -0.0401
     29 C           1.9207   -0.5911   -0.7104 C.ar    1  UNL1        0.0193
     30 C           1.1273   -0.8199   -1.8158 C.ar    1  UNL1        0.0389
     31 N          -0.1639   -1.1791   -1.6740 N.ar    1  UNL1       -0.2398
     32 H          -8.7577   -0.1540   -0.6675 H       1  UNL1        0.0242
     33 H         -10.0719   -0.6979    0.4987 H       1  UNL1        0.0242
     34 H          -9.5294    0.9811    0.5194 H       1  UNL1        0.0242
     35 H          -8.2813   -1.3616    1.8683 H       1  UNL1        0.0424
     36 H          -8.2909    0.3572    2.2553 H       1  UNL1        0.0424
     37 H          -5.2195    1.0777    0.5978 H       1  UNL1        0.0424
     38 H          -6.5128    1.7298    1.5948 H       1  UNL1        0.0424
     39 H          -6.1550    2.7132   -0.7439 H       1  UNL1        0.0242
     40 H          -7.8045    2.4560   -0.2026 H       1  UNL1        0.0242
     41 H          -7.0752    1.3629   -1.4017 H       1  UNL1        0.0242
     42 H          -6.9512   -1.6109   -0.6426 H       1  UNL1        0.0426
     43 H          -6.2332   -2.1439    0.8862 H       1  UNL1        0.0426
     44 H          -4.2698   -0.8583    0.6199 H       1  UNL1        0.0278
     45 H          -4.7731   -0.1425   -0.9328 H       1  UNL1        0.0278
     46 H          -4.2413   -3.0909   -0.3434 H       1  UNL1        0.0281
     47 H          -4.9732   -2.5143   -1.8947 H       1  UNL1        0.0281
     48 H          -2.9309   -1.0319   -2.1941 H       1  UNL1        0.0461
     49 H          -2.5269   -2.7537   -2.1515 H       1  UNL1        0.0461
     50 H          -2.4966   -1.8094    0.5954 H       1  UNL1        0.1474
     51 H          -0.3998   -1.2241    1.6052 H       1  UNL1        0.0673
     52 H           4.6742    1.0160    2.9003 H       1  UNL1        0.1437
     53 H           4.3486   -0.6510    3.4417 H       1  UNL1        0.1437
     54 H           6.1470   -0.8684    1.7653 H       1  UNL1        0.0660
     55 H           9.4868   -0.5777    3.5194 H       1  UNL1        0.0660
     56 H           9.9507   -1.7315    2.1980 H       1  UNL1        0.0660
     57 H          10.6627   -0.1290    2.2965 H       1  UNL1        0.0660
     58 H           9.0508    1.6605   -0.1092 H       1  UNL1        0.0691
     59 H           5.6458    4.1008   -2.0117 H       1  UNL1        0.0660
     60 H           5.6332    2.6135   -2.9935 H       1  UNL1        0.0660
     61 H           6.7235    3.9224   -3.4506 H       1  UNL1        0.0660
     62 H           4.9699    1.8042   -1.2509 H       1  UNL1        0.0660
     63 H           3.6789   -0.0975   -1.7562 H       1  UNL1        0.0632
     64 H           1.5299   -0.7138   -2.8085 H       1  UNL1        0.0837
@<TRIPOS>BOND
     1     1     2    1
     2     2     3    1
     3     3     4    1
     4     4     5    1
     5     3     6    1
     6     6     7    1
     7     7     8    1
     8     8     9    1
     9     9    10    1
    10    10    11    1
    11    11    12   ar
    12    12    13   ar
    13    13    14   ar
    14    14    15   ar
    15    15    16    1
    16    15    17   ar
    17    17    18    1
    18    18    19   ar
    19    19    20   ar
    20    20    21    1
    21    21    22    1
    22    20    23   ar
    23    23    24   ar
    24    24    25    1
    25    25    26    1
    26    24    27   ar
    27    17    28   ar
    28    28    29   ar
    29    29    30   ar
    30    30    31   ar
    31    31    11   ar
    32    29    13   ar
    33    27    18   ar
    34     1    32    1
    35     1    33    1
    36     1    34    1
    37     2    35    1
    38     2    36    1
    39     4    37    1
    40     4    38    1
    41     5    39    1
    42     5    40    1
    43     5    41    1
    44     6    42    1
    45     6    43    1
    46     7    44    1
    47     7    45    1
    48     8    46    1
    49     8    47    1
    50     9    48    1
    51     9    49    1
    52    10    50    1
    53    12    51    1
    54    16    52    1
    55    16    53    1
    56    19    54    1
    57    22    55    1
    58    22    56    1
    59    22    57    1
    60    23    58    1
    61    26    59    1
    62    26    60    1
    63    26    61    1
    64    27    62    1
    65    28    63    1
    66    30    64    1
