
     RDKit          3D

 48 51  0  0  0  0  0  0  0  0999 V2000
   -2.8625    2.7991    0.1757 C   0  0  0  0  0  0  0  0  0  0  0  0
   -3.6505    1.5146    0.1972 C   0  0  2  0  0  0  0  0  0  0  0  0
   -4.3730    1.3359    1.5130 C   0  0  0  0  0  0  0  0  0  0  0  0
   -4.6515   -0.1206    1.5178 C   0  0  0  0  0  0  0  0  0  0  0  0
   -5.5928   -0.9065    2.1754 C   0  0  0  0  0  0  0  0  0  0  0  0
   -5.6130   -2.2692    1.9934 C   0  0  0  0  0  0  0  0  0  0  0  0
   -4.6993   -2.8722    1.1562 C   0  0  0  0  0  0  0  0  0  0  0  0
   -3.7722   -2.0813    0.5108 C   0  0  0  0  0  0  0  0  0  0  0  0
   -3.7318   -0.7043    0.6779 C   0  0  0  0  0  0  0  0  0  0  0  0
   -2.8669    0.3168    0.1080 N   0  0  0  0  0  0  0  0  0  0  0  0
   -1.5886    0.0066   -0.3723 C   0  0  0  0  0  0  0  0  0  0  0  0
   -1.1097   -1.1816   -0.3045 O   0  0  0  0  0  0  0  0  0  0  0  0
   -0.6812    0.9977   -0.9947 C   0  0  0  0  0  0  0  0  0  0  0  0
    0.6225    0.3812   -1.4093 C   0  0  0  0  0  0  0  0  0  0  0  0
    1.6710    0.3480   -0.5815 N   0  0  0  0  0  0  0  0  0  0  0  0
    2.8366   -0.2256   -1.0045 C   0  0  0  0  0  0  0  0  0  0  0  0
    3.9670   -0.2755   -0.1394 N   0  0  0  0  0  0  0  0  0  0  0  0
    3.8683    0.2196    1.2079 C   0  0  0  0  0  0  0  0  0  0  0  0
    5.1797    0.8273    1.6037 C   0  0  0  0  0  0  0  0  0  0  0  0
    6.1353   -0.2077    1.5411 O   0  0  0  0  0  0  0  0  0  0  0  0
    6.4000   -0.5356    0.2351 C   0  0  0  0  0  0  0  0  0  0  0  0
    5.2071   -0.8217   -0.6174 C   0  0  0  0  0  0  0  0  0  0  0  0
    2.9172   -0.7605   -2.2724 C   0  0  0  0  0  0  0  0  0  0  0  0
    1.8145   -0.7180   -3.1241 C   0  0  0  0  0  0  0  0  0  0  0  0
    1.8992   -1.2098   -4.2808 O   0  0  0  0  0  0  0  0  0  0  0  0
    0.7003   -0.1398   -2.6453 N   0  0  0  0  0  0  0  0  0  0  0  0
   -2.4551    3.0297   -0.8124 H   0  0  0  0  0  0  0  0  0  0  0  0
   -3.5986    3.6382    0.3815 H   0  0  0  0  0  0  0  0  0  0  0  0
   -2.1736    2.8274    1.0196 H   0  0  0  0  0  0  0  0  0  0  0  0
   -4.4191    1.4834   -0.6040 H   0  0  0  0  0  0  0  0  0  0  0  0
   -5.2994    1.9407    1.5682 H   0  0  0  0  0  0  0  0  0  0  0  0
   -3.6654    1.6214    2.3410 H   0  0  0  0  0  0  0  0  0  0  0  0
   -6.3077   -0.4154    2.8334 H   0  0  0  0  0  0  0  0  0  0  0  0
   -6.3702   -2.8619    2.5281 H   0  0  0  0  0  0  0  0  0  0  0  0
   -4.7392   -3.9401    1.0335 H   0  0  0  0  0  0  0  0  0  0  0  0
   -3.0463   -2.5421   -0.1507 H   0  0  0  0  0  0  0  0  0  0  0  0
   -0.4759    1.8033   -0.2645 H   0  0  0  0  0  0  0  0  0  0  0  0
   -1.1231    1.4259   -1.9198 H   0  0  0  0  0  0  0  0  0  0  0  0
    3.0152    0.9316    1.3287 H   0  0  0  0  0  0  0  0  0  0  0  0
    3.6990   -0.6693    1.8641 H   0  0  0  0  0  0  0  0  0  0  0  0
    5.4375    1.6532    0.8975 H   0  0  0  0  0  0  0  0  0  0  0  0
    5.1810    1.2585    2.6179 H   0  0  0  0  0  0  0  0  0  0  0  0
    7.0573   -1.4389    0.2496 H   0  0  0  0  0  0  0  0  0  0  0  0
    7.0365    0.2797   -0.1873 H   0  0  0  0  0  0  0  0  0  0  0  0
    5.0556   -1.9408   -0.6235 H   0  0  0  0  0  0  0  0  0  0  0  0
    5.4430   -0.4619   -1.6482 H   0  0  0  0  0  0  0  0  0  0  0  0
    3.8505   -1.2276   -2.6253 H   0  0  0  0  0  0  0  0  0  0  0  0
   -0.1276   -0.1119   -3.2946 H   0  0  0  0  0  0  0  0  0  0  0  0
  1  2  1  0
  2  3  1  0
  3  4  1  0
  4  5  2  0
  5  6  1  0
  6  7  2  0
  7  8  1  0
  8  9  2  0
  9 10  1  0
 10 11  1  0
 11 12  2  0
 11 13  1  0
 13 14  1  0
 14 15  2  0
 15 16  1  0
 16 17  1  0
 17 18  1  0
 18 19  1  0
 19 20  1  0
 20 21  1  0
 21 22  1  0
 16 23  2  0
 23 24  1  0
 24 25  2  0
 24 26  1  0
 10  2  1  0
 26 14  1  0
  9  4  1  0
 22 17  1  0
  1 27  1  0
  1 28  1  0
  1 29  1  0
  2 30  1  6
  3 31  1  0
  3 32  1  0
  5 33  1  0
  6 34  1  0
  7 35  1  0
  8 36  1  0
 13 37  1  0
 13 38  1  0
 18 39  1  0
 18 40  1  0
 19 41  1  0
 19 42  1  0
 21 43  1  0
 21 44  1  0
 22 45  1  0
 22 46  1  0
 23 47  1  0
 26 48  1  0
M  END
$$$$
