@<TRIPOS>MOLECULE
*****
 48 51 0 0 0
SMALL
GASTEIGER

@<TRIPOS>ATOM
      1 C          -2.8625    2.7991    0.1757 C.3     1  UNL1       -0.0457
      2 C          -3.6505    1.5146    0.1972 C.3     1  UNL1        0.0323
      3 C          -4.3730    1.3359    1.5130 C.3     1  UNL1       -0.0071
      4 C          -4.6515   -0.1206    1.5178 C.ar    1  UNL1       -0.0242
      5 C          -5.5928   -0.9065    2.1754 C.ar    1  UNL1       -0.0567
      6 C          -5.6130   -2.2692    1.9934 C.ar    1  UNL1       -0.0614
      7 C          -4.6993   -2.8722    1.1562 C.ar    1  UNL1       -0.0600
      8 C          -3.7722   -2.0813    0.5108 C.ar    1  UNL1       -0.0400
      9 C          -3.7318   -0.7043    0.6779 C.ar    1  UNL1        0.0398
     10 N          -2.8669    0.3168    0.1080 N.am    1  UNL1       -0.2677
     11 C          -1.5886    0.0066   -0.3723 C.2     1  UNL1        0.2273
     12 O          -1.1097   -1.1816   -0.3045 O.2     1  UNL1       -0.2748
     13 C          -0.6812    0.9977   -0.9947 C.3     1  UNL1        0.0826
     14 C           0.6225    0.3812   -1.4093 C.ar    1  UNL1        0.1206
     15 N           1.6710    0.3480   -0.5815 N.ar    1  UNL1       -0.2186
     16 C           2.8366   -0.2256   -1.0045 C.ar    1  UNL1        0.1285
     17 N           3.9670   -0.2755   -0.1394 N.pl3   1  UNL1       -0.3106
     18 C           3.8683    0.2196    1.2079 C.3     1  UNL1        0.0370
     19 C           5.1797    0.8273    1.6037 C.3     1  UNL1        0.0634
     20 O           6.1353   -0.2077    1.5411 O.3     1  UNL1       -0.3767
     21 C           6.4000   -0.5356    0.2351 C.3     1  UNL1        0.0634
     22 C           5.2071   -0.8217   -0.6174 C.3     1  UNL1        0.0370
     23 C           2.9172   -0.7605   -2.2724 C.ar    1  UNL1        0.0427
     24 C           1.8145   -0.7180   -3.1241 C.ar    1  UNL1        0.2533
     25 O           1.8992   -1.2098   -4.2808 O.2     1  UNL1       -0.2677
     26 N           0.7003   -0.1398   -2.6453 N.ar    1  UNL1       -0.3104
     27 H          -2.4551    3.0297   -0.8124 H       1  UNL1        0.0248
     28 H          -3.5986    3.6382    0.3815 H       1  UNL1        0.0248
     29 H          -2.1736    2.8274    1.0196 H       1  UNL1        0.0248
     30 H          -4.4191    1.4834   -0.6040 H       1  UNL1        0.0505
     31 H          -5.2994    1.9407    1.5682 H       1  UNL1        0.0332
     32 H          -3.6654    1.6214    2.3410 H       1  UNL1        0.0332
     33 H          -6.3077   -0.4154    2.8334 H       1  UNL1        0.0621
     34 H          -6.3702   -2.8619    2.5281 H       1  UNL1        0.0618
     35 H          -4.7392   -3.9401    1.0335 H       1  UNL1        0.0618
     36 H          -3.0463   -2.5421   -0.1507 H       1  UNL1        0.0636
     37 H          -0.4759    1.8033   -0.2645 H       1  UNL1        0.0438
     38 H          -1.1231    1.4259   -1.9198 H       1  UNL1        0.0438
     39 H           3.0152    0.9316    1.3287 H       1  UNL1        0.0487
     40 H           3.6990   -0.6693    1.8641 H       1  UNL1        0.0487
     41 H           5.4375    1.6532    0.8975 H       1  UNL1        0.0575
     42 H           5.1810    1.2585    2.6179 H       1  UNL1        0.0575
     43 H           7.0573   -1.4389    0.2496 H       1  UNL1        0.0575
     44 H           7.0365    0.2797   -0.1873 H       1  UNL1        0.0575
     45 H           5.0556   -1.9408   -0.6235 H       1  UNL1        0.0487
     46 H           5.4430   -0.4619   -1.6482 H       1  UNL1        0.0487
     47 H           3.8505   -1.2276   -2.6253 H       1  UNL1        0.0706
     48 H          -0.1276   -0.1119   -3.2946 H       1  UNL1        0.1700
@<TRIPOS>BOND
     1     1     2    1
     2     2     3    1
     3     3     4    1
     4     4     5   ar
     5     5     6   ar
     6     6     7   ar
     7     7     8   ar
     8     8     9   ar
     9     9    10    1
    10    10    11   am
    11    11    12    2
    12    11    13    1
    13    13    14    1
    14    14    15   ar
    15    15    16   ar
    16    16    17    1
    17    17    18    1
    18    18    19    1
    19    19    20    1
    20    20    21    1
    21    21    22    1
    22    16    23   ar
    23    23    24   ar
    24    24    25    2
    25    24    26   ar
    26    10     2    1
    27    26    14   ar
    28     9     4   ar
    29    22    17    1
    30     1    27    1
    31     1    28    1
    32     1    29    1
    33     2    30    1
    34     3    31    1
    35     3    32    1
    36     5    33    1
    37     6    34    1
    38     7    35    1
    39     8    36    1
    40    13    37    1
    41    13    38    1
    42    18    39    1
    43    18    40    1
    44    19    41    1
    45    19    42    1
    46    21    43    1
    47    21    44    1
    48    22    45    1
    49    22    46    1
    50    23    47    1
    51    26    48    1
