@<TRIPOS>MOLECULE
*****
 68 71 0 0 0
SMALL
GASTEIGER

@<TRIPOS>ATOM
      1 C           8.9819    1.2829    0.0651 C.3     1  UNL1       -0.0345
      2 C           7.8308    0.4129   -0.2812 C.ar    1  UNL1        0.0175
      3 C           6.5561    0.5965    0.2467 C.ar    1  UNL1       -0.0259
      4 C           5.5112   -0.2241   -0.0934 C.ar    1  UNL1        0.0918
      5 C           4.1750   -0.0434    0.4523 C.ar    1  UNL1        0.0021
      6 C           3.8539    0.9530    1.3408 C.ar    1  UNL1       -0.0522
      7 C           2.5643    1.0804    1.8294 C.ar    1  UNL1       -0.0562
      8 C           1.5345    0.2164    1.4518 C.ar    1  UNL1       -0.0271
      9 C           0.2038    0.3687    2.0086 C.3     1  UNL1        0.0515
     10 C          -0.2583   -0.9209    2.7212 C.3     1  UNL1       -0.0421
     11 N          -0.8618    0.6650    1.0738 N.am    1  UNL1       -0.2605
     12 C          -1.1173   -0.1179   -0.1096 C.3     1  UNL1        0.0224
     13 C          -2.2851    0.4346   -0.8489 C.3     1  UNL1        0.0076
     14 C          -3.4793    0.7688   -0.0190 C.3     1  UNL1        0.1440
     15 C          -4.0289   -0.3734    0.7737 C.3     1  UNL1        0.0199
     16 C          -4.5027   -1.5600    0.0376 C.3     1  UNL1        0.0645
     17 C          -4.9986   -2.5507    1.1097 C.3     1  UNL1       -0.0362
     18 C          -5.7183   -1.3196   -0.8308 C.3     1  UNL1       -0.0362
     19 O          -3.5758   -2.2398   -0.7150 O.3     1  UNL1       -0.3890
     20 C          -4.5230    1.4939   -0.7769 C.ar    1  UNL1       -0.0040
     21 C          -4.3447    1.7556   -2.1064 C.ar    1  UNL1       -0.0548
     22 C          -5.2972    2.4341   -2.8386 C.ar    1  UNL1       -0.0614
     23 C          -6.4758    2.8684   -2.2167 C.ar    1  UNL1       -0.0617
     24 C          -6.6717    2.6125   -0.8762 C.ar    1  UNL1       -0.0614
     25 C          -5.6889    1.9321   -0.1944 C.ar    1  UNL1       -0.0548
     26 O          -3.0247    1.7272    0.9561 O.3     1  UNL1       -0.4387
     27 C          -1.6969    1.7860    1.3237 C.2     1  UNL1        0.4042
     28 O          -1.2723    2.8351    1.8701 O.2     1  UNL1       -0.2262
     29 C           1.8681   -0.7694    0.5691 C.ar    1  UNL1       -0.0562
     30 C           3.1672   -0.9092    0.0673 C.ar    1  UNL1       -0.0522
     31 N           5.7611   -1.2198   -0.9607 N.ar    1  UNL1       -0.1685
     32 N           6.9615   -1.4255   -1.4839 N.ar    1  UNL1       -0.2318
     33 C           7.1960   -2.5123   -2.4197 C.3     1  UNL1        0.0340
     34 C           8.0093   -0.6290   -1.1639 C.ar    1  UNL1        0.2699
     35 O           9.1420   -0.8360   -1.6678 O.2     1  UNL1       -0.2659
     36 H           9.4481    1.7048   -0.8541 H       1  UNL1        0.0279
     37 H           8.7161    2.0394    0.8091 H       1  UNL1        0.0279
     38 H           9.7522    0.6057    0.5325 H       1  UNL1        0.0279
     39 H           6.4370    1.4091    0.9289 H       1  UNL1        0.0644
     40 H           4.5989    1.6626    1.6810 H       1  UNL1        0.0624
     41 H           2.2937    1.8590    2.5296 H       1  UNL1        0.0621
     42 H           0.1976    1.1306    2.8146 H       1  UNL1        0.0549
     43 H           0.3320   -1.0780    3.6416 H       1  UNL1        0.0251
     44 H          -0.1166   -1.7332    1.9909 H       1  UNL1        0.0251
     45 H          -1.3323   -0.7634    2.9462 H       1  UNL1        0.0251
     46 H          -0.2226    0.0788   -0.7810 H       1  UNL1        0.0467
     47 H          -1.1976   -1.2014    0.1068 H       1  UNL1        0.0467
     48 H          -2.4917   -0.1987   -1.7173 H       1  UNL1        0.0322
     49 H          -1.9301    1.4218   -1.2814 H       1  UNL1        0.0322
     50 H          -3.2170   -0.7082    1.4671 H       1  UNL1        0.0335
     51 H          -4.8417   -0.0149    1.4275 H       1  UNL1        0.0335
     52 H          -4.1883   -2.8426    1.7880 H       1  UNL1        0.0257
     53 H          -5.4697   -3.3811    0.5632 H       1  UNL1        0.0257
     54 H          -5.8154   -2.0140    1.6364 H       1  UNL1        0.0257
     55 H          -6.5447   -0.8287   -0.3128 H       1  UNL1        0.0257
     56 H          -5.4662   -0.8936   -1.8229 H       1  UNL1        0.0257
     57 H          -6.1063   -2.3555   -1.0736 H       1  UNL1        0.0257
     58 H          -3.2781   -3.0813   -0.2949 H       1  UNL1        0.2101
     59 H          -3.4506    1.4273   -2.5956 H       1  UNL1        0.0622
     60 H          -5.1812    2.6529   -3.8867 H       1  UNL1        0.0618
     61 H          -7.1961    3.3960   -2.8243 H       1  UNL1        0.0618
     62 H          -7.5878    2.9553   -0.4137 H       1  UNL1        0.0618
     63 H          -5.8509    1.7361    0.8561 H       1  UNL1        0.0622
     64 H           1.1418   -1.4996    0.2311 H       1  UNL1        0.0621
     65 H           3.4079   -1.6981   -0.6320 H       1  UNL1        0.0624
     66 H           6.8027   -2.1848   -3.4030 H       1  UNL1        0.0474
     67 H           6.6070   -3.3861   -2.0207 H       1  UNL1        0.0474
     68 H           8.2541   -2.7892   -2.4812 H       1  UNL1        0.0474
@<TRIPOS>BOND
     1     1     2    1
     2     2     3   ar
     3     3     4   ar
     4     4     5    1
     5     5     6   ar
     6     6     7   ar
     7     7     8   ar
     8     8     9    1
     9     9    10    1
    10     9    11    1
    11    11    12    1
    12    12    13    1
    13    13    14    1
    14    14    15    1
    15    15    16    1
    16    16    17    1
    17    16    18    1
    18    16    19    1
    19    14    20    1
    20    20    21   ar
    21    21    22   ar
    22    22    23   ar
    23    23    24   ar
    24    24    25   ar
    25    14    26    1
    26    26    27    1
    27    27    28    2
    28     8    29   ar
    29    29    30   ar
    30     4    31   ar
    31    31    32   ar
    32    32    33    1
    33    32    34   ar
    34    34    35    2
    35    34     2   ar
    36    30     5   ar
    37    27    11   am
    38    25    20   ar
    39     1    36    1
    40     1    37    1
    41     1    38    1
    42     3    39    1
    43     6    40    1
    44     7    41    1
    45     9    42    1
    46    10    43    1
    47    10    44    1
    48    10    45    1
    49    12    46    1
    50    12    47    1
    51    13    48    1
    52    13    49    1
    53    15    50    1
    54    15    51    1
    55    17    52    1
    56    17    53    1
    57    17    54    1
    58    18    55    1
    59    18    56    1
    60    18    57    1
    61    19    58    1
    62    21    59    1
    63    22    60    1
    64    23    61    1
    65    24    62    1
    66    25    63    1
    67    29    64    1
    68    30    65    1
    69    33    66    1
    70    33    67    1
    71    33    68    1
