@<TRIPOS>MOLECULE
*****
 60 63 0 0 0
SMALL
GASTEIGER

@<TRIPOS>ATOM
      1 C          -2.0233   -6.2348    1.8638 C.3     1  UNL1        0.0788
      2 O          -1.6264   -5.1636    1.0664 O.3     1  UNL1       -0.4951
      3 C          -2.4255   -4.0580    0.8028 C.ar    1  UNL1        0.1204
      4 C          -3.6917   -3.9543    1.3287 C.ar    1  UNL1       -0.0199
      5 C          -4.4193   -2.8241    1.0177 C.ar    1  UNL1       -0.0580
      6 C          -3.9128   -1.8232    0.2104 C.ar    1  UNL1       -0.0568
      7 C          -2.6254   -1.9250   -0.3261 C.ar    1  UNL1       -0.0266
      8 C          -2.1376   -0.8187   -1.1822 C.3     1  UNL1        0.0413
      9 N          -1.4318    0.2163   -0.4561 N.am    1  UNL1       -0.2798
     10 C          -2.1953    1.3189    0.1620 C.3     1  UNL1        0.0293
     11 C          -2.2956    2.4201   -0.8956 C.3     1  UNL1        0.0148
     12 N          -3.0377    3.5142   -0.3219 N.3     1  UNL1       -0.3008
     13 C          -3.2007    4.6158   -1.2186 C.3     1  UNL1       -0.0010
     14 C          -2.2784    5.7161   -0.7049 C.3     1  UNL1       -0.0390
     15 C          -2.4000    5.4891    0.7933 C.3     1  UNL1       -0.0390
     16 C          -2.3552    3.9768    0.8501 C.3     1  UNL1       -0.0010
     17 C          -0.0347    0.2260   -0.3144 C.2     1  UNL1        0.3068
     18 O           0.5135    1.1347    0.3550 O.2     1  UNL1       -0.2523
     19 N           0.7943   -0.7480   -0.8970 N.am    1  UNL1       -0.2693
     20 C           2.2338   -0.7135   -0.7304 C.ar    1  UNL1        0.0348
     21 C           2.8311   -1.3702    0.3327 C.ar    1  UNL1       -0.0399
     22 C           4.1978   -1.3533    0.5165 C.ar    1  UNL1       -0.0522
     23 C           4.9576   -0.6526   -0.4045 C.ar    1  UNL1       -0.0148
     24 C           6.4123   -0.6409   -0.2000 C.ar    1  UNL1        0.0193
     25 C           7.4034   -0.5725   -1.1539 C.ar    1  UNL1        0.0568
     26 N           8.5898   -0.5905   -0.4928 N.ar    1  UNL1       -0.1817
     27 N           8.4010   -0.6652    0.8026 N.ar    1  UNL1       -0.2841
     28 C           7.0533   -0.6980    1.0130 C.ar    1  UNL1        0.0300
     29 C           4.3736    0.0068   -1.4696 C.ar    1  UNL1       -0.0522
     30 C           3.0020   -0.0247   -1.6325 C.ar    1  UNL1       -0.0399
     31 C          -1.9128   -3.0540   -0.0091 C.ar    1  UNL1       -0.0153
     32 H          -3.0850   -6.4748    1.8434 H       1  UNL1        0.0660
     33 H          -1.7447   -5.9942    2.9294 H       1  UNL1        0.0660
     34 H          -1.4218   -7.1286    1.5245 H       1  UNL1        0.0660
     35 H          -4.1195   -4.7236    1.9672 H       1  UNL1        0.0654
     36 H          -5.4237   -2.7450    1.4364 H       1  UNL1        0.0619
     37 H          -4.5014   -0.9349   -0.0319 H       1  UNL1        0.0621
     38 H          -1.5410   -1.2499   -1.9882 H       1  UNL1        0.0514
     39 H          -3.0100   -0.3146   -1.6972 H       1  UNL1        0.0514
     40 H          -3.2071    0.9895    0.4653 H       1  UNL1        0.0478
     41 H          -1.5896    1.6693    1.0162 H       1  UNL1        0.0478
     42 H          -1.2869    2.7920   -1.1317 H       1  UNL1        0.0442
     43 H          -2.7315    2.0203   -1.8185 H       1  UNL1        0.0442
     44 H          -2.9773    4.3696   -2.2730 H       1  UNL1        0.0426
     45 H          -4.2409    5.0322   -1.1256 H       1  UNL1        0.0426
     46 H          -2.6211    6.7060   -1.0149 H       1  UNL1        0.0278
     47 H          -1.2259    5.4921   -1.0171 H       1  UNL1        0.0278
     48 H          -3.3909    5.8374    1.1223 H       1  UNL1        0.0278
     49 H          -1.5668    5.9542    1.3498 H       1  UNL1        0.0278
     50 H          -1.2668    3.6897    0.7749 H       1  UNL1        0.0426
     51 H          -2.8042    3.6187    1.7944 H       1  UNL1        0.0426
     52 H           0.3789   -1.5078   -1.4667 H       1  UNL1        0.1564
     53 H           2.2067   -1.9023    1.0255 H       1  UNL1        0.0636
     54 H           4.6851   -1.8646    1.3480 H       1  UNL1        0.0624
     55 H           7.2443   -0.5161   -2.2116 H       1  UNL1        0.0854
     56 H           9.1609   -0.6927    1.5179 H       1  UNL1        0.1882
     57 H           6.6375   -0.7597    2.0115 H       1  UNL1        0.0830
     58 H           5.0233    0.5391   -2.1584 H       1  UNL1        0.0624
     59 H           2.5700    0.5026   -2.4791 H       1  UNL1        0.0636
     60 H          -0.9101   -3.1536   -0.4183 H       1  UNL1        0.0657
@<TRIPOS>BOND
     1     1     2    1
     2     2     3    1
     3     3     4   ar
     4     4     5   ar
     5     5     6   ar
     6     6     7   ar
     7     7     8    1
     8     8     9    1
     9     9    10    1
    10    10    11    1
    11    11    12    1
    12    12    13    1
    13    13    14    1
    14    14    15    1
    15    15    16    1
    16     9    17   am
    17    17    18    2
    18    17    19   am
    19    19    20    1
    20    20    21   ar
    21    21    22   ar
    22    22    23   ar
    23    23    24    1
    24    24    25   ar
    25    25    26   ar
    26    26    27   ar
    27    27    28   ar
    28    23    29   ar
    29    29    30   ar
    30     7    31   ar
    31    31     3   ar
    32    16    12    1
    33    30    20   ar
    34    28    24   ar
    35     1    32    1
    36     1    33    1
    37     1    34    1
    38     4    35    1
    39     5    36    1
    40     6    37    1
    41     8    38    1
    42     8    39    1
    43    10    40    1
    44    10    41    1
    45    11    42    1
    46    11    43    1
    47    13    44    1
    48    13    45    1
    49    14    46    1
    50    14    47    1
    51    15    48    1
    52    15    49    1
    53    16    50    1
    54    16    51    1
    55    19    52    1
    56    21    53    1
    57    22    54    1
    58    25    55    1
    59    27    56    1
    60    28    57    1
    61    29    58    1
    62    30    59    1
    63    31    60    1
