
     RDKit          3D

 42 46  0  0  0  0  0  0  0  0999 V2000
   -6.3079   -0.4357    2.0047 O   0  0  0  0  0  0  0  0  0  0  0  0
   -5.7452   -0.0757    0.9401 C   0  0  0  0  0  0  0  0  0  0  0  0
   -6.4861    0.3559   -0.2152 N   0  0  0  0  0  0  0  0  0  0  0  0
   -5.8323    0.1456   -1.4961 C   0  0  0  0  0  0  0  0  0  0  0  0
   -4.4493    0.7611   -1.5333 C   0  0  0  0  0  0  0  0  0  0  0  0
   -3.6633    0.3230   -0.3631 C   0  0  0  0  0  0  0  0  0  0  0  0
   -4.2792   -0.0765    0.8174 C   0  0  0  0  0  0  0  0  0  0  0  0
   -3.3428   -0.4399    1.7639 C   0  0  0  0  0  0  0  0  0  0  0  0
   -2.1336   -0.2515    1.1290 C   0  0  0  0  0  0  0  0  0  0  0  0
   -2.3315    0.1952   -0.1156 N   0  0  0  0  0  0  0  0  0  0  0  0
   -0.8249   -0.5055    1.7349 C   0  0  0  0  0  0  0  0  0  0  0  0
    0.3368   -0.2887    1.0241 C   0  0  0  0  0  0  0  0  0  0  0  0
    1.6094   -0.4995    1.5111 C   0  0  0  0  0  0  0  0  0  0  0  0
    1.6616   -0.9497    2.7780 N   0  0  0  0  0  0  0  0  0  0  0  0
    0.5577   -1.1729    3.5020 C   0  0  0  0  0  0  0  0  0  0  0  0
   -0.7219   -0.9675    3.0309 C   0  0  0  0  0  0  0  0  0  0  0  0
    2.8131   -0.2573    0.7248 C   0  0  0  0  0  0  0  0  0  0  0  0
    2.8370    0.2027   -0.5761 C   0  0  0  0  0  0  0  0  0  0  0  0
    4.0621    0.3927   -1.2170 C   0  0  0  0  0  0  0  0  0  0  0  0
    5.2746    0.1294   -0.5763 C   0  0  0  0  0  0  0  0  0  0  0  0
    6.4865    0.3200   -1.2177 C   0  0  0  0  0  0  0  0  0  0  0  0
    6.5077    0.7798   -2.5180 C   0  0  0  0  0  0  0  0  0  0  0  0
    5.3131    1.0492   -3.1771 C   0  0  0  0  0  0  0  0  0  0  0  0
    4.1020    0.8519   -2.5171 C   0  0  0  0  0  0  0  0  0  0  0  0
    5.2215   -0.3242    0.7091 N   0  0  0  0  0  0  0  0  0  0  0  0
    4.0325   -0.5051    1.3209 C   0  0  0  0  0  0  0  0  0  0  0  0
   -7.4336    0.7852   -0.0396 H   0  0  0  0  0  0  0  0  0  0  0  0
   -5.7464   -0.9500   -1.6379 H   0  0  0  0  0  0  0  0  0  0  0  0
   -6.4856    0.6049   -2.2619 H   0  0  0  0  0  0  0  0  0  0  0  0
   -4.5882    1.8656   -1.5633 H   0  0  0  0  0  0  0  0  0  0  0  0
   -3.9718    0.4472   -2.4689 H   0  0  0  0  0  0  0  0  0  0  0  0
   -3.5140   -0.7872    2.7594 H   0  0  0  0  0  0  0  0  0  0  0  0
   -1.6407    0.4405   -0.8670 H   0  0  0  0  0  0  0  0  0  0  0  0
    0.2007    0.0729    0.0144 H   0  0  0  0  0  0  0  0  0  0  0  0
    0.7482   -1.5352    4.5091 H   0  0  0  0  0  0  0  0  0  0  0  0
   -1.5752   -1.1568    3.6380 H   0  0  0  0  0  0  0  0  0  0  0  0
    1.9074    0.3987   -1.0507 H   0  0  0  0  0  0  0  0  0  0  0  0
    7.3819    0.0839   -0.6272 H   0  0  0  0  0  0  0  0  0  0  0  0
    7.4724    0.9172   -2.9879 H   0  0  0  0  0  0  0  0  0  0  0  0
    5.3127    1.4082   -4.1909 H   0  0  0  0  0  0  0  0  0  0  0  0
    3.1751    1.0640   -3.0372 H   0  0  0  0  0  0  0  0  0  0  0  0
    4.0596   -0.8679    2.3432 H   0  0  0  0  0  0  0  0  0  0  0  0
  1  2  2  0
  2  3  1  0
  3  4  1  0
  4  5  1  0
  5  6  1  0
  6  7  2  0
  7  8  1  0
  8  9  2  0
  9 10  1  0
  9 11  1  0
 11 12  2  0
 12 13  1  0
 13 14  2  0
 14 15  1  0
 15 16  2  0
 13 17  1  0
 17 18  2  0
 18 19  1  0
 19 20  2  0
 20 21  1  0
 21 22  2  0
 22 23  1  0
 23 24  2  0
 20 25  1  0
 25 26  2  0
  7  2  1  0
 16 11  1  0
 26 17  1  0
 10  6  1  0
 24 19  1  0
  3 27  1  0
  4 28  1  0
  4 29  1  0
  5 30  1  0
  5 31  1  0
  8 32  1  0
 10 33  1  0
 12 34  1  0
 15 35  1  0
 16 36  1  0
 18 37  1  0
 21 38  1  0
 22 39  1  0
 23 40  1  0
 24 41  1  0
 26 42  1  0
M  END
$$$$
