@<TRIPOS>MOLECULE
*****
 42 46 0 0 0
SMALL
GASTEIGER

@<TRIPOS>ATOM
      1 O          -6.3079   -0.4357    2.0047 O.2     1  UNL1       -0.2701
      2 C          -5.7452   -0.0757    0.9401 C.2     1  UNL1        0.2458
      3 N          -6.4861    0.3559   -0.2152 N.am    1  UNL1       -0.3109
      4 C          -5.8323    0.1456   -1.4961 C.3     1  UNL1        0.0172
      5 C          -4.4493    0.7611   -1.5333 C.3     1  UNL1        0.0038
      6 C          -3.6633    0.3230   -0.3631 C.ar    1  UNL1        0.0301
      7 C          -4.2792   -0.0765    0.8174 C.ar    1  UNL1        0.0578
      8 C          -3.3428   -0.4399    1.7639 C.ar    1  UNL1       -0.0240
      9 C          -2.1336   -0.2515    1.1290 C.ar    1  UNL1        0.0475
     10 N          -2.3315    0.1952   -0.1156 N.ar    1  UNL1       -0.3573
     11 C          -0.8249   -0.5055    1.7349 C.ar    1  UNL1        0.0018
     12 C           0.3368   -0.2887    1.0241 C.ar    1  UNL1       -0.0265
     13 C           1.6094   -0.4995    1.5111 C.ar    1  UNL1        0.0730
     14 N           1.6616   -0.9497    2.7780 N.ar    1  UNL1       -0.2549
     15 C           0.5577   -1.1729    3.5020 C.ar    1  UNL1        0.0289
     16 C          -0.7219   -0.9675    3.0309 C.ar    1  UNL1       -0.0344
     17 C           2.8131   -0.2573    0.7248 C.ar    1  UNL1        0.0190
     18 C           2.8370    0.2027   -0.5761 C.ar    1  UNL1       -0.0419
     19 C           4.0621    0.3927   -1.2170 C.ar    1  UNL1        0.0010
     20 C           5.2746    0.1294   -0.5763 C.ar    1  UNL1        0.0710
     21 C           6.4865    0.3200   -1.2177 C.ar    1  UNL1       -0.0357
     22 C           6.5077    0.7798   -2.5180 C.ar    1  UNL1       -0.0597
     23 C           5.3131    1.0492   -3.1771 C.ar    1  UNL1       -0.0611
     24 C           4.1020    0.8519   -2.5171 C.ar    1  UNL1       -0.0525
     25 N           5.2215   -0.3242    0.7091 N.ar    1  UNL1       -0.2543
     26 C           4.0325   -0.5051    1.3209 C.ar    1  UNL1        0.0374
     27 H          -7.4336    0.7852   -0.0396 H       1  UNL1        0.1490
     28 H          -5.7464   -0.9500   -1.6379 H       1  UNL1        0.0466
     29 H          -6.4856    0.6049   -2.2619 H       1  UNL1        0.0466
     30 H          -4.5882    1.8656   -1.5633 H       1  UNL1        0.0343
     31 H          -3.9718    0.4472   -2.4689 H       1  UNL1        0.0343
     32 H          -3.5140   -0.7872    2.7594 H       1  UNL1        0.0646
     33 H          -1.6407    0.4405   -0.8670 H       1  UNL1        0.1656
     34 H           0.2007    0.0729    0.0144 H       1  UNL1        0.0645
     35 H           0.7482   -1.5352    4.5091 H       1  UNL1        0.0830
     36 H          -1.5752   -1.1568    3.6380 H       1  UNL1        0.0639
     37 H           1.9074    0.3987   -1.0507 H       1  UNL1        0.0631
     38 H           7.3819    0.0839   -0.6272 H       1  UNL1        0.0639
     39 H           7.4724    0.9172   -2.9879 H       1  UNL1        0.0618
     40 H           5.3127    1.4082   -4.1909 H       1  UNL1        0.0618
     41 H           3.1751    1.0640   -3.0372 H       1  UNL1        0.0624
     42 H           4.0596   -0.8679    2.3432 H       1  UNL1        0.0836
@<TRIPOS>BOND
     1     1     2    2
     2     2     3   am
     3     3     4    1
     4     4     5    1
     5     5     6    1
     6     6     7   ar
     7     7     8   ar
     8     8     9   ar
     9     9    10   ar
    10     9    11    1
    11    11    12   ar
    12    12    13   ar
    13    13    14   ar
    14    14    15   ar
    15    15    16   ar
    16    13    17    1
    17    17    18   ar
    18    18    19   ar
    19    19    20   ar
    20    20    21   ar
    21    21    22   ar
    22    22    23   ar
    23    23    24   ar
    24    20    25   ar
    25    25    26   ar
    26     7     2    1
    27    16    11   ar
    28    26    17   ar
    29    10     6   ar
    30    24    19   ar
    31     3    27    1
    32     4    28    1
    33     4    29    1
    34     5    30    1
    35     5    31    1
    36     8    32    1
    37    10    33    1
    38    12    34    1
    39    15    35    1
    40    16    36    1
    41    18    37    1
    42    21    38    1
    43    22    39    1
    44    23    40    1
    45    24    41    1
    46    26    42    1
