@<TRIPOS>MOLECULE
*****
 42 43 0 0 0
SMALL
GASTEIGER

@<TRIPOS>ATOM
      1 C          -3.3099   -0.8318    1.5230 C.3     1  UNL1       -0.0607
      2 C          -2.9506    0.2993    0.5852 C.3     1  UNL1       -0.0194
      3 C          -3.9396    1.4299    0.7836 C.3     1  UNL1       -0.0607
      4 C          -2.9974   -0.2402   -0.8250 C.3     1  UNL1        0.1276
      5 N          -2.6639    0.7706   -1.7881 N.3     1  UNL1       -0.1759
      6 S          -1.2690    0.4324   -2.7032 S.O2    1  UNL1        0.0591
      7 O          -1.0823    1.5385   -3.7026 O.2     1  UNL1       -0.1530
      8 O          -1.4683   -0.8344   -3.4764 O.2     1  UNL1       -0.1530
      9 C           0.1745    0.2910   -1.7602 C.ar    1  UNL1        0.1053
     10 C           0.9740    1.3862   -1.4962 C.ar    1  UNL1       -0.0348
     11 C           2.1214    1.2342   -0.7376 C.ar    1  UNL1       -0.0522
     12 C           2.5119    0.0024   -0.2195 C.ar    1  UNL1       -0.0178
     13 C           3.7274   -0.0855    0.5675 C.ar    1  UNL1       -0.0179
     14 C           4.1767    0.9493    1.3600 C.ar    1  UNL1       -0.0540
     15 C           5.3421    0.8436    2.1044 C.ar    1  UNL1       -0.0612
     16 C           6.0816   -0.3062    2.0678 C.ar    1  UNL1       -0.0617
     17 C           5.6556   -1.3478    1.2879 C.ar    1  UNL1       -0.0612
     18 C           4.4920   -1.2322    0.5495 C.ar    1  UNL1       -0.0540
     19 C           1.7142   -1.0798   -0.4853 C.ar    1  UNL1       -0.0522
     20 C           0.5680   -0.9400   -1.2404 C.ar    1  UNL1       -0.0348
     21 C          -4.3732   -0.7202   -1.0858 C.2     1  UNL1        0.3238
     22 O          -5.0141   -0.2060   -2.0422 O.2     1  UNL1       -0.2492
     23 O          -4.9757   -1.7124   -0.3152 O.3     1  UNL1       -0.4795
     24 H          -4.4009   -0.8313    1.7633 H       1  UNL1        0.0233
     25 H          -3.0784   -1.7959    1.0322 H       1  UNL1        0.0233
     26 H          -2.7378   -0.7423    2.4890 H       1  UNL1        0.0233
     27 H          -1.9514    0.6617    0.8543 H       1  UNL1        0.0316
     28 H          -4.3199    1.3762    1.8395 H       1  UNL1        0.0233
     29 H          -3.4850    2.4187    0.6478 H       1  UNL1        0.0233
     30 H          -4.8231    1.2764    0.1455 H       1  UNL1        0.0233
     31 H          -2.2550   -1.0791   -0.8617 H       1  UNL1        0.0595
     32 H          -2.7629    1.7365   -1.4644 H       1  UNL1        0.1489
     33 H           0.7090    2.3759   -1.8817 H       1  UNL1        0.0637
     34 H           2.7391    2.0989   -0.5376 H       1  UNL1        0.0624
     35 H           3.6312    1.8766    1.4240 H       1  UNL1        0.0624
     36 H           5.6610    1.6819    2.7159 H       1  UNL1        0.0618
     37 H           7.0009   -0.4004    2.6500 H       1  UNL1        0.0618
     38 H           6.2650   -2.2483    1.2798 H       1  UNL1        0.0618
     39 H           4.1853   -2.0628   -0.0499 H       1  UNL1        0.0624
     40 H           2.0063   -2.0447   -0.0882 H       1  UNL1        0.0624
     41 H          -0.0509   -1.8188   -1.4381 H       1  UNL1        0.0637
     42 H          -5.8278   -2.1204   -0.6793 H       1  UNL1        0.2951
@<TRIPOS>BOND
     1     1     2    1
     2     2     3    1
     3     2     4    1
     4     4     5    1
     5     5     6    1
     6     6     7    2
     7     6     8    2
     8     6     9    1
     9     9    10   ar
    10    10    11   ar
    11    11    12   ar
    12    12    13    1
    13    13    14   ar
    14    14    15   ar
    15    15    16   ar
    16    16    17   ar
    17    17    18   ar
    18    12    19   ar
    19    19    20   ar
    20     4    21    1
    21    21    22    2
    22    21    23    1
    23    20     9   ar
    24    18    13   ar
    25     1    24    1
    26     1    25    1
    27     1    26    1
    28     2    27    1
    29     3    28    1
    30     3    29    1
    31     3    30    1
    32     4    31    1
    33     5    32    1
    34    10    33    1
    35    11    34    1
    36    14    35    1
    37    15    36    1
    38    16    37    1
    39    17    38    1
    40    18    39    1
    41    19    40    1
    42    20    41    1
    43    23    42    1
