
     RDKit          3D

 42 43  0  0  0  0  0  0  0  0999 V2000
   -3.3099   -0.8318    1.5230 C   0  0  0  0  0  0  0  0  0  0  0  0
   -2.9506    0.2993    0.5852 C   0  0  0  0  0  0  0  0  0  0  0  0
   -3.9396    1.4299    0.7836 C   0  0  0  0  0  0  0  0  0  0  0  0
   -2.9974   -0.2402   -0.8250 C   0  0  2  0  0  0  0  0  0  0  0  0
   -2.6639    0.7706   -1.7881 N   0  0  0  0  0  0  0  0  0  0  0  0
   -1.2690    0.4324   -2.7032 S   0  0  0  0  0  6  0  0  0  0  0  0
   -1.0823    1.5385   -3.7026 O   0  0  0  0  0  0  0  0  0  0  0  0
   -1.4683   -0.8344   -3.4764 O   0  0  0  0  0  0  0  0  0  0  0  0
    0.1745    0.2910   -1.7602 C   0  0  0  0  0  0  0  0  0  0  0  0
    0.9740    1.3862   -1.4962 C   0  0  0  0  0  0  0  0  0  0  0  0
    2.1214    1.2342   -0.7376 C   0  0  0  0  0  0  0  0  0  0  0  0
    2.5119    0.0024   -0.2195 C   0  0  0  0  0  0  0  0  0  0  0  0
    3.7274   -0.0855    0.5675 C   0  0  0  0  0  0  0  0  0  0  0  0
    4.1767    0.9493    1.3600 C   0  0  0  0  0  0  0  0  0  0  0  0
    5.3421    0.8436    2.1044 C   0  0  0  0  0  0  0  0  0  0  0  0
    6.0816   -0.3062    2.0678 C   0  0  0  0  0  0  0  0  0  0  0  0
    5.6556   -1.3478    1.2879 C   0  0  0  0  0  0  0  0  0  0  0  0
    4.4920   -1.2322    0.5495 C   0  0  0  0  0  0  0  0  0  0  0  0
    1.7142   -1.0798   -0.4853 C   0  0  0  0  0  0  0  0  0  0  0  0
    0.5680   -0.9400   -1.2404 C   0  0  0  0  0  0  0  0  0  0  0  0
   -4.3732   -0.7202   -1.0858 C   0  0  0  0  0  0  0  0  0  0  0  0
   -5.0141   -0.2060   -2.0422 O   0  0  0  0  0  0  0  0  0  0  0  0
   -4.9757   -1.7124   -0.3152 O   0  0  0  0  0  0  0  0  0  0  0  0
   -4.4009   -0.8313    1.7633 H   0  0  0  0  0  0  0  0  0  0  0  0
   -3.0784   -1.7959    1.0322 H   0  0  0  0  0  0  0  0  0  0  0  0
   -2.7378   -0.7423    2.4890 H   0  0  0  0  0  0  0  0  0  0  0  0
   -1.9514    0.6617    0.8543 H   0  0  0  0  0  0  0  0  0  0  0  0
   -4.3199    1.3762    1.8395 H   0  0  0  0  0  0  0  0  0  0  0  0
   -3.4850    2.4187    0.6478 H   0  0  0  0  0  0  0  0  0  0  0  0
   -4.8231    1.2764    0.1455 H   0  0  0  0  0  0  0  0  0  0  0  0
   -2.2550   -1.0791   -0.8617 H   0  0  0  0  0  0  0  0  0  0  0  0
   -2.7629    1.7365   -1.4644 H   0  0  0  0  0  0  0  0  0  0  0  0
    0.7090    2.3759   -1.8817 H   0  0  0  0  0  0  0  0  0  0  0  0
    2.7391    2.0989   -0.5376 H   0  0  0  0  0  0  0  0  0  0  0  0
    3.6312    1.8766    1.4240 H   0  0  0  0  0  0  0  0  0  0  0  0
    5.6610    1.6819    2.7159 H   0  0  0  0  0  0  0  0  0  0  0  0
    7.0009   -0.4004    2.6500 H   0  0  0  0  0  0  0  0  0  0  0  0
    6.2650   -2.2483    1.2798 H   0  0  0  0  0  0  0  0  0  0  0  0
    4.1853   -2.0628   -0.0499 H   0  0  0  0  0  0  0  0  0  0  0  0
    2.0063   -2.0447   -0.0882 H   0  0  0  0  0  0  0  0  0  0  0  0
   -0.0509   -1.8188   -1.4381 H   0  0  0  0  0  0  0  0  0  0  0  0
   -5.8278   -2.1204   -0.6793 H   0  0  0  0  0  0  0  0  0  0  0  0
  1  2  1  0
  2  3  1  0
  2  4  1  0
  4  5  1  0
  5  6  1  0
  6  7  2  0
  6  8  2  0
  6  9  1  0
  9 10  2  0
 10 11  1  0
 11 12  2  0
 12 13  1  0
 13 14  2  0
 14 15  1  0
 15 16  2  0
 16 17  1  0
 17 18  2  0
 12 19  1  0
 19 20  2  0
  4 21  1  0
 21 22  2  0
 21 23  1  0
 20  9  1  0
 18 13  1  0
  1 24  1  0
  1 25  1  0
  1 26  1  0
  2 27  1  0
  3 28  1  0
  3 29  1  0
  3 30  1  0
  4 31  1  1
  5 32  1  0
 10 33  1  0
 11 34  1  0
 14 35  1  0
 15 36  1  0
 16 37  1  0
 17 38  1  0
 18 39  1  0
 19 40  1  0
 20 41  1  0
 23 42  1  0
M  END
$$$$
