
     RDKit          3D

113119  0  0  0  0  0  0  0  0999 V2000
   -3.9052   -0.2324    0.4743 C   0  0  1  0  0  0  0  0  0  0  0  0
   -2.8473    0.8077    0.3290 C   0  0  2  0  0  0  0  0  0  0  0  0
   -3.1950    1.7075   -0.7315 O   0  0  0  0  0  0  0  0  0  0  0  0
   -3.4367    3.0596   -0.4186 C   0  0  0  0  0  0  0  0  0  0  0  0
   -3.3990    3.6461    0.6952 O   0  0  0  0  0  0  0  0  0  0  0  0
   -3.7894    3.9370   -1.5613 C   0  0  0  0  0  0  0  0  0  0  0  0
   -4.0467    5.2766   -1.3534 C   0  0  0  0  0  0  0  0  0  0  0  0
   -4.3741    6.1184   -2.3955 C   0  0  0  0  0  0  0  0  0  0  0  0
   -4.4476    5.6246   -3.6621 C   0  0  0  0  0  0  0  0  0  0  0  0
   -4.1953    4.2854   -3.9045 C   0  0  0  0  0  0  0  0  0  0  0  0
   -3.8698    3.4549   -2.8599 C   0  0  0  0  0  0  0  0  0  0  0  0
   -1.4834    0.3901    0.1184 C   0  0  2  0  0  0  0  0  0  0  0  0
   -1.4738   -0.4547    1.3097 O   0  0  0  0  0  0  0  0  0  0  0  0
   -0.2700    1.0990    0.5556 C   0  0  0  0  0  0  0  0  0  0  0  0
    0.8164    0.0448    0.6670 C   0  0  2  0  0  0  0  0  0  0  0  0
    2.0567    0.4329    0.1942 O   0  0  0  0  0  0  0  0  0  0  0  0
    3.1547    0.6214    0.9714 C   0  0  0  0  0  0  0  0  0  0  0  0
    3.1723    0.4584    2.2316 O   0  0  0  0  0  0  0  0  0  0  0  0
    4.4513    1.0450    0.3876 C   0  0  2  0  0  0  0  0  0  0  0  0
    4.2760    1.1974   -0.9884 O   0  0  0  0  0  0  0  0  0  0  0  0
    5.4996   -0.0364    0.5545 C   0  0  1  0  0  0  0  0  0  0  0  0
    6.7506    0.3423   -0.0761 N   0  0  0  0  0  0  0  0  0  0  0  0
    7.4918   -0.1028   -1.1850 C   0  0  0  0  0  0  0  0  0  0  0  0
    7.1019   -1.0433   -1.8913 O   0  0  0  0  0  0  0  0  0  0  0  0
    8.7437    0.5772   -1.4867 C   0  0  0  0  0  0  0  0  0  0  0  0
    9.4285    0.0989   -2.5991 C   0  0  0  0  0  0  0  0  0  0  0  0
   10.6334    0.6516   -3.0039 C   0  0  0  0  0  0  0  0  0  0  0  0
   11.1578    1.7130   -2.2661 C   0  0  0  0  0  0  0  0  0  0  0  0
   10.4963    2.2011   -1.1625 C   0  0  0  0  0  0  0  0  0  0  0  0
    9.2915    1.6134   -0.7969 C   0  0  0  0  0  0  0  0  0  0  0  0
    5.6544   -0.5126    1.9326 C   0  0  0  0  0  0  0  0  0  0  0  0
    5.0164   -1.6400    2.4028 C   0  0  0  0  0  0  0  0  0  0  0  0
    5.1196   -2.1492    3.7002 C   0  0  0  0  0  0  0  0  0  0  0  0
    5.9411   -1.4470    4.5832 C   0  0  0  0  0  0  0  0  0  0  0  0
    6.6122   -0.2995    4.1643 C   0  0  0  0  0  0  0  0  0  0  0  0
    6.4473    0.1250    2.8641 C   0  0  0  0  0  0  0  0  0  0  0  0
    0.4363   -1.3421    0.3327 C   0  0  0  0  0  0  0  0  0  0  0  0
    1.0590   -2.6519    0.6697 C   0  0  0  0  0  0  0  0  0  0  0  0
   -0.6599   -1.5677   -0.3719 C   0  0  0  0  0  0  0  0  0  0  0  0
   -1.3850   -2.8196   -0.3226 C   0  0  1  0  0  0  0  0  0  0  0  0
   -1.0117   -3.9185    0.3703 O   0  0  0  0  0  0  0  0  0  0  0  0
   -0.8506   -5.1849   -0.2397 C   0  0  0  0  0  0  0  0  0  0  0  0
   -0.4345   -6.2935    0.6648 C   0  0  0  0  0  0  0  0  0  0  0  0
   -1.0385   -5.4096   -1.4807 O   0  0  0  0  0  0  0  0  0  0  0  0
   -2.8409   -2.5369    0.2169 C   0  0  0  0  0  0  0  0  0  0  0  0
   -3.3453   -3.5860   -0.2430 O   0  0  0  0  0  0  0  0  0  0  0  0
   -3.7354   -1.5723    0.9961 C   0  0  1  0  0  0  0  0  0  0  0  0
   -3.6447   -1.8220    2.4598 C   0  0  0  0  0  0  0  0  0  0  0  0
   -5.1095   -2.2457    0.6683 C   0  0  1  0  0  0  0  0  0  0  0  0
   -4.9594   -3.5612    1.1827 O   0  0  0  0  0  0  0  0  0  0  0  0
   -6.2585   -1.7009    1.3849 C   0  0  0  0  0  0  0  0  0  0  0  0
   -6.2297   -0.2287    1.5271 C   0  0  1  0  0  0  0  0  0  0  0  0
   -5.8139    0.2595    2.7795 O   0  0  0  0  0  0  0  0  0  0  0  0
   -5.2494    1.2992    2.0256 C   0  0  0  0  0  0  0  0  0  0  0  0
   -5.1927    0.5146    0.7732 C   0  0  1  0  0  0  0  0  0  0  0  0
   -5.7920    1.0566   -0.3867 O   0  0  0  0  0  0  0  0  0  0  0  0
   -6.8874    1.7704   -0.5967 C   0  0  0  0  0  0  0  0  0  0  0  0
   -7.3507    2.2461   -1.9155 C   0  0  0  0  0  0  0  0  0  0  0  0
   -7.6085    2.0843    0.3661 O   0  0  0  0  0  0  0  0  0  0  0  0
   -1.1314   -0.3330   -1.1373 C   0  0  0  0  0  0  0  0  0  0  0  0
    0.0487    0.1488   -1.9382 C   0  0  0  0  0  0  0  0  0  0  0  0
   -2.1678   -0.6566   -2.1350 C   0  0  0  0  0  0  0  0  0  0  0  0
   -4.1118   -0.4996   -0.6168 H   0  0  0  0  0  0  0  0  0  0  0  0
   -2.8498    1.4505    1.2341 H   0  0  0  0  0  0  0  0  0  0  0  0
   -4.0024    5.7150   -0.3742 H   0  0  0  0  0  0  0  0  0  0  0  0
   -4.5725    7.1706   -2.2074 H   0  0  0  0  0  0  0  0  0  0  0  0
   -4.7087    6.2979   -4.4896 H   0  0  0  0  0  0  0  0  0  0  0  0
   -4.2459    3.8602   -4.9058 H   0  0  0  0  0  0  0  0  0  0  0  0
   -3.6611    2.3983   -2.9820 H   0  0  0  0  0  0  0  0  0  0  0  0
   -1.5496    0.1004    2.0943 H   0  0  0  0  0  0  0  0  0  0  0  0
   -0.4636    1.6113    1.5568 H   0  0  0  0  0  0  0  0  0  0  0  0
    0.0336    1.9864   -0.0155 H   0  0  0  0  0  0  0  0  0  0  0  0
    0.9997   -0.0465    1.7922 H   0  0  0  0  0  0  0  0  0  0  0  0
    4.8003    2.0224    0.7793 H   0  0  0  0  0  0  0  0  0  0  0  0
    3.5614    0.5642   -1.2924 H   0  0  0  0  0  0  0  0  0  0  0  0
    5.0969   -0.9002   -0.0527 H   0  0  0  0  0  0  0  0  0  0  0  0
    6.9936    1.1216    0.5740 H   0  0  0  0  0  0  0  0  0  0  0  0
    9.0724   -0.7150   -3.2044 H   0  0  0  0  0  0  0  0  0  0  0  0
   11.1809    0.3077   -3.8508 H   0  0  0  0  0  0  0  0  0  0  0  0
   12.0874    2.2212   -2.4878 H   0  0  0  0  0  0  0  0  0  0  0  0
   10.8458    3.0227   -0.5440 H   0  0  0  0  0  0  0  0  0  0  0  0
    8.7639    1.9780    0.0558 H   0  0  0  0  0  0  0  0  0  0  0  0
    4.3762   -2.1960    1.7328 H   0  0  0  0  0  0  0  0  0  0  0  0
    4.5803   -3.0411    3.9762 H   0  0  0  0  0  0  0  0  0  0  0  0
    5.9935   -1.8738    5.5756 H   0  0  0  0  0  0  0  0  0  0  0  0
    7.2288    0.1993    4.8827 H   0  0  0  0  0  0  0  0  0  0  0  0
    6.9911    1.0130    2.6093 H   0  0  0  0  0  0  0  0  0  0  0  0
    2.1099   -2.3048    0.9478 H   0  0  0  0  0  0  0  0  0  0  0  0
    0.7418   -3.1031    1.6056 H   0  0  0  0  0  0  0  0  0  0  0  0
    1.2703   -3.2771   -0.1846 H   0  0  0  0  0  0  0  0  0  0  0  0
   -1.4894   -3.1337   -1.3828 H   0  0  0  0  0  0  0  0  0  0  0  0
   -1.0045   -6.2352    1.6009 H   0  0  0  0  0  0  0  0  0  0  0  0
    0.6737   -6.2425    0.8051 H   0  0  0  0  0  0  0  0  0  0  0  0
   -0.6985   -7.2456    0.1669 H   0  0  0  0  0  0  0  0  0  0  0  0
   -3.4222   -0.9942    3.1269 H   0  0  0  0  0  0  0  0  0  0  0  0
   -4.4680   -2.3754    2.9404 H   0  0  0  0  0  0  0  0  0  0  0  0
   -2.7672   -2.5217    2.6122 H   0  0  0  0  0  0  0  0  0  0  0  0
   -5.2310   -2.2624   -0.4170 H   0  0  0  0  0  0  0  0  0  0  0  0
   -5.8489   -3.9529    1.1115 H   0  0  0  0  0  0  0  0  0  0  0  0
   -7.1622   -2.0115    0.8157 H   0  0  0  0  0  0  0  0  0  0  0  0
   -6.4377   -2.1305    2.4024 H   0  0  0  0  0  0  0  0  0  0  0  0
   -7.2605    0.1655    1.4301 H   0  0  0  0  0  0  0  0  0  0  0  0
   -6.0421    2.0741    2.0070 H   0  0  0  0  0  0  0  0  0  0  0  0
   -4.3543    1.7474    2.4702 H   0  0  0  0  0  0  0  0  0  0  0  0
   -6.5410    2.3527   -2.6708 H   0  0  0  0  0  0  0  0  0  0  0  0
   -7.8414    3.2218   -1.8294 H   0  0  0  0  0  0  0  0  0  0  0  0
   -8.0779    1.5263   -2.3712 H   0  0  0  0  0  0  0  0  0  0  0  0
    0.8655   -0.6375   -1.9818 H   0  0  0  0  0  0  0  0  0  0  0  0
    0.3867    1.1586   -1.8088 H   0  0  0  0  0  0  0  0  0  0  0  0
   -0.1718    0.1667   -3.0654 H   0  0  0  0  0  0  0  0  0  0  0  0
   -2.6783   -1.6349   -2.0566 H   0  0  0  0  0  0  0  0  0  0  0  0
   -2.7720    0.1994   -2.4333 H   0  0  0  0  0  0  0  0  0  0  0  0
   -1.6462   -0.8774   -3.1332 H   0  0  0  0  0  0  0  0  0  0  0  0
  1  2  1  0
  2  3  1  0
  3  4  1  0
  4  5  2  0
  4  6  1  0
  6  7  2  0
  7  8  1  0
  8  9  2  0
  9 10  1  0
 10 11  2  0
  2 12  1  0
 12 13  1  1
 12 14  1  0
 14 15  1  0
 15 16  1  0
 16 17  1  0
 17 18  2  0
 17 19  1  0
 19 20  1  0
 19 21  1  0
 21 22  1  0
 22 23  1  0
 23 24  2  0
 23 25  1  0
 25 26  2  0
 26 27  1  0
 27 28  2  0
 28 29  1  0
 29 30  2  0
 21 31  1  0
 31 32  2  0
 32 33  1  0
 33 34  2  0
 34 35  1  0
 35 36  2  0
 15 37  1  0
 37 38  1  0
 37 39  2  0
 39 40  1  0
 40 41  1  0
 41 42  1  0
 42 43  1  0
 42 44  2  0
 40 45  1  0
 45 46  2  0
 45 47  1  0
 47 48  1  1
 47 49  1  0
 49 50  1  0
 49 51  1  0
 51 52  1  0
 52 53  1  0
 53 54  1  0
 54 55  1  0
 55 56  1  6
 56 57  1  0
 57 58  1  0
 57 59  2  0
 39 60  1  0
 60 61  1  0
 60 62  1  0
 47  1  1  0
 55 52  1  0
 55  1  1  0
 11  6  1  0
 60 12  1  0
 30 25  1  0
 36 31  1  0
  1 63  1  6
  2 64  1  1
  7 65  1  0
  8 66  1  0
  9 67  1  0
 10 68  1  0
 11 69  1  0
 13 70  1  0
 14 71  1  0
 14 72  1  0
 15 73  1  1
 19 74  1  1
 20 75  1  0
 21 76  1  6
 22 77  1  0
 26 78  1  0
 27 79  1  0
 28 80  1  0
 29 81  1  0
 30 82  1  0
 32 83  1  0
 33 84  1  0
 34 85  1  0
 35 86  1  0
 36 87  1  0
 38 88  1  0
 38 89  1  0
 38 90  1  0
 40 91  1  6
 43 92  1  0
 43 93  1  0
 43 94  1  0
 48 95  1  0
 48 96  1  0
 48 97  1  0
 49 98  1  6
 50 99  1  0
 51100  1  0
 51101  1  0
 52102  1  6
 54103  1  0
 54104  1  0
 58105  1  0
 58106  1  0
 58107  1  0
 61108  1  0
 61109  1  0
 61110  1  0
 62111  1  0
 62112  1  0
 62113  1  0
M  END
$$$$
