
     RDKit          3D

 91 94  0  0  0  0  0  0  0  0999 V2000
    0.9182   -1.3443   -3.5467 C   0  0  0  0  0  0  0  0  0  0  0  0
    2.2922   -1.5125   -2.9921 C   0  0  0  0  0  0  0  0  0  0  0  0
    2.4509   -1.0328   -1.6294 N   0  0  0  0  0  0  0  0  0  0  0  0
    1.2837   -0.6002   -0.9495 C   0  0  0  0  0  0  0  0  0  0  0  0
    0.9719    0.7383   -0.8349 C   0  0  0  0  0  0  0  0  0  0  0  0
   -0.1988    1.2019   -0.2291 C   0  0  0  0  0  0  0  0  0  0  0  0
   -0.4896    2.6009   -0.1130 C   0  0  0  0  0  0  0  0  0  0  0  0
   -1.2444    3.0951    0.9133 C   0  0  0  0  0  0  0  0  0  0  0  0
   -1.5233    4.4249    1.0679 C   0  0  0  0  0  0  0  0  0  0  0  0
   -1.0246    5.3615    0.1439 C   0  0  0  0  0  0  0  0  0  0  0  0
   -1.2826    6.6078    0.2798 O   0  0  0  0  0  0  0  0  0  0  0  0
   -1.5783    7.8303    0.4746 C   0  0  0  0  0  0  0  0  0  0  0  0
   -3.1037    8.0928    0.4019 C   0  0  0  0  0  0  0  0  0  0  0  0
   -3.7017    7.3210    1.3757 O   0  0  0  0  0  0  0  0  0  0  0  0
   -5.0668    7.5017    1.3613 C   0  0  0  0  0  0  0  0  0  0  0  0
   -0.2476    4.8398   -0.9098 C   0  0  0  0  0  0  0  0  0  0  0  0
    0.0023    3.5125   -1.0229 C   0  0  0  0  0  0  0  0  0  0  0  0
   -1.1053    0.2838    0.2900 C   0  0  0  0  0  0  0  0  0  0  0  0
   -0.8046   -1.0533    0.1835 C   0  0  0  0  0  0  0  0  0  0  0  0
   -1.7489   -2.0201    0.7251 C   0  0  0  0  0  0  0  0  0  0  0  0
   -2.0996   -2.0299    1.9452 O   0  0  0  0  0  0  0  0  0  0  0  0
   -2.3411   -3.0298   -0.0986 N   0  0  0  0  0  0  0  0  0  0  0  0
   -3.2648   -4.0091    0.3586 C   0  0  0  0  0  0  0  0  0  0  0  0
   -4.5395   -3.5211    0.8825 C   0  0  0  0  0  0  0  0  0  0  0  0
   -5.2736   -4.4341    1.6534 C   0  0  0  0  0  0  0  0  0  0  0  0
   -4.7682   -5.7868    1.9356 C   0  0  0  0  0  0  0  0  0  0  0  0
   -6.4796   -4.0370    2.1444 C   0  0  0  0  0  0  0  0  0  0  0  0
   -6.9208   -2.7609    1.8627 C   0  0  0  0  0  0  0  0  0  0  0  0
   -8.2350   -2.3091    2.3816 C   0  0  0  0  0  0  0  0  0  0  0  0
   -6.2015   -1.9014    1.1228 N   0  0  0  0  0  0  0  0  0  0  0  0
   -4.9956   -2.2691    0.6191 C   0  0  0  0  0  0  0  0  0  0  0  0
   -4.3566   -1.4360   -0.0675 O   0  0  0  0  0  0  0  0  0  0  0  0
    0.3523   -1.4817   -0.4164 C   0  0  0  0  0  0  0  0  0  0  0  0
    0.6546   -2.9237   -0.4802 C   0  0  0  0  0  0  0  0  0  0  0  0
    3.7857   -1.0561   -1.0862 C   0  0  1  0  0  0  0  0  0  0  0  0
    4.4267   -2.4304   -1.2205 C   0  0  0  0  0  0  0  0  0  0  0  0
    5.5901   -2.4563   -0.2553 C   0  0  0  0  0  0  0  0  0  0  0  0
    6.5604   -1.3874   -0.6421 C   0  0  2  0  0  0  0  0  0  0  0  0
    6.8906   -0.6499    0.5658 N   0  0  0  0  0  0  0  0  0  0  0  0
    7.4566   -1.6599    1.4776 C   0  0  0  0  0  0  0  0  0  0  0  0
    7.9738    0.2744    0.2349 C   0  0  0  0  0  0  0  0  0  0  0  0
    6.1339   -0.5082   -1.7674 C   0  0  0  0  0  0  0  0  0  0  0  0
    4.7105   -0.0606   -1.7352 C   0  0  0  0  0  0  0  0  0  0  0  0
    0.8877   -0.2948   -3.9793 H   0  0  0  0  0  0  0  0  0  0  0  0
    0.8219   -2.0100   -4.4375 H   0  0  0  0  0  0  0  0  0  0  0  0
    0.0882   -1.4667   -2.8587 H   0  0  0  0  0  0  0  0  0  0  0  0
    2.5277   -2.6033   -3.0609 H   0  0  0  0  0  0  0  0  0  0  0  0
    3.0221   -1.0334   -3.6838 H   0  0  0  0  0  0  0  0  0  0  0  0
    1.6318    1.5098   -1.2163 H   0  0  0  0  0  0  0  0  0  0  0  0
   -1.6400    2.3751    1.6405 H   0  0  0  0  0  0  0  0  0  0  0  0
   -2.1265    4.7969    1.8912 H   0  0  0  0  0  0  0  0  0  0  0  0
   -1.2980    8.2955    1.4952 H   0  0  0  0  0  0  0  0  0  0  0  0
   -1.1227    8.5904   -0.2393 H   0  0  0  0  0  0  0  0  0  0  0  0
   -3.4099    7.7852   -0.6125 H   0  0  0  0  0  0  0  0  0  0  0  0
   -3.2466    9.1829    0.5409 H   0  0  0  0  0  0  0  0  0  0  0  0
   -5.4540    7.2053    0.3722 H   0  0  0  0  0  0  0  0  0  0  0  0
   -5.5739    6.8959    2.1472 H   0  0  0  0  0  0  0  0  0  0  0  0
   -5.3388    8.5588    1.5144 H   0  0  0  0  0  0  0  0  0  0  0  0
    0.1439    5.5505   -1.6295 H   0  0  0  0  0  0  0  0  0  0  0  0
    0.6160    3.1550   -1.8629 H   0  0  0  0  0  0  0  0  0  0  0  0
   -2.0293    0.5773    0.7706 H   0  0  0  0  0  0  0  0  0  0  0  0
   -2.0425   -3.0108   -1.1208 H   0  0  0  0  0  0  0  0  0  0  0  0
   -2.8301   -4.7034    1.1190 H   0  0  0  0  0  0  0  0  0  0  0  0
   -3.5269   -4.6717   -0.5223 H   0  0  0  0  0  0  0  0  0  0  0  0
   -4.0458   -5.8349    2.7705 H   0  0  0  0  0  0  0  0  0  0  0  0
   -4.2259   -6.2151    1.0490 H   0  0  0  0  0  0  0  0  0  0  0  0
   -5.5935   -6.4733    2.1915 H   0  0  0  0  0  0  0  0  0  0  0  0
   -7.0682   -4.7078    2.7366 H   0  0  0  0  0  0  0  0  0  0  0  0
   -8.6252   -1.5240    1.7112 H   0  0  0  0  0  0  0  0  0  0  0  0
   -8.9448   -3.1637    2.4343 H   0  0  0  0  0  0  0  0  0  0  0  0
   -8.0591   -1.8541    3.3736 H   0  0  0  0  0  0  0  0  0  0  0  0
   -6.5538   -0.9312    0.9187 H   0  0  0  0  0  0  0  0  0  0  0  0
    0.6915   -3.3566   -1.4758 H   0  0  0  0  0  0  0  0  0  0  0  0
   -0.0665   -3.5287    0.1287 H   0  0  0  0  0  0  0  0  0  0  0  0
    1.6237   -3.0477    0.0885 H   0  0  0  0  0  0  0  0  0  0  0  0
    3.8016   -0.8316    0.0031 H   0  0  0  0  0  0  0  0  0  0  0  0
    4.8996   -2.5358   -2.2465 H   0  0  0  0  0  0  0  0  0  0  0  0
    3.6869   -3.2313   -1.0574 H   0  0  0  0  0  0  0  0  0  0  0  0
    6.0577   -3.4775   -0.3712 H   0  0  0  0  0  0  0  0  0  0  0  0
    5.2013   -2.3804    0.7764 H   0  0  0  0  0  0  0  0  0  0  0  0
    7.5284   -1.8722   -0.9691 H   0  0  0  0  0  0  0  0  0  0  0  0
    8.3187   -1.2358    2.0186 H   0  0  0  0  0  0  0  0  0  0  0  0
    6.7087   -1.9298    2.2529 H   0  0  0  0  0  0  0  0  0  0  0  0
    7.7985   -2.5548    0.9400 H   0  0  0  0  0  0  0  0  0  0  0  0
    8.6564    0.3020    1.0994 H   0  0  0  0  0  0  0  0  0  0  0  0
    7.5348    1.2649    0.0776 H   0  0  0  0  0  0  0  0  0  0  0  0
    8.5212   -0.1293   -0.6417 H   0  0  0  0  0  0  0  0  0  0  0  0
    6.7780    0.4192   -1.7127 H   0  0  0  0  0  0  0  0  0  0  0  0
    6.3680   -0.9443   -2.7640 H   0  0  0  0  0  0  0  0  0  0  0  0
    4.6438    0.9405   -1.2126 H   0  0  0  0  0  0  0  0  0  0  0  0
    4.4060    0.1641   -2.7916 H   0  0  0  0  0  0  0  0  0  0  0  0
  1  2  1  0
  2  3  1  0
  3  4  1  0
  4  5  2  0
  5  6  1  0
  6  7  1  0
  7  8  2  0
  8  9  1  0
  9 10  2  0
 10 11  1  0
 11 12  1  0
 12 13  1  0
 13 14  1  0
 14 15  1  0
 10 16  1  0
 16 17  2  0
  6 18  2  0
 18 19  1  0
 19 20  1  0
 20 21  2  0
 20 22  1  0
 22 23  1  0
 23 24  1  0
 24 25  2  0
 25 26  1  0
 25 27  1  0
 27 28  2  0
 28 29  1  0
 28 30  1  0
 30 31  1  0
 31 32  2  0
 19 33  2  0
 33 34  1  0
  3 35  1  0
 35 36  1  0
 36 37  1  0
 37 38  1  0
 38 39  1  0
 39 40  1  0
 39 41  1  0
 38 42  1  0
 42 43  1  0
 33  4  1  0
 43 35  1  0
 17  7  1  0
 31 24  1  0
  1 44  1  0
  1 45  1  0
  1 46  1  0
  2 47  1  0
  2 48  1  0
  5 49  1  0
  8 50  1  0
  9 51  1  0
 12 52  1  0
 12 53  1  0
 13 54  1  0
 13 55  1  0
 15 56  1  0
 15 57  1  0
 15 58  1  0
 16 59  1  0
 17 60  1  0
 18 61  1  0
 22 62  1  0
 23 63  1  0
 23 64  1  0
 26 65  1  0
 26 66  1  0
 26 67  1  0
 27 68  1  0
 29 69  1  0
 29 70  1  0
 29 71  1  0
 30 72  1  0
 34 73  1  0
 34 74  1  0
 34 75  1  0
 35 76  1  1
 36 77  1  0
 36 78  1  0
 37 79  1  0
 37 80  1  0
 38 81  1  6
 40 82  1  0
 40 83  1  0
 40 84  1  0
 41 85  1  0
 41 86  1  0
 41 87  1  0
 42 88  1  0
 42 89  1  0
 43 90  1  0
 43 91  1  0
M  END
$$$$
