@<TRIPOS>MOLECULE
*****
 91 94 0 0 0
SMALL
GASTEIGER

@<TRIPOS>ATOM
      1 C           0.9182   -1.3443   -3.5467 C.3     1  UNL1       -0.0494
      2 C           2.2922   -1.5125   -2.9921 C.3     1  UNL1        0.0097
      3 N           2.4509   -1.0328   -1.6294 N.pl3   1  UNL1       -0.3269
      4 C           1.2837   -0.6002   -0.9495 C.ar    1  UNL1        0.0342
      5 C           0.9719    0.7383   -0.8349 C.ar    1  UNL1       -0.0326
      6 C          -0.1988    1.2019   -0.2291 C.ar    1  UNL1       -0.0154
      7 C          -0.4896    2.6009   -0.1130 C.ar    1  UNL1       -0.0176
      8 C          -1.2444    3.0951    0.9133 C.ar    1  UNL1       -0.0506
      9 C          -1.5233    4.4249    1.0679 C.ar    1  UNL1       -0.0194
     10 C          -1.0246    5.3615    0.1439 C.ar    1  UNL1        0.1206
     11 O          -1.2826    6.6078    0.2798 O.3     1  UNL1       -0.4897
     12 C          -1.5783    7.8303    0.4746 C.3     1  UNL1        0.1128
     13 C          -3.1037    8.0928    0.4019 C.3     1  UNL1        0.0813
     14 O          -3.7017    7.3210    1.3757 O.3     1  UNL1       -0.3796
     15 C          -5.0668    7.5017    1.3613 C.3     1  UNL1        0.0366
     16 C          -0.2476    4.8398   -0.9098 C.ar    1  UNL1       -0.0194
     17 C           0.0023    3.5125   -1.0229 C.ar    1  UNL1       -0.0506
     18 C          -1.1053    0.2838    0.2900 C.ar    1  UNL1       -0.0415
     19 C          -0.8046   -1.0533    0.1835 C.ar    1  UNL1        0.0419
     20 C          -1.7489   -2.0201    0.7251 C.2     1  UNL1        0.2447
     21 O          -2.0996   -2.0299    1.9452 O.2     1  UNL1       -0.2702
     22 N          -2.3411   -3.0298   -0.0986 N.am    1  UNL1       -0.3070
     23 C          -3.2648   -4.0091    0.3586 C.3     1  UNL1        0.0425
     24 C          -4.5395   -3.5211    0.8825 C.ar    1  UNL1        0.0368
     25 C          -5.2736   -4.4341    1.6534 C.ar    1  UNL1       -0.0390
     26 C          -4.7682   -5.7868    1.9356 C.3     1  UNL1       -0.0392
     27 C          -6.4796   -4.0370    2.1444 C.ar    1  UNL1       -0.0393
     28 C          -6.9208   -2.7609    1.8627 C.ar    1  UNL1        0.0162
     29 C          -8.2350   -2.3091    2.3816 C.3     1  UNL1       -0.0244
     30 N          -6.2015   -1.9014    1.1228 N.ar    1  UNL1       -0.3262
     31 C          -4.9956   -2.2691    0.6191 C.ar    1  UNL1        0.2539
     32 O          -4.3566   -1.4360   -0.0675 O.2     1  UNL1       -0.2675
     33 C           0.3523   -1.4817   -0.4164 C.ar    1  UNL1       -0.0173
     34 C           0.6546   -2.9237   -0.4802 C.3     1  UNL1       -0.0372
     35 C           3.7857   -1.0561   -1.0862 C.3     1  UNL1        0.0236
     36 C           4.4267   -2.4304   -1.2205 C.3     1  UNL1       -0.0330
     37 C           5.5901   -2.4563   -0.2553 C.3     1  UNL1       -0.0357
     38 C           6.5604   -1.3874   -0.6421 C.3     1  UNL1        0.0100
     39 N           6.8906   -0.6499    0.5658 N.3     1  UNL1       -0.3054
     40 C           7.4566   -1.6599    1.4776 C.3     1  UNL1       -0.0128
     41 C           7.9738    0.2744    0.2349 C.3     1  UNL1       -0.0128
     42 C           6.1339   -0.5082   -1.7674 C.3     1  UNL1       -0.0357
     43 C           4.7105   -0.0606   -1.7352 C.3     1  UNL1       -0.0330
     44 H           0.8877   -0.2948   -3.9793 H       1  UNL1        0.0245
     45 H           0.8219   -2.0100   -4.4375 H       1  UNL1        0.0245
     46 H           0.0882   -1.4667   -2.8587 H       1  UNL1        0.0245
     47 H           2.5277   -2.6033   -3.0609 H       1  UNL1        0.0461
     48 H           3.0221   -1.0334   -3.6838 H       1  UNL1        0.0461
     49 H           1.6318    1.5098   -1.2163 H       1  UNL1        0.0642
     50 H          -1.6400    2.3751    1.6405 H       1  UNL1        0.0625
     51 H          -2.1265    4.7969    1.8912 H       1  UNL1        0.0654
     52 H          -1.2980    8.2955    1.4952 H       1  UNL1        0.0720
     53 H          -1.1227    8.5904   -0.2393 H       1  UNL1        0.0720
     54 H          -3.4099    7.7852   -0.6125 H       1  UNL1        0.0593
     55 H          -3.2466    9.1829    0.5409 H       1  UNL1        0.0593
     56 H          -5.4540    7.2053    0.3722 H       1  UNL1        0.0524
     57 H          -5.5739    6.8959    2.1472 H       1  UNL1        0.0524
     58 H          -5.3388    8.5588    1.5144 H       1  UNL1        0.0524
     59 H           0.1439    5.5505   -1.6295 H       1  UNL1        0.0654
     60 H           0.6160    3.1550   -1.8629 H       1  UNL1        0.0625
     61 H          -2.0293    0.5773    0.7706 H       1  UNL1        0.0631
     62 H          -2.0425   -3.0108   -1.1208 H       1  UNL1        0.1493
     63 H          -2.8301   -4.7034    1.1190 H       1  UNL1        0.0513
     64 H          -3.5269   -4.6717   -0.5223 H       1  UNL1        0.0513
     65 H          -4.0458   -5.8349    2.7705 H       1  UNL1        0.0278
     66 H          -4.2259   -6.2151    1.0490 H       1  UNL1        0.0278
     67 H          -5.5935   -6.4733    2.1915 H       1  UNL1        0.0278
     68 H          -7.0682   -4.7078    2.7366 H       1  UNL1        0.0637
     69 H          -8.6252   -1.5240    1.7112 H       1  UNL1        0.0292
     70 H          -8.9448   -3.1637    2.4343 H       1  UNL1        0.0292
     71 H          -8.0591   -1.8541    3.3736 H       1  UNL1        0.0292
     72 H          -6.5538   -0.9312    0.9187 H       1  UNL1        0.1686
     73 H           0.6915   -3.3566   -1.4758 H       1  UNL1        0.0278
     74 H          -0.0665   -3.5287    0.1287 H       1  UNL1        0.0278
     75 H           1.6237   -3.0477    0.0885 H       1  UNL1        0.0278
     76 H           3.8016   -0.8316    0.0031 H       1  UNL1        0.0500
     77 H           4.8996   -2.5358   -2.2465 H       1  UNL1        0.0284
     78 H           3.6869   -3.2313   -1.0574 H       1  UNL1        0.0284
     79 H           6.0577   -3.4775   -0.3712 H       1  UNL1        0.0281
     80 H           5.2013   -2.3804    0.7764 H       1  UNL1        0.0281
     81 H           7.5284   -1.8722   -0.9691 H       1  UNL1        0.0462
     82 H           8.3187   -1.2358    2.0186 H       1  UNL1        0.0391
     83 H           6.7087   -1.9298    2.2529 H       1  UNL1        0.0391
     84 H           7.7985   -2.5548    0.9400 H       1  UNL1        0.0391
     85 H           8.6564    0.3020    1.0994 H       1  UNL1        0.0391
     86 H           7.5348    1.2649    0.0776 H       1  UNL1        0.0391
     87 H           8.5212   -0.1293   -0.6417 H       1  UNL1        0.0391
     88 H           6.7780    0.4192   -1.7127 H       1  UNL1        0.0281
     89 H           6.3680   -0.9443   -2.7640 H       1  UNL1        0.0281
     90 H           4.6438    0.9405   -1.2126 H       1  UNL1        0.0284
     91 H           4.4060    0.1641   -2.7916 H       1  UNL1        0.0284
@<TRIPOS>BOND
     1     1     2    1
     2     2     3    1
     3     3     4    1
     4     4     5   ar
     5     5     6   ar
     6     6     7    1
     7     7     8   ar
     8     8     9   ar
     9     9    10   ar
    10    10    11    1
    11    11    12    1
    12    12    13    1
    13    13    14    1
    14    14    15    1
    15    10    16   ar
    16    16    17   ar
    17     6    18   ar
    18    18    19   ar
    19    19    20    1
    20    20    21    2
    21    20    22   am
    22    22    23    1
    23    23    24    1
    24    24    25   ar
    25    25    26    1
    26    25    27   ar
    27    27    28   ar
    28    28    29    1
    29    28    30   ar
    30    30    31   ar
    31    31    32    2
    32    19    33   ar
    33    33    34    1
    34     3    35    1
    35    35    36    1
    36    36    37    1
    37    37    38    1
    38    38    39    1
    39    39    40    1
    40    39    41    1
    41    38    42    1
    42    42    43    1
    43    33     4   ar
    44    43    35    1
    45    17     7   ar
    46    31    24   ar
    47     1    44    1
    48     1    45    1
    49     1    46    1
    50     2    47    1
    51     2    48    1
    52     5    49    1
    53     8    50    1
    54     9    51    1
    55    12    52    1
    56    12    53    1
    57    13    54    1
    58    13    55    1
    59    15    56    1
    60    15    57    1
    61    15    58    1
    62    16    59    1
    63    17    60    1
    64    18    61    1
    65    22    62    1
    66    23    63    1
    67    23    64    1
    68    26    65    1
    69    26    66    1
    70    26    67    1
    71    27    68    1
    72    29    69    1
    73    29    70    1
    74    29    71    1
    75    30    72    1
    76    34    73    1
    77    34    74    1
    78    34    75    1
    79    35    76    1
    80    36    77    1
    81    36    78    1
    82    37    79    1
    83    37    80    1
    84    38    81    1
    85    40    82    1
    86    40    83    1
    87    40    84    1
    88    41    85    1
    89    41    86    1
    90    41    87    1
    91    42    88    1
    92    42    89    1
    93    43    90    1
    94    43    91    1
