@<TRIPOS>MOLECULE
*****
 68 71 0 0 0
SMALL
GASTEIGER

@<TRIPOS>ATOM
      1 O          -0.1252    2.2470   -2.4914 O.2     1  UNL1       -0.2450
      2 C           0.2369    1.4326   -1.6136 C.2     1  UNL1        0.3395
      3 O          -0.7401    0.6437   -1.0251 O.3     1  UNL1       -0.4595
      4 C          -2.0938    0.7957   -1.4427 C.3     1  UNL1        0.1100
      5 C          -3.0016   -0.1523   -0.6822 C.3     1  UNL1        0.0669
      6 C          -2.6260   -1.5965   -0.9611 C.3     1  UNL1       -0.0074
      7 C          -3.5250   -2.5064   -0.2113 C.ar    1  UNL1       -0.0455
      8 C          -4.6997   -2.9427   -0.8255 C.ar    1  UNL1       -0.0551
      9 C          -5.5421   -3.7830   -0.1485 C.ar    1  UNL1       -0.0199
     10 C          -5.2932   -4.2366    1.1387 C.ar    1  UNL1        0.1169
     11 O          -6.1618   -5.0901    1.8096 O.3     1  UNL1       -0.5068
     12 C          -4.1215   -3.7828    1.7122 C.ar    1  UNL1       -0.0199
     13 C          -3.2487   -2.9371    1.0633 C.ar    1  UNL1       -0.0551
     14 N          -2.9187    0.1268    0.7340 N.3     1  UNL1       -0.1833
     15 S          -4.4441    0.6458    1.3361 S.O2    1  UNL1        0.0588
     16 O          -5.4800   -0.4177    1.0491 O.2     1  UNL1       -0.1530
     17 O          -4.4072    0.7950    2.8418 O.2     1  UNL1       -0.1530
     18 C          -4.9988    2.1150    0.5909 C.ar    1  UNL1        0.1053
     19 C          -4.6303    3.3421    1.1040 C.ar    1  UNL1       -0.0354
     20 C          -5.0928    4.5068    0.4886 C.ar    1  UNL1       -0.0599
     21 C          -5.9062    4.4345   -0.6165 C.ar    1  UNL1       -0.0616
     22 C          -6.2796    3.2177   -1.1361 C.ar    1  UNL1       -0.0599
     23 C          -5.8042    2.0624   -0.5028 C.ar    1  UNL1       -0.0354
     24 C           1.6543    1.3109   -1.2136 C.ar    1  UNL1        0.0659
     25 C           2.6264    2.0927   -1.7955 C.ar    1  UNL1       -0.0053
     26 C           3.9401    1.9680   -1.4142 C.ar    1  UNL1        0.1320
     27 O           4.8803    2.7780   -2.0301 O.3     1  UNL1       -0.5059
     28 C           4.3736    1.0673   -0.4388 C.ar    1  UNL1        0.1050
     29 C           5.7598    1.0764   -0.0246 C.2     1  UNL1        0.2044
     30 O           6.3903    2.2046   -0.2608 O.2     1  UNL1       -0.2863
     31 C           6.5505    0.0807    0.6031 C.ar    1  UNL1        0.0778
     32 C           7.4428    0.5412    1.6083 C.ar    1  UNL1        0.1285
     33 O           7.4638    1.8977    1.9040 O.3     1  UNL1       -0.5060
     34 C           8.2596   -0.3481    2.2635 C.ar    1  UNL1       -0.0194
     35 C           8.2234   -1.6952    1.9540 C.ar    1  UNL1       -0.0575
     36 C           7.3730   -2.1621    0.9847 C.ar    1  UNL1       -0.0468
     37 C           6.5339   -1.2347    0.3089 C.ar    1  UNL1        0.0731
     38 C           5.8560   -1.7806   -0.8401 C.2     1  UNL1        0.3376
     39 O           5.7601   -3.0400   -1.0230 O.2     1  UNL1       -0.2451
     40 O           5.2880   -0.9961   -1.8029 O.3     1  UNL1       -0.4771
     41 C           3.3959    0.2899    0.1397 C.ar    1  UNL1        0.1320
     42 O           3.7505   -0.6274    1.1258 O.3     1  UNL1       -0.5059
     43 C           2.0541    0.4169   -0.2503 C.ar    1  UNL1       -0.0053
     44 H          -2.4060    1.8221   -1.2602 H       1  UNL1        0.0714
     45 H          -2.1535    0.4992   -2.5174 H       1  UNL1        0.0714
     46 H          -4.0136    0.0065   -1.0991 H       1  UNL1        0.0514
     47 H          -1.5912   -1.8174   -0.6232 H       1  UNL1        0.0330
     48 H          -2.7310   -1.8489   -2.0292 H       1  UNL1        0.0330
     49 H          -4.9575   -2.6264   -1.8334 H       1  UNL1        0.0621
     50 H          -6.4589   -4.1155   -0.6449 H       1  UNL1        0.0654
     51 H          -6.4820   -5.9583    1.3962 H       1  UNL1        0.2921
     52 H          -3.8858   -4.1156    2.7261 H       1  UNL1        0.0654
     53 H          -2.3269   -2.5848    1.5246 H       1  UNL1        0.0621
     54 H          -2.1742    0.8151    0.9617 H       1  UNL1        0.1484
     55 H          -3.9892    3.4485    1.9756 H       1  UNL1        0.0637
     56 H          -4.8223    5.4835    0.8660 H       1  UNL1        0.0618
     57 H          -6.2588    5.3255   -1.0859 H       1  UNL1        0.0618
     58 H          -6.9168    3.1091   -2.0023 H       1  UNL1        0.0618
     59 H          -6.1149    1.1160   -0.9297 H       1  UNL1        0.0637
     60 H           2.2920    2.7919   -2.5523 H       1  UNL1        0.0662
     61 H           5.6905    2.4232   -2.5289 H       1  UNL1        0.2922
     62 H           7.5821    2.1512    2.8778 H       1  UNL1        0.2922
     63 H           8.9354    0.0130    3.0273 H       1  UNL1        0.0654
     64 H           8.8873   -2.3680    2.5011 H       1  UNL1        0.0619
     65 H           7.3356   -3.2123    0.7346 H       1  UNL1        0.0626
     66 H           5.1216   -1.3253   -2.7425 H       1  UNL1        0.2954
     67 H           3.4087   -1.5738    1.0074 H       1  UNL1        0.2922
     68 H           1.3569   -0.2183    0.2408 H       1  UNL1        0.0662
@<TRIPOS>BOND
     1     1     2    2
     2     2     3    1
     3     3     4    1
     4     4     5    1
     5     5     6    1
     6     6     7    1
     7     7     8   ar
     8     8     9   ar
     9     9    10   ar
    10    10    11    1
    11    10    12   ar
    12    12    13   ar
    13     5    14    1
    14    14    15    1
    15    15    16    2
    16    15    17    2
    17    15    18    1
    18    18    19   ar
    19    19    20   ar
    20    20    21   ar
    21    21    22   ar
    22    22    23   ar
    23     2    24    1
    24    24    25   ar
    25    25    26   ar
    26    26    27    1
    27    26    28   ar
    28    28    29    1
    29    29    30    2
    30    29    31    1
    31    31    32   ar
    32    32    33    1
    33    32    34   ar
    34    34    35   ar
    35    35    36   ar
    36    36    37   ar
    37    37    38    1
    38    38    39    2
    39    38    40    1
    40    28    41   ar
    41    41    42    1
    42    41    43   ar
    43    13     7   ar
    44    23    18   ar
    45    43    24   ar
    46    37    31   ar
    47     4    44    1
    48     4    45    1
    49     5    46    1
    50     6    47    1
    51     6    48    1
    52     8    49    1
    53     9    50    1
    54    11    51    1
    55    12    52    1
    56    13    53    1
    57    14    54    1
    58    19    55    1
    59    20    56    1
    60    21    57    1
    61    22    58    1
    62    23    59    1
    63    25    60    1
    64    27    61    1
    65    33    62    1
    66    34    63    1
    67    35    64    1
    68    36    65    1
    69    40    66    1
    70    42    67    1
    71    43    68    1
