
     RDKit          3D

 68 71  0  0  0  0  0  0  0  0999 V2000
   -0.1252    2.2470   -2.4914 O   0  0  0  0  0  0  0  0  0  0  0  0
    0.2369    1.4326   -1.6136 C   0  0  0  0  0  0  0  0  0  0  0  0
   -0.7401    0.6437   -1.0251 O   0  0  0  0  0  0  0  0  0  0  0  0
   -2.0938    0.7957   -1.4427 C   0  0  0  0  0  0  0  0  0  0  0  0
   -3.0016   -0.1523   -0.6822 C   0  0  1  0  0  0  0  0  0  0  0  0
   -2.6260   -1.5965   -0.9611 C   0  0  0  0  0  0  0  0  0  0  0  0
   -3.5250   -2.5064   -0.2113 C   0  0  0  0  0  0  0  0  0  0  0  0
   -4.6997   -2.9427   -0.8255 C   0  0  0  0  0  0  0  0  0  0  0  0
   -5.5421   -3.7830   -0.1485 C   0  0  0  0  0  0  0  0  0  0  0  0
   -5.2932   -4.2366    1.1387 C   0  0  0  0  0  0  0  0  0  0  0  0
   -6.1618   -5.0901    1.8096 O   0  0  0  0  0  0  0  0  0  0  0  0
   -4.1215   -3.7828    1.7122 C   0  0  0  0  0  0  0  0  0  0  0  0
   -3.2487   -2.9371    1.0633 C   0  0  0  0  0  0  0  0  0  0  0  0
   -2.9187    0.1268    0.7340 N   0  0  0  0  0  0  0  0  0  0  0  0
   -4.4441    0.6458    1.3361 S   0  0  0  0  0  6  0  0  0  0  0  0
   -5.4800   -0.4177    1.0491 O   0  0  0  0  0  0  0  0  0  0  0  0
   -4.4072    0.7950    2.8418 O   0  0  0  0  0  0  0  0  0  0  0  0
   -4.9988    2.1150    0.5909 C   0  0  0  0  0  0  0  0  0  0  0  0
   -4.6303    3.3421    1.1040 C   0  0  0  0  0  0  0  0  0  0  0  0
   -5.0928    4.5068    0.4886 C   0  0  0  0  0  0  0  0  0  0  0  0
   -5.9062    4.4345   -0.6165 C   0  0  0  0  0  0  0  0  0  0  0  0
   -6.2796    3.2177   -1.1361 C   0  0  0  0  0  0  0  0  0  0  0  0
   -5.8042    2.0624   -0.5028 C   0  0  0  0  0  0  0  0  0  0  0  0
    1.6543    1.3109   -1.2136 C   0  0  0  0  0  0  0  0  0  0  0  0
    2.6264    2.0927   -1.7955 C   0  0  0  0  0  0  0  0  0  0  0  0
    3.9401    1.9680   -1.4142 C   0  0  0  0  0  0  0  0  0  0  0  0
    4.8803    2.7780   -2.0301 O   0  0  0  0  0  0  0  0  0  0  0  0
    4.3736    1.0673   -0.4388 C   0  0  0  0  0  0  0  0  0  0  0  0
    5.7598    1.0764   -0.0246 C   0  0  0  0  0  0  0  0  0  0  0  0
    6.3903    2.2046   -0.2608 O   0  0  0  0  0  0  0  0  0  0  0  0
    6.5505    0.0807    0.6031 C   0  0  0  0  0  0  0  0  0  0  0  0
    7.4428    0.5412    1.6083 C   0  0  0  0  0  0  0  0  0  0  0  0
    7.4638    1.8977    1.9040 O   0  0  0  0  0  0  0  0  0  0  0  0
    8.2596   -0.3481    2.2635 C   0  0  0  0  0  0  0  0  0  0  0  0
    8.2234   -1.6952    1.9540 C   0  0  0  0  0  0  0  0  0  0  0  0
    7.3730   -2.1621    0.9847 C   0  0  0  0  0  0  0  0  0  0  0  0
    6.5339   -1.2347    0.3089 C   0  0  0  0  0  0  0  0  0  0  0  0
    5.8560   -1.7806   -0.8401 C   0  0  0  0  0  0  0  0  0  0  0  0
    5.7601   -3.0400   -1.0230 O   0  0  0  0  0  0  0  0  0  0  0  0
    5.2880   -0.9961   -1.8029 O   0  0  0  0  0  0  0  0  0  0  0  0
    3.3959    0.2899    0.1397 C   0  0  0  0  0  0  0  0  0  0  0  0
    3.7505   -0.6274    1.1258 O   0  0  0  0  0  0  0  0  0  0  0  0
    2.0541    0.4169   -0.2503 C   0  0  0  0  0  0  0  0  0  0  0  0
   -2.4060    1.8221   -1.2602 H   0  0  0  0  0  0  0  0  0  0  0  0
   -2.1535    0.4992   -2.5174 H   0  0  0  0  0  0  0  0  0  0  0  0
   -4.0136    0.0065   -1.0991 H   0  0  0  0  0  0  0  0  0  0  0  0
   -1.5912   -1.8174   -0.6232 H   0  0  0  0  0  0  0  0  0  0  0  0
   -2.7310   -1.8489   -2.0292 H   0  0  0  0  0  0  0  0  0  0  0  0
   -4.9575   -2.6264   -1.8334 H   0  0  0  0  0  0  0  0  0  0  0  0
   -6.4589   -4.1155   -0.6449 H   0  0  0  0  0  0  0  0  0  0  0  0
   -6.4820   -5.9583    1.3962 H   0  0  0  0  0  0  0  0  0  0  0  0
   -3.8858   -4.1156    2.7261 H   0  0  0  0  0  0  0  0  0  0  0  0
   -2.3269   -2.5848    1.5246 H   0  0  0  0  0  0  0  0  0  0  0  0
   -2.1742    0.8151    0.9617 H   0  0  0  0  0  0  0  0  0  0  0  0
   -3.9892    3.4485    1.9756 H   0  0  0  0  0  0  0  0  0  0  0  0
   -4.8223    5.4835    0.8660 H   0  0  0  0  0  0  0  0  0  0  0  0
   -6.2588    5.3255   -1.0859 H   0  0  0  0  0  0  0  0  0  0  0  0
   -6.9168    3.1091   -2.0023 H   0  0  0  0  0  0  0  0  0  0  0  0
   -6.1149    1.1160   -0.9297 H   0  0  0  0  0  0  0  0  0  0  0  0
    2.2920    2.7919   -2.5523 H   0  0  0  0  0  0  0  0  0  0  0  0
    5.6905    2.4232   -2.5289 H   0  0  0  0  0  0  0  0  0  0  0  0
    7.5821    2.1512    2.8778 H   0  0  0  0  0  0  0  0  0  0  0  0
    8.9354    0.0130    3.0273 H   0  0  0  0  0  0  0  0  0  0  0  0
    8.8873   -2.3680    2.5011 H   0  0  0  0  0  0  0  0  0  0  0  0
    7.3356   -3.2123    0.7346 H   0  0  0  0  0  0  0  0  0  0  0  0
    5.1216   -1.3253   -2.7425 H   0  0  0  0  0  0  0  0  0  0  0  0
    3.4087   -1.5738    1.0074 H   0  0  0  0  0  0  0  0  0  0  0  0
    1.3569   -0.2183    0.2408 H   0  0  0  0  0  0  0  0  0  0  0  0
  1  2  2  0
  2  3  1  0
  3  4  1  0
  4  5  1  0
  5  6  1  0
  6  7  1  0
  7  8  2  0
  8  9  1  0
  9 10  2  0
 10 11  1  0
 10 12  1  0
 12 13  2  0
  5 14  1  0
 14 15  1  0
 15 16  2  0
 15 17  2  0
 15 18  1  0
 18 19  2  0
 19 20  1  0
 20 21  2  0
 21 22  1  0
 22 23  2  0
  2 24  1  0
 24 25  2  0
 25 26  1  0
 26 27  1  0
 26 28  2  0
 28 29  1  0
 29 30  2  0
 29 31  1  0
 31 32  2  0
 32 33  1  0
 32 34  1  0
 34 35  2  0
 35 36  1  0
 36 37  2  0
 37 38  1  0
 38 39  2  0
 38 40  1  0
 28 41  1  0
 41 42  1  0
 41 43  2  0
 13  7  1  0
 23 18  1  0
 43 24  1  0
 37 31  1  0
  4 44  1  0
  4 45  1  0
  5 46  1  6
  6 47  1  0
  6 48  1  0
  8 49  1  0
  9 50  1  0
 11 51  1  0
 12 52  1  0
 13 53  1  0
 14 54  1  0
 19 55  1  0
 20 56  1  0
 21 57  1  0
 22 58  1  0
 23 59  1  0
 25 60  1  0
 27 61  1  0
 33 62  1  0
 34 63  1  0
 35 64  1  0
 36 65  1  0
 40 66  1  0
 42 67  1  0
 43 68  1  0
M  END
$$$$
