@<TRIPOS>MOLECULE
*****
 84 89 0 0 0
SMALL
GASTEIGER

@<TRIPOS>ATOM
      1 C           1.0384   -2.7678   -3.0347 C.3     1  UNL1        0.0817
      2 O           1.2631   -2.4504   -1.6770 O.3     1  UNL1       -0.4677
      3 C           0.1997   -2.0334   -0.9194 C.2     1  UNL1        0.3128
      4 O          -0.9116   -1.9595   -1.4827 O.2     1  UNL1       -0.2504
      5 C           0.2784   -1.6686    0.5079 C.3     1  UNL1        0.0891
      6 C           1.2049   -0.5103    0.8070 C.3     1  UNL1       -0.0197
      7 C           2.6179   -0.7802    0.4783 C.3     1  UNL1       -0.0278
      8 C           3.2551   -0.0235   -0.6113 C.3     1  UNL1        0.0512
      9 C           4.7171    0.1658   -0.3505 C.ar    1  UNL1        0.0376
     10 N           5.6116   -0.4284    0.4572 N.ar    1  UNL1       -0.3564
     11 C           6.8114    0.1528    0.2794 C.ar    1  UNL1        0.0505
     12 C           8.0231   -0.0883    0.8566 C.ar    1  UNL1        0.0040
     13 C           9.1386    0.6599    0.4998 C.ar    1  UNL1        0.1221
     14 O          10.3197    0.3602    1.1213 O.3     1  UNL1       -0.4950
     15 C          11.4871    1.0901    0.7962 C.3     1  UNL1        0.0788
     16 C           9.0561    1.6592   -0.4389 C.ar    1  UNL1       -0.0193
     17 C           7.8100    1.8930   -1.0194 C.ar    1  UNL1       -0.0489
     18 C           6.6992    1.1500   -0.6661 C.ar    1  UNL1        0.0034
     19 C           5.3711    1.1478   -1.0559 C.ar    1  UNL1       -0.0164
     20 C           4.7153    2.0273   -2.0541 C.3     1  UNL1       -0.0125
     21 C           3.2502    1.7539   -2.1356 C.3     1  UNL1        0.0036
     22 N           2.7126    1.2951   -0.8444 N.3     1  UNL1       -0.2934
     23 C           1.2873    1.0983   -1.0617 C.3     1  UNL1        0.0028
     24 C           0.6968    0.7948    0.2998 C.3     1  UNL1       -0.0211
     25 C          -0.7909    0.9129    0.2681 C.3     1  UNL1       -0.0089
     26 C          -1.5512   -0.0465    1.1102 C.3     1  UNL1        0.1304
     27 O          -2.9120   -0.0109    0.6628 O.3     1  UNL1       -0.4552
     28 C          -3.9558    0.4429    1.4461 C.2     1  UNL1        0.3398
     29 O          -3.7035    0.8423    2.6005 O.2     1  UNL1       -0.2449
     30 C          -5.3387    0.4785    0.9915 C.ar    1  UNL1        0.0661
     31 C          -5.6996    0.0487   -0.2835 C.ar    1  UNL1       -0.0021
     32 C          -6.9950    0.0639   -0.7529 C.ar    1  UNL1        0.1660
     33 O          -7.3470   -0.3649   -2.0204 O.3     1  UNL1       -0.4913
     34 C          -6.4875   -0.8639   -2.9954 C.3     1  UNL1        0.0790
     35 C          -8.0173    0.5321    0.0788 C.ar    1  UNL1        0.2035
     36 O          -9.3265    0.5517   -0.3860 O.3     1  UNL1       -0.4885
     37 C         -10.0991   -0.6308   -0.1485 C.3     1  UNL1        0.0791
     38 C          -7.6621    0.9572    1.3390 C.ar    1  UNL1        0.1660
     39 O          -8.6840    1.4195    2.1558 O.3     1  UNL1       -0.4913
     40 C          -8.4706    1.8857    3.4690 C.3     1  UNL1        0.0790
     41 C          -6.3617    0.9358    1.7942 C.ar    1  UNL1       -0.0021
     42 C          -1.0755   -1.4450    1.1180 C.3     1  UNL1        0.1083
     43 O          -1.1236   -1.9396    2.4214 O.3     1  UNL1       -0.3753
     44 C          -2.0083   -3.0179    2.5401 C.3     1  UNL1        0.0370
     45 H           1.8619   -3.3403   -3.4905 H       1  UNL1        0.0661
     46 H           0.8502   -1.8237   -3.6251 H       1  UNL1        0.0661
     47 H           0.0756   -3.3262   -3.0696 H       1  UNL1        0.0661
     48 H           0.7239   -2.5544    1.0306 H       1  UNL1        0.0443
     49 H           1.1443   -0.4317    1.9407 H       1  UNL1        0.0313
     50 H           2.6905   -1.8783    0.2121 H       1  UNL1        0.0287
     51 H           3.2988   -0.7074    1.3804 H       1  UNL1        0.0287
     52 H           3.2255   -0.5359   -1.6185 H       1  UNL1        0.0527
     53 H           5.3992   -1.2102    1.1100 H       1  UNL1        0.1656
     54 H           8.1103   -0.8709    1.5971 H       1  UNL1        0.0675
     55 H          11.5918    1.0500   -0.3241 H       1  UNL1        0.0660
     56 H          12.3453    0.5540    1.2697 H       1  UNL1        0.0660
     57 H          11.4268    2.1444    1.0908 H       1  UNL1        0.0660
     58 H           9.9394    2.2133   -0.6868 H       1  UNL1        0.0654
     59 H           7.7084    2.6610   -1.7527 H       1  UNL1        0.0625
     60 H           5.1935    1.8559   -3.0506 H       1  UNL1        0.0326
     61 H           4.8785    3.1158   -1.8315 H       1  UNL1        0.0326
     62 H           2.9719    1.0486   -2.9351 H       1  UNL1        0.0430
     63 H           2.7105    2.7134   -2.3657 H       1  UNL1        0.0430
     64 H           0.8547    2.0530   -1.3921 H       1  UNL1        0.0429
     65 H           1.0925    0.2922   -1.7952 H       1  UNL1        0.0429
     66 H           1.1167    1.5912    0.9796 H       1  UNL1        0.0317
     67 H          -1.0753    1.9466    0.5933 H       1  UNL1        0.0305
     68 H          -1.1101    0.8750   -0.8090 H       1  UNL1        0.0305
     69 H          -1.5751    0.3496    2.1464 H       1  UNL1        0.0760
     70 H          -4.8845   -0.3094   -0.9061 H       1  UNL1        0.0663
     71 H          -6.9539   -1.7982   -3.3948 H       1  UNL1        0.0660
     72 H          -6.3947   -0.1932   -3.8763 H       1  UNL1        0.0660
     73 H          -5.4896   -1.1589   -2.6442 H       1  UNL1        0.0660
     74 H         -10.6559   -0.9182   -1.0582 H       1  UNL1        0.0660
     75 H         -10.7532   -0.4113    0.7094 H       1  UNL1        0.0660
     76 H          -9.4598   -1.4908    0.1271 H       1  UNL1        0.0660
     77 H          -7.9219    2.8318    3.4993 H       1  UNL1        0.0660
     78 H          -9.4561    1.9076    3.9747 H       1  UNL1        0.0660
     79 H          -7.8397    1.1150    3.9817 H       1  UNL1        0.0660
     80 H          -6.0906    1.2731    2.7903 H       1  UNL1        0.0663
     81 H          -1.7822   -2.0743    0.5265 H       1  UNL1        0.0641
     82 H          -2.0079   -3.3716    3.5908 H       1  UNL1        0.0524
     83 H          -3.0461   -2.6284    2.3480 H       1  UNL1        0.0524
     84 H          -1.7568   -3.8478    1.8712 H       1  UNL1        0.0524
@<TRIPOS>BOND
     1     1     2    1
     2     2     3    1
     3     3     4    2
     4     3     5    1
     5     5     6    1
     6     6     7    1
     7     7     8    1
     8     8     9    1
     9     9    10   ar
    10    10    11   ar
    11    11    12   ar
    12    12    13   ar
    13    13    14    1
    14    14    15    1
    15    13    16   ar
    16    16    17   ar
    17    17    18   ar
    18    18    19   ar
    19    19    20    1
    20    20    21    1
    21    21    22    1
    22    22    23    1
    23    23    24    1
    24    24    25    1
    25    25    26    1
    26    26    27    1
    27    27    28    1
    28    28    29    2
    29    28    30    1
    30    30    31   ar
    31    31    32   ar
    32    32    33    1
    33    33    34    1
    34    32    35   ar
    35    35    36    1
    36    36    37    1
    37    35    38   ar
    38    38    39    1
    39    39    40    1
    40    38    41   ar
    41    26    42    1
    42    42    43    1
    43    43    44    1
    44    42     5    1
    45    24     6    1
    46    41    30   ar
    47    22     8    1
    48    19     9   ar
    49    18    11   ar
    50     1    45    1
    51     1    46    1
    52     1    47    1
    53     5    48    1
    54     6    49    1
    55     7    50    1
    56     7    51    1
    57     8    52    1
    58    10    53    1
    59    12    54    1
    60    15    55    1
    61    15    56    1
    62    15    57    1
    63    16    58    1
    64    17    59    1
    65    20    60    1
    66    20    61    1
    67    21    62    1
    68    21    63    1
    69    23    64    1
    70    23    65    1
    71    24    66    1
    72    25    67    1
    73    25    68    1
    74    26    69    1
    75    31    70    1
    76    34    71    1
    77    34    72    1
    78    34    73    1
    79    37    74    1
    80    37    75    1
    81    37    76    1
    82    40    77    1
    83    40    78    1
    84    40    79    1
    85    41    80    1
    86    42    81    1
    87    44    82    1
    88    44    83    1
    89    44    84    1
