
     RDKit          3D

 84 89  0  0  0  0  0  0  0  0999 V2000
    1.0384   -2.7678   -3.0347 C   0  0  0  0  0  0  0  0  0  0  0  0
    1.2631   -2.4504   -1.6770 O   0  0  0  0  0  0  0  0  0  0  0  0
    0.1997   -2.0334   -0.9194 C   0  0  0  0  0  0  0  0  0  0  0  0
   -0.9116   -1.9595   -1.4827 O   0  0  0  0  0  0  0  0  0  0  0  0
    0.2784   -1.6686    0.5079 C   0  0  1  0  0  0  0  0  0  0  0  0
    1.2049   -0.5103    0.8070 C   0  0  1  0  0  0  0  0  0  0  0  0
    2.6179   -0.7802    0.4783 C   0  0  0  0  0  0  0  0  0  0  0  0
    3.2551   -0.0235   -0.6113 C   0  0  2  0  0  0  0  0  0  0  0  0
    4.7171    0.1658   -0.3505 C   0  0  0  0  0  0  0  0  0  0  0  0
    5.6116   -0.4284    0.4572 N   0  0  0  0  0  0  0  0  0  0  0  0
    6.8114    0.1528    0.2794 C   0  0  0  0  0  0  0  0  0  0  0  0
    8.0231   -0.0883    0.8566 C   0  0  0  0  0  0  0  0  0  0  0  0
    9.1386    0.6599    0.4998 C   0  0  0  0  0  0  0  0  0  0  0  0
   10.3197    0.3602    1.1213 O   0  0  0  0  0  0  0  0  0  0  0  0
   11.4871    1.0901    0.7962 C   0  0  0  0  0  0  0  0  0  0  0  0
    9.0561    1.6592   -0.4389 C   0  0  0  0  0  0  0  0  0  0  0  0
    7.8100    1.8930   -1.0194 C   0  0  0  0  0  0  0  0  0  0  0  0
    6.6992    1.1500   -0.6661 C   0  0  0  0  0  0  0  0  0  0  0  0
    5.3711    1.1478   -1.0559 C   0  0  0  0  0  0  0  0  0  0  0  0
    4.7153    2.0273   -2.0541 C   0  0  0  0  0  0  0  0  0  0  0  0
    3.2502    1.7539   -2.1356 C   0  0  0  0  0  0  0  0  0  0  0  0
    2.7126    1.2951   -0.8444 N   0  0  0  0  0  0  0  0  0  0  0  0
    1.2873    1.0983   -1.0617 C   0  0  0  0  0  0  0  0  0  0  0  0
    0.6968    0.7948    0.2998 C   0  0  1  0  0  0  0  0  0  0  0  0
   -0.7909    0.9129    0.2681 C   0  0  0  0  0  0  0  0  0  0  0  0
   -1.5512   -0.0465    1.1102 C   0  0  1  0  0  0  0  0  0  0  0  0
   -2.9120   -0.0109    0.6628 O   0  0  0  0  0  0  0  0  0  0  0  0
   -3.9558    0.4429    1.4461 C   0  0  0  0  0  0  0  0  0  0  0  0
   -3.7035    0.8423    2.6005 O   0  0  0  0  0  0  0  0  0  0  0  0
   -5.3387    0.4785    0.9915 C   0  0  0  0  0  0  0  0  0  0  0  0
   -5.6996    0.0487   -0.2835 C   0  0  0  0  0  0  0  0  0  0  0  0
   -6.9950    0.0639   -0.7529 C   0  0  0  0  0  0  0  0  0  0  0  0
   -7.3470   -0.3649   -2.0204 O   0  0  0  0  0  0  0  0  0  0  0  0
   -6.4875   -0.8639   -2.9954 C   0  0  0  0  0  0  0  0  0  0  0  0
   -8.0173    0.5321    0.0788 C   0  0  0  0  0  0  0  0  0  0  0  0
   -9.3265    0.5517   -0.3860 O   0  0  0  0  0  0  0  0  0  0  0  0
  -10.0991   -0.6308   -0.1485 C   0  0  0  0  0  0  0  0  0  0  0  0
   -7.6621    0.9572    1.3390 C   0  0  0  0  0  0  0  0  0  0  0  0
   -8.6840    1.4195    2.1558 O   0  0  0  0  0  0  0  0  0  0  0  0
   -8.4706    1.8857    3.4690 C   0  0  0  0  0  0  0  0  0  0  0  0
   -6.3617    0.9358    1.7942 C   0  0  0  0  0  0  0  0  0  0  0  0
   -1.0755   -1.4450    1.1180 C   0  0  2  0  0  0  0  0  0  0  0  0
   -1.1236   -1.9396    2.4214 O   0  0  0  0  0  0  0  0  0  0  0  0
   -2.0083   -3.0179    2.5401 C   0  0  0  0  0  0  0  0  0  0  0  0
    1.8619   -3.3403   -3.4905 H   0  0  0  0  0  0  0  0  0  0  0  0
    0.8502   -1.8237   -3.6251 H   0  0  0  0  0  0  0  0  0  0  0  0
    0.0756   -3.3262   -3.0696 H   0  0  0  0  0  0  0  0  0  0  0  0
    0.7239   -2.5544    1.0306 H   0  0  0  0  0  0  0  0  0  0  0  0
    1.1443   -0.4317    1.9407 H   0  0  0  0  0  0  0  0  0  0  0  0
    2.6905   -1.8783    0.2121 H   0  0  0  0  0  0  0  0  0  0  0  0
    3.2988   -0.7074    1.3804 H   0  0  0  0  0  0  0  0  0  0  0  0
    3.2255   -0.5359   -1.6185 H   0  0  0  0  0  0  0  0  0  0  0  0
    5.3992   -1.2102    1.1100 H   0  0  0  0  0  0  0  0  0  0  0  0
    8.1103   -0.8709    1.5971 H   0  0  0  0  0  0  0  0  0  0  0  0
   11.5918    1.0500   -0.3241 H   0  0  0  0  0  0  0  0  0  0  0  0
   12.3453    0.5540    1.2697 H   0  0  0  0  0  0  0  0  0  0  0  0
   11.4268    2.1444    1.0908 H   0  0  0  0  0  0  0  0  0  0  0  0
    9.9394    2.2133   -0.6868 H   0  0  0  0  0  0  0  0  0  0  0  0
    7.7084    2.6610   -1.7527 H   0  0  0  0  0  0  0  0  0  0  0  0
    5.1935    1.8559   -3.0506 H   0  0  0  0  0  0  0  0  0  0  0  0
    4.8785    3.1158   -1.8315 H   0  0  0  0  0  0  0  0  0  0  0  0
    2.9719    1.0486   -2.9351 H   0  0  0  0  0  0  0  0  0  0  0  0
    2.7105    2.7134   -2.3657 H   0  0  0  0  0  0  0  0  0  0  0  0
    0.8547    2.0530   -1.3921 H   0  0  0  0  0  0  0  0  0  0  0  0
    1.0925    0.2922   -1.7952 H   0  0  0  0  0  0  0  0  0  0  0  0
    1.1167    1.5912    0.9796 H   0  0  0  0  0  0  0  0  0  0  0  0
   -1.0753    1.9466    0.5933 H   0  0  0  0  0  0  0  0  0  0  0  0
   -1.1101    0.8750   -0.8090 H   0  0  0  0  0  0  0  0  0  0  0  0
   -1.5751    0.3496    2.1464 H   0  0  0  0  0  0  0  0  0  0  0  0
   -4.8845   -0.3094   -0.9061 H   0  0  0  0  0  0  0  0  0  0  0  0
   -6.9539   -1.7982   -3.3948 H   0  0  0  0  0  0  0  0  0  0  0  0
   -6.3947   -0.1932   -3.8763 H   0  0  0  0  0  0  0  0  0  0  0  0
   -5.4896   -1.1589   -2.6442 H   0  0  0  0  0  0  0  0  0  0  0  0
  -10.6559   -0.9182   -1.0582 H   0  0  0  0  0  0  0  0  0  0  0  0
  -10.7532   -0.4113    0.7094 H   0  0  0  0  0  0  0  0  0  0  0  0
   -9.4598   -1.4908    0.1271 H   0  0  0  0  0  0  0  0  0  0  0  0
   -7.9219    2.8318    3.4993 H   0  0  0  0  0  0  0  0  0  0  0  0
   -9.4561    1.9076    3.9747 H   0  0  0  0  0  0  0  0  0  0  0  0
   -7.8397    1.1150    3.9817 H   0  0  0  0  0  0  0  0  0  0  0  0
   -6.0906    1.2731    2.7903 H   0  0  0  0  0  0  0  0  0  0  0  0
   -1.7822   -2.0743    0.5265 H   0  0  0  0  0  0  0  0  0  0  0  0
   -2.0079   -3.3716    3.5908 H   0  0  0  0  0  0  0  0  0  0  0  0
   -3.0461   -2.6284    2.3480 H   0  0  0  0  0  0  0  0  0  0  0  0
   -1.7568   -3.8478    1.8712 H   0  0  0  0  0  0  0  0  0  0  0  0
  1  2  1  0
  2  3  1  0
  3  4  2  0
  3  5  1  0
  5  6  1  0
  6  7  1  0
  7  8  1  0
  8  9  1  0
  9 10  1  0
 10 11  1  0
 11 12  2  0
 12 13  1  0
 13 14  1  0
 14 15  1  0
 13 16  2  0
 16 17  1  0
 17 18  2  0
 18 19  1  0
 19 20  1  0
 20 21  1  0
 21 22  1  0
 22 23  1  0
 23 24  1  0
 24 25  1  0
 25 26  1  0
 26 27  1  0
 27 28  1  0
 28 29  2  0
 28 30  1  0
 30 31  2  0
 31 32  1  0
 32 33  1  0
 33 34  1  0
 32 35  2  0
 35 36  1  0
 36 37  1  0
 35 38  1  0
 38 39  1  0
 39 40  1  0
 38 41  2  0
 26 42  1  0
 42 43  1  0
 43 44  1  0
 42  5  1  0
 24  6  1  0
 41 30  1  0
 22  8  1  0
 19  9  2  0
 18 11  1  0
  1 45  1  0
  1 46  1  0
  1 47  1  0
  5 48  1  1
  6 49  1  1
  7 50  1  0
  7 51  1  0
  8 52  1  6
 10 53  1  0
 12 54  1  0
 15 55  1  0
 15 56  1  0
 15 57  1  0
 16 58  1  0
 17 59  1  0
 20 60  1  0
 20 61  1  0
 21 62  1  0
 21 63  1  0
 23 64  1  0
 23 65  1  0
 24 66  1  1
 25 67  1  0
 25 68  1  0
 26 69  1  1
 31 70  1  0
 34 71  1  0
 34 72  1  0
 34 73  1  0
 37 74  1  0
 37 75  1  0
 37 76  1  0
 40 77  1  0
 40 78  1  0
 40 79  1  0
 41 80  1  0
 42 81  1  6
 44 82  1  0
 44 83  1  0
 44 84  1  0
M  END
$$$$
