@<TRIPOS>MOLECULE
*****
 30 31 0 0 0
SMALL
GASTEIGER

@<TRIPOS>ATOM
      1 O           1.2331   -0.4086    2.0880 O.2     1  UNL1       -0.2705
      2 C           0.6582   -0.1992    0.9756 C.2     1  UNL1        0.2411
      3 C          -0.7898   -0.0943    0.9412 C.2     1  UNL1        0.0010
      4 C          -1.4347    0.1199   -0.1708 C.2     1  UNL1       -0.0497
      5 C          -2.8905    0.2251   -0.2035 C.ar    1  UNL1       -0.0249
      6 C          -3.6866    0.1097    0.9117 C.ar    1  UNL1       -0.0546
      7 C          -5.0662    0.2318    0.7339 C.ar    1  UNL1       -0.0612
      8 C          -5.6515    0.4560   -0.4705 C.ar    1  UNL1       -0.0617
      9 C          -4.8415    0.5702   -1.5839 C.ar    1  UNL1       -0.0612
     10 C          -3.4900    0.4569   -1.4512 C.ar    1  UNL1       -0.0546
     11 N           1.4457   -0.0798   -0.1611 N.am    1  UNL1       -0.2820
     12 C           2.8857   -0.1844   -0.1253 C.ar    1  UNL1        0.0337
     13 C           3.6769    0.9268    0.0700 C.ar    1  UNL1       -0.0405
     14 C           5.0369    0.8244    0.1034 C.ar    1  UNL1       -0.0600
     15 C           5.6652   -0.4109   -0.0596 C.ar    1  UNL1       -0.0616
     16 C           4.8935   -1.5361   -0.2563 C.ar    1  UNL1       -0.0600
     17 C           3.5215   -1.3976   -0.2847 C.ar    1  UNL1       -0.0405
     18 H          -1.3785   -0.1941    1.8606 H       1  UNL1        0.0670
     19 H          -0.8962    0.2270   -1.1148 H       1  UNL1        0.0625
     20 H          -3.2897   -0.0679    1.8957 H       1  UNL1        0.0623
     21 H          -5.6923    0.1416    1.6069 H       1  UNL1        0.0618
     22 H          -6.7194    0.5484   -0.5943 H       1  UNL1        0.0618
     23 H          -5.2626    0.7500   -2.5716 H       1  UNL1        0.0618
     24 H          -2.8773    0.5485   -2.3276 H       1  UNL1        0.0623
     25 H           1.0434    0.0907   -1.0961 H       1  UNL1        0.1551
     26 H           3.2185    1.8757    0.1961 H       1  UNL1        0.0636
     27 H           5.6156    1.7134    0.2577 H       1  UNL1        0.0618
     28 H           6.7395   -0.4813   -0.0317 H       1  UNL1        0.0618
     29 H           5.4097   -2.4783   -0.3793 H       1  UNL1        0.0618
     30 H           2.9233   -2.2837   -0.4392 H       1  UNL1        0.0636
@<TRIPOS>BOND
     1     1     2    2
     2     2     3    1
     3     3     4    2
     4     4     5    1
     5     5     6   ar
     6     6     7   ar
     7     7     8   ar
     8     8     9   ar
     9     9    10   ar
    10     2    11   am
    11    11    12    1
    12    12    13   ar
    13    13    14   ar
    14    14    15   ar
    15    15    16   ar
    16    16    17   ar
    17    10     5   ar
    18    17    12   ar
    19     3    18    1
    20     4    19    1
    21     6    20    1
    22     7    21    1
    23     8    22    1
    24     9    23    1
    25    10    24    1
    26    11    25    1
    27    13    26    1
    28    14    27    1
    29    15    28    1
    30    16    29    1
    31    17    30    1
