@<TRIPOS>MOLECULE
*****
 36 38 0 0 0
SMALL
GASTEIGER

@<TRIPOS>ATOM
      1 C          -2.3295   -2.6079    0.5874 C.3     1  UNL1       -0.0062
      2 C          -2.5430   -1.1240    0.4400 C.ar    1  UNL1        0.1079
      3 N          -3.4513   -0.4144    1.1333 N.ar    1  UNL1       -0.2326
      4 C          -3.3555    0.8763    0.7385 C.ar    1  UNL1        0.0893
      5 C          -4.0737    1.9667    1.1619 C.ar    1  UNL1       -0.0342
      6 C          -3.7832    3.1975    0.5968 C.ar    1  UNL1       -0.0596
      7 C          -2.7954    3.2967   -0.3624 C.ar    1  UNL1       -0.0597
      8 C          -2.0894    2.2029   -0.7735 C.ar    1  UNL1       -0.0360
      9 C          -2.3649    0.9533   -0.2181 C.ar    1  UNL1        0.0691
     10 N          -1.8896   -0.2805   -0.3777 N.ar    1  UNL1       -0.3232
     11 C          -0.8485   -0.6764   -1.2707 C.3     1  UNL1        0.0527
     12 C           0.5081   -0.6095   -0.6614 C.ar    1  UNL1        0.0075
     13 C           0.7083   -0.2041    0.6316 C.ar    1  UNL1       -0.0534
     14 C           1.9893   -0.1759    1.1004 C.ar    1  UNL1       -0.0491
     15 C           3.0689   -0.5415    0.3113 C.ar    1  UNL1        0.0414
     16 C           4.4017   -0.4979    0.8427 C.2     1  UNL1        0.2666
     17 O           4.5838   -0.1267    2.0261 O.2     1  UNL1       -0.2681
     18 N           5.5195   -0.8644    0.0624 N.am    1  UNL1       -0.1935
     19 O           6.7685   -0.7962    0.6433 O.3     1  UNL1       -0.2949
     20 C           2.8481   -0.9446   -0.9808 C.ar    1  UNL1       -0.0139
     21 C           1.5559   -0.9806   -1.4766 C.ar    1  UNL1        0.1290
     22 F           1.3623   -1.3846   -2.7632 F       1  UNL1       -0.2051
     23 H          -3.2070   -3.1527    0.1757 H       1  UNL1        0.0307
     24 H          -2.1622   -2.8379    1.6647 H       1  UNL1        0.0307
     25 H          -1.4577   -2.9123   -0.0270 H       1  UNL1        0.0307
     26 H          -4.8604    1.8912    1.9250 H       1  UNL1        0.0639
     27 H          -4.3050    4.0820    0.8827 H       1  UNL1        0.0618
     28 H          -2.5654    4.2517   -0.8053 H       1  UNL1        0.0618
     29 H          -1.2990    2.2362   -1.5301 H       1  UNL1        0.0639
     30 H          -0.9216   -0.0427   -2.1830 H       1  UNL1        0.0543
     31 H          -0.9756   -1.7307   -1.6306 H       1  UNL1        0.0543
     32 H          -0.1622    0.0711    1.2082 H       1  UNL1        0.0622
     33 H           2.1323    0.1513    2.1383 H       1  UNL1        0.0625
     34 H           5.4651   -1.1857   -0.9312 H       1  UNL1        0.1825
     35 H           6.8989    0.1636    0.8450 H       1  UNL1        0.2414
     36 H           3.6293   -1.2493   -1.6738 H       1  UNL1        0.0654
@<TRIPOS>BOND
     1     1     2    1
     2     2     3   ar
     3     3     4   ar
     4     4     5   ar
     5     5     6   ar
     6     6     7   ar
     7     7     8   ar
     8     8     9   ar
     9     9    10   ar
    10    10    11    1
    11    11    12    1
    12    12    13   ar
    13    13    14   ar
    14    14    15   ar
    15    15    16    1
    16    16    17    2
    17    16    18   am
    18    18    19    1
    19    15    20   ar
    20    20    21   ar
    21    21    22    1
    22    10     2   ar
    23    21    12   ar
    24     9     4   ar
    25     1    23    1
    26     1    24    1
    27     1    25    1
    28     5    26    1
    29     6    27    1
    30     7    28    1
    31     8    29    1
    32    11    30    1
    33    11    31    1
    34    13    32    1
    35    14    33    1
    36    18    34    1
    37    19    35    1
    38    20    36    1
