@<TRIPOS>MOLECULE
*****
 32 34 0 0 0
SMALL
GASTEIGER

@<TRIPOS>ATOM
      1 O           1.6284   -0.9331    3.0971 O.2     1  UNL1       -0.2830
      2 C           1.2978   -0.5958    1.9297 C.ar    1  UNL1        0.2379
      3 C          -0.0485   -0.4731    1.5585 C.ar    1  UNL1        0.2082
      4 O          -0.9627   -0.7480    2.5613 O.3     1  UNL1       -0.5007
      5 C          -0.4346   -0.1122    0.3112 C.ar    1  UNL1        0.1807
      6 C          -1.8184    0.0272   -0.1170 C.ar    1  UNL1        0.0247
      7 C          -2.9203   -0.1797    0.6553 C.ar    1  UNL1       -0.0473
      8 C          -4.2177   -0.0155    0.1365 C.ar    1  UNL1       -0.0159
      9 C          -4.4206    0.3576   -1.1615 C.ar    1  UNL1        0.1583
     10 O          -5.7015    0.5076   -1.6313 O.3     1  UNL1       -0.5033
     11 C          -3.3337    0.5743   -1.9673 C.ar    1  UNL1        0.1589
     12 O          -3.4982    0.9603   -3.3121 O.3     1  UNL1       -0.5033
     13 C          -2.0744    0.4096   -1.4451 C.ar    1  UNL1       -0.0057
     14 O           0.5451    0.1260   -0.5658 O.2     1  UNL1       -0.4507
     15 C           1.8131    0.0279   -0.2775 C.ar    1  UNL1        0.1465
     16 C           2.7759    0.2964   -1.2599 C.ar    1  UNL1        0.0231
     17 C           4.1264    0.2089   -1.0121 C.ar    1  UNL1        0.1239
     18 O           5.0827    0.4751   -1.9863 O.3     1  UNL1       -0.5065
     19 C           4.5154   -0.1588    0.2589 C.ar    1  UNL1        0.0223
     20 C           3.5995   -0.4309    1.2520 C.ar    1  UNL1        0.1348
     21 O           3.9724   -0.7985    2.5235 O.3     1  UNL1       -0.5058
     22 C           2.2480   -0.3356    0.9770 C.ar    1  UNL1        0.1092
     23 H          -0.8230   -1.5840    3.1072 H       1  UNL1        0.2924
     24 H          -2.8105   -0.4745    1.6830 H       1  UNL1        0.0626
     25 H          -5.0280   -0.1966    0.8060 H       1  UNL1        0.0655
     26 H          -6.5084    0.6997   -1.0538 H       1  UNL1        0.2923
     27 H          -3.8063    1.9386   -3.4209 H       1  UNL1        0.2923
     28 H          -1.1995    0.5775   -2.0711 H       1  UNL1        0.0662
     29 H           2.4257    0.5825   -2.2468 H       1  UNL1        0.0691
     30 H           5.6432   -0.3055   -2.3228 H       1  UNL1        0.2921
     31 H           5.5919   -0.2343    0.4764 H       1  UNL1        0.0691
     32 H           4.3407   -0.1931    3.2314 H       1  UNL1        0.2922
@<TRIPOS>BOND
     1     1     2    2
     2     2     3   ar
     3     3     4    1
     4     3     5   ar
     5     5     6    1
     6     6     7   ar
     7     7     8   ar
     8     8     9   ar
     9     9    10    1
    10     9    11   ar
    11    11    12    1
    12    11    13   ar
    13     5    14   ar
    14    14    15   ar
    15    15    16   ar
    16    16    17   ar
    17    17    18    1
    18    17    19   ar
    19    19    20   ar
    20    20    21    1
    21    20    22   ar
    22    22     2   ar
    23    13     6   ar
    24    22    15   ar
    25     4    23    1
    26     7    24    1
    27     8    25    1
    28    10    26    1
    29    12    27    1
    30    13    28    1
    31    16    29    1
    32    18    30    1
    33    19    31    1
    34    21    32    1
