@<TRIPOS>MOLECULE
*****
 42 43 0 0 0
SMALL
GASTEIGER

@<TRIPOS>ATOM
      1 C           0.5336   -1.3433    0.2221 C.3     1  UNL1       -0.0093
      2 C           0.3974   -2.0148   -1.0813 C.3     1  UNL1       -0.0485
      3 C           1.7958   -2.4975   -1.5132 C.3     1  UNL1       -0.0647
      4 C           1.4527   -0.1805    0.1370 C.ar    1  UNL1       -0.0435
      5 C           1.4510    0.7761   -0.8466 C.ar    1  UNL1       -0.0548
      6 C           2.2977    1.8595   -0.9174 C.ar    1  UNL1       -0.0199
      7 C           3.2397    2.0223    0.0726 C.ar    1  UNL1        0.1169
      8 O           4.1165    3.0871    0.0577 O.3     1  UNL1       -0.5068
      9 C           3.3289    1.1177    1.1098 C.ar    1  UNL1       -0.0199
     10 C           2.4414    0.0634    1.1010 C.ar    1  UNL1       -0.0548
     11 C          -0.6913   -0.9346    0.9552 C.3     1  UNL1       -0.0093
     12 C          -1.6565   -1.9888    1.3572 C.3     1  UNL1       -0.0485
     13 C          -2.3022   -2.8481    0.3661 C.3     1  UNL1       -0.0647
     14 C          -1.3347    0.3143    0.4747 C.ar    1  UNL1       -0.0435
     15 C          -1.3649    1.4507    1.2988 C.ar    1  UNL1       -0.0548
     16 C          -1.9368    2.6654    0.9622 C.ar    1  UNL1       -0.0199
     17 C          -2.5287    2.7904   -0.2752 C.ar    1  UNL1        0.1169
     18 O          -3.1072    3.9729   -0.6516 O.3     1  UNL1       -0.5068
     19 C          -2.5355    1.7155   -1.1350 C.ar    1  UNL1       -0.0199
     20 C          -1.9488    0.5365   -0.7372 C.ar    1  UNL1       -0.0548
     21 H           1.0733   -2.0452    0.9299 H       1  UNL1        0.0355
     22 H          -0.2374   -2.8869   -1.1584 H       1  UNL1        0.0269
     23 H           0.1016   -1.3427   -1.9213 H       1  UNL1        0.0269
     24 H           2.1274   -3.2215   -0.7392 H       1  UNL1        0.0230
     25 H           1.6887   -3.0655   -2.4560 H       1  UNL1        0.0230
     26 H           2.4957   -1.6596   -1.5802 H       1  UNL1        0.0230
     27 H           0.7446    0.6993   -1.6516 H       1  UNL1        0.0622
     28 H           2.2494    2.5738   -1.7091 H       1  UNL1        0.0654
     29 H           5.0211    3.0576    0.5058 H       1  UNL1        0.2921
     30 H           4.0478    1.2080    1.8998 H       1  UNL1        0.0654
     31 H           2.5276   -0.6487    1.9370 H       1  UNL1        0.0622
     32 H          -0.2509   -0.6015    1.9734 H       1  UNL1        0.0355
     33 H          -1.2257   -2.6540    2.1734 H       1  UNL1        0.0269
     34 H          -2.4688   -1.4449    1.9372 H       1  UNL1        0.0269
     35 H          -3.3572   -3.0856    0.7261 H       1  UNL1        0.0230
     36 H          -1.8696   -3.8674    0.2580 H       1  UNL1        0.0230
     37 H          -2.4985   -2.3722   -0.6101 H       1  UNL1        0.0230
     38 H          -0.9240    1.4542    2.2967 H       1  UNL1        0.0622
     39 H          -1.9364    3.5142    1.6296 H       1  UNL1        0.0654
     40 H          -3.9858    4.2825   -0.3013 H       1  UNL1        0.2921
     41 H          -2.9964    1.7993   -2.1091 H       1  UNL1        0.0654
     42 H          -1.9743   -0.2579   -1.4393 H       1  UNL1        0.0622
@<TRIPOS>BOND
     1     1     2    1
     2     2     3    1
     3     1     4    1
     4     4     5   ar
     5     5     6   ar
     6     6     7   ar
     7     7     8    1
     8     7     9   ar
     9     9    10   ar
    10     1    11    1
    11    11    12    1
    12    12    13    1
    13    11    14    1
    14    14    15   ar
    15    15    16   ar
    16    16    17   ar
    17    17    18    1
    18    17    19   ar
    19    19    20   ar
    20    10     4   ar
    21    20    14   ar
    22     1    21    1
    23     2    22    1
    24     2    23    1
    25     3    24    1
    26     3    25    1
    27     3    26    1
    28     5    27    1
    29     6    28    1
    30     8    29    1
    31     9    30    1
    32    10    31    1
    33    11    32    1
    34    12    33    1
    35    12    34    1
    36    13    35    1
    37    13    36    1
    38    13    37    1
    39    15    38    1
    40    16    39    1
    41    18    40    1
    42    19    41    1
    43    20    42    1
