
     RDKit          3D

 42 43  0  0  0  0  0  0  0  0999 V2000
    0.5336   -1.3433    0.2221 C   0  0  1  0  0  0  0  0  0  0  0  0
    0.3974   -2.0148   -1.0813 C   0  0  0  0  0  0  0  0  0  0  0  0
    1.7958   -2.4975   -1.5132 C   0  0  0  0  0  0  0  0  0  0  0  0
    1.4527   -0.1805    0.1370 C   0  0  0  0  0  0  0  0  0  0  0  0
    1.4510    0.7761   -0.8466 C   0  0  0  0  0  0  0  0  0  0  0  0
    2.2977    1.8595   -0.9174 C   0  0  0  0  0  0  0  0  0  0  0  0
    3.2397    2.0223    0.0726 C   0  0  0  0  0  0  0  0  0  0  0  0
    4.1165    3.0871    0.0577 O   0  0  0  0  0  0  0  0  0  0  0  0
    3.3289    1.1177    1.1098 C   0  0  0  0  0  0  0  0  0  0  0  0
    2.4414    0.0634    1.1010 C   0  0  0  0  0  0  0  0  0  0  0  0
   -0.6913   -0.9346    0.9552 C   0  0  2  0  0  0  0  0  0  0  0  0
   -1.6565   -1.9888    1.3572 C   0  0  0  0  0  0  0  0  0  0  0  0
   -2.3022   -2.8481    0.3661 C   0  0  0  0  0  0  0  0  0  0  0  0
   -1.3347    0.3143    0.4747 C   0  0  0  0  0  0  0  0  0  0  0  0
   -1.3649    1.4507    1.2988 C   0  0  0  0  0  0  0  0  0  0  0  0
   -1.9368    2.6654    0.9622 C   0  0  0  0  0  0  0  0  0  0  0  0
   -2.5287    2.7904   -0.2752 C   0  0  0  0  0  0  0  0  0  0  0  0
   -3.1072    3.9729   -0.6516 O   0  0  0  0  0  0  0  0  0  0  0  0
   -2.5355    1.7155   -1.1350 C   0  0  0  0  0  0  0  0  0  0  0  0
   -1.9488    0.5365   -0.7372 C   0  0  0  0  0  0  0  0  0  0  0  0
    1.0733   -2.0452    0.9299 H   0  0  0  0  0  0  0  0  0  0  0  0
   -0.2374   -2.8869   -1.1584 H   0  0  0  0  0  0  0  0  0  0  0  0
    0.1016   -1.3427   -1.9213 H   0  0  0  0  0  0  0  0  0  0  0  0
    2.1274   -3.2215   -0.7392 H   0  0  0  0  0  0  0  0  0  0  0  0
    1.6887   -3.0655   -2.4560 H   0  0  0  0  0  0  0  0  0  0  0  0
    2.4957   -1.6596   -1.5802 H   0  0  0  0  0  0  0  0  0  0  0  0
    0.7446    0.6993   -1.6516 H   0  0  0  0  0  0  0  0  0  0  0  0
    2.2494    2.5738   -1.7091 H   0  0  0  0  0  0  0  0  0  0  0  0
    5.0211    3.0576    0.5058 H   0  0  0  0  0  0  0  0  0  0  0  0
    4.0478    1.2080    1.8998 H   0  0  0  0  0  0  0  0  0  0  0  0
    2.5276   -0.6487    1.9370 H   0  0  0  0  0  0  0  0  0  0  0  0
   -0.2509   -0.6015    1.9734 H   0  0  0  0  0  0  0  0  0  0  0  0
   -1.2257   -2.6540    2.1734 H   0  0  0  0  0  0  0  0  0  0  0  0
   -2.4688   -1.4449    1.9372 H   0  0  0  0  0  0  0  0  0  0  0  0
   -3.3572   -3.0856    0.7261 H   0  0  0  0  0  0  0  0  0  0  0  0
   -1.8696   -3.8674    0.2580 H   0  0  0  0  0  0  0  0  0  0  0  0
   -2.4985   -2.3722   -0.6101 H   0  0  0  0  0  0  0  0  0  0  0  0
   -0.9240    1.4542    2.2967 H   0  0  0  0  0  0  0  0  0  0  0  0
   -1.9364    3.5142    1.6296 H   0  0  0  0  0  0  0  0  0  0  0  0
   -3.9858    4.2825   -0.3013 H   0  0  0  0  0  0  0  0  0  0  0  0
   -2.9964    1.7993   -2.1091 H   0  0  0  0  0  0  0  0  0  0  0  0
   -1.9743   -0.2579   -1.4393 H   0  0  0  0  0  0  0  0  0  0  0  0
  1  2  1  0
  2  3  1  0
  1  4  1  0
  4  5  2  0
  5  6  1  0
  6  7  2  0
  7  8  1  0
  7  9  1  0
  9 10  2  0
  1 11  1  0
 11 12  1  0
 12 13  1  0
 11 14  1  0
 14 15  2  0
 15 16  1  0
 16 17  2  0
 17 18  1  0
 17 19  1  0
 19 20  2  0
 10  4  1  0
 20 14  1  0
  1 21  1  1
  2 22  1  0
  2 23  1  0
  3 24  1  0
  3 25  1  0
  3 26  1  0
  5 27  1  0
  6 28  1  0
  8 29  1  0
  9 30  1  0
 10 31  1  0
 11 32  1  1
 12 33  1  0
 12 34  1  0
 13 35  1  0
 13 36  1  0
 13 37  1  0
 15 38  1  0
 16 39  1  0
 18 40  1  0
 19 41  1  0
 20 42  1  0
M  END
$$$$
