@<TRIPOS>MOLECULE
*****
 77 80 0 0 0
SMALL
GASTEIGER

@<TRIPOS>ATOM
      1 ZN          0.0000    0.0000    0.0000 Zn      1  UNL1        0.0000
      2 C          -4.3785   -3.6189   -1.2587 C.2     2  UNL2        0.0000
      3 C          -4.4918   -4.9489   -1.8735 C.3     2  UNL2        0.0000
      4 C          -3.2332   -3.2009   -0.7115 C.ar    2  UNL2        0.0000
      5 C          -2.0081   -3.8307   -0.5922 C.ar    2  UNL2        0.0000
      6 C          -1.7715   -5.2327   -1.0913 C.3     2  UNL2        0.0000
      7 C          -1.1211   -2.9410    0.0484 C.ar    2  UNL2        0.0000
      8 N          -1.7713   -1.7961    0.3208 N.ar    2  UNL2       -1.0000
      9 C          -3.0222   -1.9697   -0.1377 C.ar    2  UNL2        0.0000
     10 C          -3.8528   -0.9619    0.0272 C.2     2  UNL2        0.0000
     11 C          -3.6127    0.3074    0.6244 C.ar    2  UNL2        0.0000
     12 C          -4.3211    1.1086    1.4995 C.ar    2  UNL2        0.0000
     13 C          -5.6259    0.7160    2.0520 C.3     2  UNL2        0.0000
     14 C          -3.5943    2.2862    1.7407 C.ar    2  UNL2        0.0000
     15 C          -3.9650    3.2694    2.5374 C.2     2  UNL2        0.0000
     16 C          -3.2168    4.5180    2.8070 C.3     2  UNL2        0.0000
     17 C          -2.4693    2.1224    0.9814 C.ar    2  UNL2        0.0000
     18 N          -2.4645    0.9521    0.3126 N.ar    2  UNL2       -1.0000
     19 C          -1.4189    2.8540    0.7377 C.2     2  UNL2        0.0000
     20 C          -0.2458    2.6163   -0.0860 C.ar    2  UNL2        0.0000
     21 C           0.2416    3.2343   -1.2208 C.ar    2  UNL2        0.0000
     22 C          -0.4790    4.3680   -1.8265 C.3     2  UNL2        0.0000
     23 C           1.3966    2.5530   -1.5141 C.ar    2  UNL2        0.0000
     24 C           2.2950    2.8527   -2.6524 C.3     2  UNL2        0.0000
     25 C           3.0957    4.1044   -2.3155 C.3     2  UNL2        0.0000
     26 C           4.0312    4.5153   -3.3645 C.2     2  UNL2        0.0000
     27 O           4.7882    5.6524   -3.1356 O.3     2  UNL2        0.0000
     28 O           4.1690    3.8724   -4.4596 O.2     2  UNL2        0.0000
     29 C           1.6271    1.5511   -0.6077 C.ar    2  UNL2        0.0000
     30 N           0.6026    1.6184    0.2517 N.ar    2  UNL2       -1.0000
     31 C           2.5826    0.5331   -0.3113 C.2     2  UNL2        0.0000
     32 C           2.4074   -0.7320   -0.0586 C.ar    2  UNL2        0.0000
     33 N           1.1612   -1.2426   -0.0613 N.ar    2  UNL2       -1.0000
     34 C           1.3261   -2.5293    0.2648 C.ar    2  UNL2        0.0000
     35 C           0.2640   -3.3048    0.3138 C.2     2  UNL2        0.0000
     36 C           2.6572   -2.8190    0.4687 C.ar    2  UNL2        0.0000
     37 C           3.2801   -4.1185    0.8500 C.3     2  UNL2        0.0000
     38 C           3.3734   -1.6586    0.2612 C.ar    2  UNL2        0.0000
     39 C           4.8241   -1.5089    0.3643 C.3     2  UNL2        0.0000
     40 C           5.2988   -0.8046    1.6163 C.3     2  UNL2        0.0000
     41 C           4.8688   -1.5251    2.8445 C.2     2  UNL2        0.0000
     42 O           5.6770   -1.9533    3.9207 O.3     2  UNL2        0.0000
     43 O           3.6751   -1.8703    3.1030 O.2     2  UNL2        0.0000
     44 H          -5.2346   -2.9187   -1.2255 H       2  UNL2        0.0000
     45 H          -5.4046   -4.8563   -2.5557 H       2  UNL2        0.0000
     46 H          -3.7204   -5.2095   -2.6149 H       2  UNL2        0.0000
     47 H          -4.8182   -5.7605   -1.2025 H       2  UNL2        0.0000
     48 H          -0.8478   -5.5827   -0.5187 H       2  UNL2        0.0000
     49 H          -1.4258   -5.2694   -2.1232 H       2  UNL2        0.0000
     50 H          -2.5088   -5.9586   -0.7586 H       2  UNL2        0.0000
     51 H          -4.8648   -1.0533   -0.3152 H       2  UNL2        0.0000
     52 H          -5.5153   -0.2409    2.6133 H       2  UNL2        0.0000
     53 H          -6.3550    0.5321    1.2406 H       2  UNL2        0.0000
     54 H          -6.0605    1.5027    2.6830 H       2  UNL2        0.0000
     55 H          -4.9172    3.1458    3.0412 H       2  UNL2        0.0000
     56 H          -3.7759    5.0861    3.6067 H       2  UNL2        0.0000
     57 H          -3.1431    5.2054    1.9567 H       2  UNL2        0.0000
     58 H          -2.2350    4.2975    3.3076 H       2  UNL2        0.0000
     59 H          -1.3642    3.8349    1.1846 H       2  UNL2        0.0000
     60 H          -0.0786    4.6042   -2.8232 H       2  UNL2        0.0000
     61 H          -0.4703    5.2614   -1.1576 H       2  UNL2        0.0000
     62 H          -1.5573    4.0639   -1.9843 H       2  UNL2        0.0000
     63 H           2.9449    2.0135   -2.8976 H       2  UNL2        0.0000
     64 H           1.6839    3.0920   -3.5498 H       2  UNL2        0.0000
     65 H           3.6025    3.8794   -1.3406 H       2  UNL2        0.0000
     66 H           2.4231    4.9521   -2.0913 H       2  UNL2        0.0000
     67 H           5.5171    5.9331   -3.7840 H       2  UNL2        0.0000
     68 H           3.5386    1.0282   -0.3445 H       2  UNL2        0.0000
     69 H           0.4779   -4.3483    0.6004 H       2  UNL2        0.0000
     70 H           4.3202   -4.0150    1.1516 H       2  UNL2        0.0000
     71 H           2.7422   -4.4780    1.7752 H       2  UNL2        0.0000
     72 H           3.0637   -4.8469    0.0715 H       2  UNL2        0.0000
     73 H           5.3653   -2.4815    0.3168 H       2  UNL2        0.0000
     74 H           5.2172   -0.9226   -0.5032 H       2  UNL2        0.0000
     75 H           4.8599    0.2005    1.6548 H       2  UNL2        0.0000
     76 H           6.4050   -0.8179    1.6097 H       2  UNL2        0.0000
     77 H           5.5569   -2.9100    4.3077 H       2  UNL2        0.0000
@<TRIPOS>UNITY_ATOM_ATTR
1 1
charge 4
8 1
charge -1
18 1
charge -1
30 1
charge -1
33 1
charge -1
@<TRIPOS>BOND
     1     2     3    1
     2     2     4    2
     3     4     5   ar
     4     5     6    1
     5     5     7   ar
     6     7     8   ar
     7     8     9   ar
     8     9    10    2
     9    10    11    1
    10    11    12   ar
    11    12    13    1
    12    12    14   ar
    13    14    15    2
    14    15    16    1
    15    14    17   ar
    16    17    18   ar
    17    17    19    2
    18    19    20    1
    19    20    21   ar
    20    21    22    1
    21    21    23   ar
    22    23    24    1
    23    24    25    1
    24    25    26    1
    25    26    27    1
    26    26    28    2
    27    23    29   ar
    28    29    30   ar
    29    29    31    1
    30    31    32    2
    31    32    33   ar
    32    33    34   ar
    33    34    35    2
    34    34    36   ar
    35    36    37    1
    36    36    38   ar
    37    38    39    1
    38    39    40    1
    39    40    41    1
    40    41    42    1
    41    41    43    2
    42     9     4   ar
    43    18    11   ar
    44    30    20   ar
    45    38    32   ar
    46    35     7    1
    47     2    44    1
    48     3    45    1
    49     3    46    1
    50     3    47    1
    51     6    48    1
    52     6    49    1
    53     6    50    1
    54    10    51    1
    55    13    52    1
    56    13    53    1
    57    13    54    1
    58    15    55    1
    59    16    56    1
    60    16    57    1
    61    16    58    1
    62    19    59    1
    63    22    60    1
    64    22    61    1
    65    22    62    1
    66    24    63    1
    67    24    64    1
    68    25    65    1
    69    25    66    1
    70    27    67    1
    71    31    68    1
    72    35    69    1
    73    37    70    1
    74    37    71    1
    75    37    72    1
    76    39    73    1
    77    39    74    1
    78    40    75    1
    79    40    76    1
    80    42    77    1
