
     RDKit          3D

 62 66  0  0  0  0  0  0  0  0999 V2000
   -3.8654   -3.6472    0.7287 C   0  0  0  0  0  0  0  0  0  0  0  0
   -3.3310   -2.2968    0.5111 C   0  0  0  0  0  0  0  0  0  0  0  0
   -4.1809   -1.2454    0.2914 C   0  0  0  0  0  0  0  0  0  0  0  0
   -3.7143    0.0432    0.0834 C   0  0  0  0  0  0  0  0  0  0  0  0
   -4.6196    1.1522   -0.1487 C   0  0  0  0  0  0  0  0  0  0  0  0
   -5.9048    1.0651   -0.1851 N   0  0  0  0  0  0  0  0  0  0  0  0
   -6.5128    2.3517   -0.4364 C   0  0  0  0  0  0  0  0  0  0  0  0
   -7.6779    2.2519   -1.3945 C   0  0  0  0  0  0  0  0  0  0  0  0
   -6.9873    2.9810    0.8618 C   0  0  0  0  0  0  0  0  0  0  0  0
   -5.3778    3.1696   -0.9811 C   0  0  0  0  0  0  0  0  0  0  0  0
   -4.2209    2.4980   -0.3715 N   0  0  0  0  0  0  0  0  0  0  0  0
   -2.3326    0.2091    0.1104 C   0  0  0  0  0  0  0  0  0  0  0  0
   -1.4554   -0.8074    0.3251 C   0  0  0  0  0  0  0  0  0  0  0  0
   -0.0839   -0.8915    0.3955 N   0  0  0  0  0  0  0  0  0  0  0  0
    0.2818   -2.1429    0.6332 C   0  0  0  0  0  0  0  0  0  0  0  0
    1.5974   -2.8029    0.7061 C   0  0  0  0  0  0  0  0  0  0  0  0
    2.7716   -2.1192    0.6927 C   0  0  0  0  0  0  0  0  0  0  0  0
    2.8721   -0.7478    1.0028 N   0  0  0  0  0  0  0  0  0  0  0  0
    4.0889    0.0222    0.9188 C   0  0  0  0  0  0  0  0  0  0  0  0
    4.5390    0.2746   -0.4936 C   0  0  0  0  0  0  0  0  0  0  0  0
    3.5791    0.9864   -1.2226 O   0  0  0  0  0  0  0  0  0  0  0  0
    5.7417    1.1266   -0.4431 C   0  0  0  0  0  0  0  0  0  0  0  0
    7.0027    0.6412   -0.6731 C   0  0  0  0  0  0  0  0  0  0  0  0
    8.1239    1.4730   -0.6182 C   0  0  0  0  0  0  0  0  0  0  0  0
    7.9644    2.8068   -0.3280 C   0  0  0  0  0  0  0  0  0  0  0  0
    6.7065    3.2997   -0.0967 C   0  0  0  0  0  0  0  0  0  0  0  0
    6.5208    5.0149    0.2745 Cl  0  0  0  0  0  0  0  0  0  0  0  0
    5.6155    2.4621   -0.1559 C   0  0  0  0  0  0  0  0  0  0  0  0
    3.9631   -2.8438    0.5622 C   0  0  0  0  0  0  0  0  0  0  0  0
    3.9059   -4.2211    0.4582 C   0  0  0  0  0  0  0  0  0  0  0  0
    2.7421   -4.8823    0.4791 N   0  0  0  0  0  0  0  0  0  0  0  0
    1.6222   -4.2071    0.5985 C   0  0  0  0  0  0  0  0  0  0  0  0
    0.5326   -4.8052    0.6201 O   0  0  0  0  0  0  0  0  0  0  0  0
   -0.8918   -2.8424    0.7074 N   0  0  0  0  0  0  0  0  0  0  0  0
   -1.9552   -2.0694    0.5270 C   0  0  0  0  0  0  0  0  0  0  0  0
   -3.1597   -4.2948    1.2746 H   0  0  0  0  0  0  0  0  0  0  0  0
   -4.0144   -4.1155   -0.2834 H   0  0  0  0  0  0  0  0  0  0  0  0
   -4.8714   -3.6236    1.1934 H   0  0  0  0  0  0  0  0  0  0  0  0
   -5.2419   -1.4363    0.2818 H   0  0  0  0  0  0  0  0  0  0  0  0
   -7.3265    2.5231   -2.4130 H   0  0  0  0  0  0  0  0  0  0  0  0
   -8.1383    1.2308   -1.3657 H   0  0  0  0  0  0  0  0  0  0  0  0
   -8.4750    2.9845   -1.1038 H   0  0  0  0  0  0  0  0  0  0  0  0
   -6.1539    2.8704    1.5979 H   0  0  0  0  0  0  0  0  0  0  0  0
   -7.1651    4.0403    0.6576 H   0  0  0  0  0  0  0  0  0  0  0  0
   -7.8829    2.4298    1.1876 H   0  0  0  0  0  0  0  0  0  0  0  0
   -5.4189    4.2287   -0.7257 H   0  0  0  0  0  0  0  0  0  0  0  0
   -5.3167    2.9913   -2.0924 H   0  0  0  0  0  0  0  0  0  0  0  0
   -3.3118    2.9540   -0.1625 H   0  0  0  0  0  0  0  0  0  0  0  0
   -1.9492    1.2198   -0.0519 H   0  0  0  0  0  0  0  0  0  0  0  0
    0.5011   -0.0510    0.2300 H   0  0  0  0  0  0  0  0  0  0  0  0
    2.0496   -0.2512    1.3780 H   0  0  0  0  0  0  0  0  0  0  0  0
    4.9327   -0.5618    1.3982 H   0  0  0  0  0  0  0  0  0  0  0  0
    3.9601    0.9532    1.4950 H   0  0  0  0  0  0  0  0  0  0  0  0
    4.8175   -0.6596   -0.9680 H   0  0  0  0  0  0  0  0  0  0  0  0
    2.8803    1.3701   -0.6655 H   0  0  0  0  0  0  0  0  0  0  0  0
    7.1659   -0.3959   -0.9028 H   0  0  0  0  0  0  0  0  0  0  0  0
    9.1151    1.1038   -0.7965 H   0  0  0  0  0  0  0  0  0  0  0  0
    8.8570    3.4489   -0.2884 H   0  0  0  0  0  0  0  0  0  0  0  0
    4.6386    2.9271    0.0406 H   0  0  0  0  0  0  0  0  0  0  0  0
    4.9389   -2.3991    0.5471 H   0  0  0  0  0  0  0  0  0  0  0  0
    4.8151   -4.8238    0.3544 H   0  0  0  0  0  0  0  0  0  0  0  0
    2.6939   -5.9203    0.4033 H   0  0  0  0  0  0  0  0  0  0  0  0
  1  2  1  0
  2  3  2  0
  3  4  1  0
  4  5  1  0
  5  6  2  0
  6  7  1  0
  7  8  1  0
  7  9  1  0
  7 10  1  0
 10 11  1  0
  4 12  2  0
 12 13  1  0
 13 14  1  0
 14 15  1  0
 15 16  1  0
 16 17  2  0
 17 18  1  0
 18 19  1  0
 19 20  1  0
 20 21  1  0
 20 22  1  0
 22 23  2  0
 23 24  1  0
 24 25  2  0
 25 26  1  0
 26 27  1  0
 26 28  2  0
 17 29  1  0
 29 30  2  0
 30 31  1  0
 31 32  1  0
 32 33  2  0
 15 34  2  0
 34 35  1  0
 35  2  1  0
 11  5  1  0
 35 13  2  0
 32 16  1  0
 28 22  1  0
  1 36  1  0
  1 37  1  0
  1 38  1  0
  3 39  1  0
  8 40  1  0
  8 41  1  0
  8 42  1  0
  9 43  1  0
  9 44  1  0
  9 45  1  0
 10 46  1  0
 10 47  1  0
 11 48  1  0
 12 49  1  0
 14 50  1  0
 18 51  1  0
 19 52  1  0
 19 53  1  0
 20 54  1  0
 21 55  1  0
 23 56  1  0
 24 57  1  0
 25 58  1  0
 28 59  1  0
 29 60  1  0
 30 61  1  0
 31 62  1  0
M  END
$$$$
