@<TRIPOS>MOLECULE
*****
 62 66 0 0 0
SMALL
GASTEIGER

@<TRIPOS>ATOM
      1 C          -3.8654   -3.6472    0.7287 C.3     1  UNL1       -0.0376
      2 C          -3.3310   -2.2968    0.5111 C.ar    1  UNL1       -0.0222
      3 C          -4.1809   -1.2454    0.2914 C.ar    1  UNL1       -0.0418
      4 C          -3.7143    0.0432    0.0834 C.ar    1  UNL1        0.0673
      5 C          -4.6196    1.1522   -0.1487 C.2     1  UNL1        0.3136
      6 N          -5.9048    1.0651   -0.1851 N.2     1  UNL1       -0.0730
      7 C          -6.5128    2.3517   -0.4364 C.3     1  UNL1        0.1819
      8 C          -7.6779    2.2519   -1.3945 C.3     1  UNL1       -0.0138
      9 C          -6.9873    2.9810    0.8618 C.3     1  UNL1       -0.0138
     10 C          -5.3778    3.1696   -0.9811 C.3     1  UNL1        0.1248
     11 N          -4.2209    2.4980   -0.3715 N.pl3   1  UNL1       -0.2290
     12 C          -2.3326    0.2091    0.1104 C.ar    1  UNL1       -0.0214
     13 C          -1.4554   -0.8074    0.3251 C.ar    1  UNL1        0.0675
     14 N          -0.0839   -0.8915    0.3955 N.ar    1  UNL1       -0.3377
     15 C           0.2818   -2.1429    0.6332 C.ar    1  UNL1        0.1463
     16 C           1.5974   -2.8029    0.7061 C.ar    1  UNL1        0.1022
     17 C           2.7716   -2.1192    0.6927 C.ar    1  UNL1        0.0446
     18 N           2.8721   -0.7478    1.0028 N.pl3   1  UNL1       -0.3403
     19 C           4.0889    0.0222    0.9188 C.3     1  UNL1        0.0393
     20 C           4.5390    0.2746   -0.4936 C.3     1  UNL1        0.0956
     21 O           3.5791    0.9864   -1.2226 O.3     1  UNL1       -0.3856
     22 C           5.7417    1.1266   -0.4431 C.ar    1  UNL1       -0.0163
     23 C           7.0027    0.6412   -0.6731 C.ar    1  UNL1       -0.0560
     24 C           8.1239    1.4730   -0.6182 C.ar    1  UNL1       -0.0600
     25 C           7.9644    2.8068   -0.3280 C.ar    1  UNL1       -0.0434
     26 C           6.7065    3.2997   -0.0967 C.ar    1  UNL1        0.0413
     27 CL          6.5208    5.0149    0.2745 Cl      1  UNL1       -0.0835
     28 C           5.6155    2.4621   -0.1559 C.ar    1  UNL1       -0.0377
     29 C           3.9631   -2.8438    0.5622 C.ar    1  UNL1       -0.0239
     30 C           3.9059   -4.2211    0.4582 C.ar    1  UNL1        0.0067
     31 N           2.7421   -4.8823    0.4791 N.ar    1  UNL1       -0.3284
     32 C           1.6222   -4.2071    0.5985 C.ar    1  UNL1        0.2612
     33 O           0.5326   -4.8052    0.6201 O.2     1  UNL1       -0.2671
     34 N          -0.8918   -2.8424    0.7074 N.ar    1  UNL1       -0.2272
     35 C          -1.9552   -2.0694    0.5270 C.ar    1  UNL1        0.0924
     36 H          -3.1597   -4.2948    1.2746 H       1  UNL1        0.0278
     37 H          -4.0144   -4.1155   -0.2834 H       1  UNL1        0.0278
     38 H          -4.8714   -3.6236    1.1934 H       1  UNL1        0.0278
     39 H          -5.2419   -1.4363    0.2818 H       1  UNL1        0.0629
     40 H          -7.3265    2.5231   -2.4130 H       1  UNL1        0.0276
     41 H          -8.1383    1.2308   -1.3657 H       1  UNL1        0.0276
     42 H          -8.4750    2.9845   -1.1038 H       1  UNL1        0.0276
     43 H          -6.1539    2.8704    1.5979 H       1  UNL1        0.0276
     44 H          -7.1651    4.0403    0.6576 H       1  UNL1        0.0276
     45 H          -7.8829    2.4298    1.1876 H       1  UNL1        0.0276
     46 H          -5.4189    4.2287   -0.7257 H       1  UNL1        0.0771
     47 H          -5.3167    2.9913   -2.0924 H       1  UNL1        0.0771
     48 H          -3.3118    2.9540   -0.1625 H       1  UNL1        0.2915
     49 H          -1.9492    1.2198   -0.0519 H       1  UNL1        0.0647
     50 H           0.5011   -0.0510    0.2300 H       1  UNL1        0.1674
     51 H           2.0496   -0.2512    1.3780 H       1  UNL1        0.1462
     52 H           4.9327   -0.5618    1.3982 H       1  UNL1        0.0490
     53 H           3.9601    0.9532    1.4950 H       1  UNL1        0.0490
     54 H           4.8175   -0.6596   -0.9680 H       1  UNL1        0.0659
     55 H           2.8803    1.3701   -0.6655 H       1  UNL1        0.2103
     56 H           7.1659   -0.3959   -0.9028 H       1  UNL1        0.0621
     57 H           9.1151    1.1038   -0.7965 H       1  UNL1        0.0618
     58 H           8.8570    3.4489   -0.2884 H       1  UNL1        0.0632
     59 H           4.6386    2.9271    0.0406 H       1  UNL1        0.0636
     60 H           4.9389   -2.3991    0.5471 H       1  UNL1        0.0651
     61 H           4.8151   -4.8238    0.3544 H       1  UNL1        0.0808
     62 H           2.6939   -5.9203    0.4033 H       1  UNL1        0.1683
@<TRIPOS>BOND
     1     1     2    1
     2     2     3   ar
     3     3     4   ar
     4     4     5    1
     5     5     6    2
     6     6     7    1
     7     7     8    1
     8     7     9    1
     9     7    10    1
    10    10    11    1
    11     4    12   ar
    12    12    13   ar
    13    13    14   ar
    14    14    15   ar
    15    15    16    1
    16    16    17   ar
    17    17    18    1
    18    18    19    1
    19    19    20    1
    20    20    21    1
    21    20    22    1
    22    22    23   ar
    23    23    24   ar
    24    24    25   ar
    25    25    26   ar
    26    26    27    1
    27    26    28   ar
    28    17    29   ar
    29    29    30   ar
    30    30    31   ar
    31    31    32   ar
    32    32    33    2
    33    15    34   ar
    34    34    35   ar
    35    35     2   ar
    36    11     5    1
    37    35    13   ar
    38    32    16   ar
    39    28    22   ar
    40     1    36    1
    41     1    37    1
    42     1    38    1
    43     3    39    1
    44     8    40    1
    45     8    41    1
    46     8    42    1
    47     9    43    1
    48     9    44    1
    49     9    45    1
    50    10    46    1
    51    10    47    1
    52    11    48    1
    53    12    49    1
    54    14    50    1
    55    18    51    1
    56    19    52    1
    57    19    53    1
    58    20    54    1
    59    21    55    1
    60    23    56    1
    61    24    57    1
    62    25    58    1
    63    28    59    1
    64    29    60    1
    65    30    61    1
    66    31    62    1
