@<TRIPOS>MOLECULE
*****
 64 69 0 0 0
SMALL
GASTEIGER

@<TRIPOS>ATOM
      1 C          10.7751    1.0926    1.3364 C.3     1  UNL1        0.0789
      2 O           9.6385    0.2681    1.4180 O.3     1  UNL1       -0.4936
      3 C           8.4031    0.7089    1.0107 C.ar    1  UNL1        0.1381
      4 C           8.2790    1.9824    0.5123 C.ar    1  UNL1       -0.0163
      5 C           7.0337    2.4447    0.0949 C.ar    1  UNL1       -0.0277
      6 C           5.9444    1.6043    0.1932 C.ar    1  UNL1        0.1259
      7 C           4.6084    2.0512   -0.2298 C.2     1  UNL1        0.2666
      8 O           4.5014    3.1952   -0.6853 O.2     1  UNL1       -0.2682
      9 N           3.4932    1.2043   -0.1176 N.am    1  UNL1       -0.2802
     10 C           2.1603    1.4947   -0.4815 C.ar    1  UNL1        0.0343
     11 C           1.7929    2.6709   -1.0742 C.ar    1  UNL1       -0.0370
     12 C           0.4622    2.9081   -1.3924 C.ar    1  UNL1       -0.0172
     13 C          -0.4947    1.9343   -1.1015 C.ar    1  UNL1        0.1345
     14 C          -0.1657    0.7609   -0.5175 C.ar    1  UNL1        0.0285
     15 C           1.1552    0.5490   -0.2119 C.ar    1  UNL1       -0.0312
     16 C          -1.1578   -0.2827   -0.2082 C.3     1  UNL1        0.1217
     17 C          -0.8252   -1.4494   -1.0804 C.3     1  UNL1       -0.0096
     18 C           0.0137   -2.5290   -0.5647 C.3     1  UNL1        0.0037
     19 S           0.0190   -2.7933    1.1911 S.3     1  UNL1       -0.0910
     20 C          -0.7300   -1.3626    1.9601 C.2     1  UNL1        0.1478
     21 N          -0.8377   -1.2865    3.3897 N.pl3   1  UNL1       -0.3380
     22 N          -1.1370   -0.4653    1.1874 N.2     1  UNL1       -0.2472
     23 C          -2.5403    0.1664   -0.6118 C.ar    1  UNL1        0.0314
     24 C          -3.6056   -0.6972   -0.3790 C.ar    1  UNL1       -0.0312
     25 C          -4.8951   -0.3715   -0.7226 C.ar    1  UNL1        0.0331
     26 N          -5.9644   -1.2586   -0.4623 N.pl3   1  UNL1       -0.3254
     27 C          -7.2988   -1.1327   -0.9937 C.3     1  UNL1        0.0357
     28 C          -8.3740   -1.4890    0.0335 C.3     1  UNL1        0.0634
     29 O          -8.1018   -2.7887    0.5096 O.3     1  UNL1       -0.3767
     30 C          -6.9310   -2.7656    1.2480 C.3     1  UNL1        0.0634
     31 C          -5.7183   -2.3946    0.4158 C.3     1  UNL1        0.0357
     32 C          -5.1272    0.8448   -1.3135 C.ar    1  UNL1       -0.0017
     33 C          -4.0890    1.7470   -1.5681 C.ar    1  UNL1        0.1675
     34 F          -4.3262    2.9541   -2.1558 F       1  UNL1       -0.2016
     35 C          -2.8088    1.3625   -1.1980 C.ar    1  UNL1        0.1693
     36 O          -1.7816    2.2431   -1.4408 O.3     1  UNL1       -0.4524
     37 N           6.0773    0.3673    0.6797 N.ar    1  UNL1       -0.2467
     38 C           7.2916   -0.0985    1.0921 C.ar    1  UNL1        0.0700
     39 H          10.6250    1.9181    2.0727 H       1  UNL1        0.0660
     40 H          11.7009    0.5497    1.6130 H       1  UNL1        0.0660
     41 H          10.9390    1.5147    0.3241 H       1  UNL1        0.0660
     42 H           9.1269    2.6245    0.4406 H       1  UNL1        0.0655
     43 H           6.9375    3.4370   -0.2930 H       1  UNL1        0.0641
     44 H           3.7068    0.2386    0.2903 H       1  UNL1        0.1552
     45 H           2.5057    3.4717   -1.3294 H       1  UNL1        0.0637
     46 H           0.1838    3.8387   -1.8585 H       1  UNL1        0.0655
     47 H           1.5008   -0.3743    0.2664 H       1  UNL1        0.0641
     48 H          -0.3870   -1.0796   -2.0543 H       1  UNL1        0.0303
     49 H          -1.7964   -1.9130   -1.3918 H       1  UNL1        0.0303
     50 H          -0.2527   -3.5225   -1.0502 H       1  UNL1        0.0381
     51 H           1.0830   -2.3925   -0.9059 H       1  UNL1        0.0381
     52 H          -1.5062   -0.6532    3.8503 H       1  UNL1        0.1442
     53 H          -0.2267   -1.8840    3.9539 H       1  UNL1        0.1442
     54 H          -3.3576   -1.6395    0.0824 H       1  UNL1        0.0641
     55 H          -7.4435   -1.8913   -1.8067 H       1  UNL1        0.0486
     56 H          -7.5381   -0.1435   -1.3925 H       1  UNL1        0.0486
     57 H          -8.3525   -0.8246    0.9098 H       1  UNL1        0.0575
     58 H          -9.3299   -1.5184   -0.5082 H       1  UNL1        0.0575
     59 H          -7.0705   -2.0258    2.0879 H       1  UNL1        0.0575
     60 H          -6.7443   -3.7917    1.6470 H       1  UNL1        0.0575
     61 H          -5.4513   -3.2472   -0.2120 H       1  UNL1        0.0486
     62 H          -4.9177   -2.1666    1.1803 H       1  UNL1        0.0486
     63 H          -6.0977    1.1817   -1.6135 H       1  UNL1        0.0666
     64 H           7.4237   -1.0963    1.4892 H       1  UNL1        0.0867
@<TRIPOS>BOND
     1     1     2    1
     2     2     3    1
     3     3     4   ar
     4     4     5   ar
     5     5     6   ar
     6     6     7    1
     7     7     8    2
     8     7     9   am
     9     9    10    1
    10    10    11   ar
    11    11    12   ar
    12    12    13   ar
    13    13    14   ar
    14    14    15   ar
    15    14    16    1
    16    16    17    1
    17    17    18    1
    18    18    19    1
    19    19    20    1
    20    20    21    1
    21    20    22    2
    22    16    23    1
    23    23    24   ar
    24    24    25   ar
    25    25    26    1
    26    26    27    1
    27    27    28    1
    28    28    29    1
    29    29    30    1
    30    30    31    1
    31    25    32   ar
    32    32    33   ar
    33    33    34    1
    34    33    35   ar
    35    35    36    1
    36     6    37   ar
    37    37    38   ar
    38    38     3   ar
    39    15    10   ar
    40    22    16    1
    41    35    23   ar
    42    36    13    1
    43    31    26    1
    44     1    39    1
    45     1    40    1
    46     1    41    1
    47     4    42    1
    48     5    43    1
    49     9    44    1
    50    11    45    1
    51    12    46    1
    52    15    47    1
    53    17    48    1
    54    17    49    1
    55    18    50    1
    56    18    51    1
    57    21    52    1
    58    21    53    1
    59    24    54    1
    60    27    55    1
    61    27    56    1
    62    28    57    1
    63    28    58    1
    64    30    59    1
    65    30    60    1
    66    31    61    1
    67    31    62    1
    68    32    63    1
    69    38    64    1
