@<TRIPOS>MOLECULE
*****
 73 74 0 0 0
SMALL
GASTEIGER

@<TRIPOS>ATOM
      1 C          -0.2804   -0.1296   -0.4156 C.3     1  UNL1        0.1022
      2 N           1.1733    0.0108   -0.2982 N.am    1  UNL1       -0.2998
      3 C           1.9272    1.0934    0.2258 C.2     1  UNL1        0.2447
      4 O           1.2904    2.0831    0.6552 O.2     1  UNL1       -0.2702
      5 C           3.3777    1.0303    0.2514 C.ar    1  UNL1        0.0368
      6 C           4.1529   -0.0107   -0.1962 C.ar    1  UNL1       -0.0489
      7 C           5.5310   -0.0147   -0.1444 C.ar    1  UNL1       -0.0489
      8 C           6.1830    1.0771    0.3822 C.ar    1  UNL1        0.0367
      9 C           5.4611    2.1669    0.8543 C.ar    1  UNL1       -0.0489
     10 C           4.0654    2.1060    0.7719 C.ar    1  UNL1       -0.0489
     11 C           7.6317    1.1873    0.4911 C.2     1  UNL1        0.2445
     12 O           8.2353    2.2011    0.9736 O.2     1  UNL1       -0.2702
     13 N           8.5517    0.1822    0.0750 N.am    1  UNL1       -0.3009
     14 C           9.9806    0.3577    0.2127 C.3     1  UNL1        0.1091
     15 C          10.3927    1.5367   -0.5589 C.2     1  UNL1        0.3221
     16 O           9.6541    2.4192   -1.3306 O.3     1  UNL1       -0.4795
     17 O          11.6425    1.7213   -0.4597 O.2     1  UNL1       -0.2492
     18 C          -0.6349   -0.3463   -1.8708 C.3     1  UNL1       -0.0197
     19 C          -0.2041    0.7894   -2.7573 C.3     1  UNL1       -0.0605
     20 C          -0.1632   -1.6739   -2.3689 C.3     1  UNL1       -0.0605
     21 C          -0.6321   -1.3739    0.3125 C.2     1  UNL1        0.2368
     22 O           0.3644   -1.9596    0.8294 O.2     1  UNL1       -0.2735
     23 N          -1.8282   -2.0572    0.5620 N.am    1  UNL1       -0.2883
     24 C          -1.5655   -3.2451    1.3507 C.3     1  UNL1        0.0156
     25 C          -2.8882   -3.9296    1.4773 C.3     1  UNL1       -0.0350
     26 C          -3.6801   -3.4048    0.3093 C.3     1  UNL1       -0.0242
     27 C          -3.2501   -1.9570    0.2827 C.3     1  UNL1        0.1013
     28 C          -3.9787   -1.1051    1.2372 C.2     1  UNL1        0.2044
     29 O          -4.4677   -0.6323    2.4369 O.2     1  UNL1       -0.4944
     30 N          -4.7158   -0.0554    1.1251 N.2     1  UNL1       -0.2416
     31 C          -5.0504    0.6226   -0.0870 C.3     1  UNL1        0.1233
     32 C          -6.5589    0.8072   -0.2255 C.3     1  UNL1       -0.0170
     33 C          -7.1813   -0.5662   -0.2276 C.3     1  UNL1       -0.0603
     34 C          -7.1112    1.5466    0.9902 C.3     1  UNL1       -0.0603
     35 C          -4.3403    1.9045   -0.1962 C.2     1  UNL1        0.2598
     36 O          -4.7216    2.4241   -1.2546 O.2     1  UNL1       -0.2856
     37 C          -3.6240    3.1943   -0.3031 C.3     1  UNL1        0.4528
     38 F          -3.9959    3.8554   -1.4773 F       1  UNL1       -0.1633
     39 F          -3.9609    4.0608    0.7244 F       1  UNL1       -0.1633
     40 F          -2.2552    3.0032   -0.3840 F       1  UNL1       -0.1633
     41 H          -0.7900    0.7694   -0.0102 H       1  UNL1        0.0597
     42 H           1.6166   -0.8523   -0.6776 H       1  UNL1        0.1498
     43 H           3.6449   -0.8699   -0.6104 H       1  UNL1        0.0625
     44 H           6.1138   -0.8508   -0.5053 H       1  UNL1        0.0625
     45 H           5.9615    3.0374    1.2731 H       1  UNL1        0.0625
     46 H           3.5463    2.9950    1.1597 H       1  UNL1        0.0625
     47 H           8.1397   -0.7050   -0.3423 H       1  UNL1        0.1496
     48 H          10.3180    0.4059    1.2686 H       1  UNL1        0.0577
     49 H          10.4742   -0.5478   -0.2266 H       1  UNL1        0.0577
     50 H          10.1212    2.9865   -2.0477 H       1  UNL1        0.2951
     51 H          -1.7622   -0.3748   -1.9421 H       1  UNL1        0.0318
     52 H          -0.4181    1.7524   -2.2843 H       1  UNL1        0.0233
     53 H           0.8726    0.6872   -3.0544 H       1  UNL1        0.0233
     54 H          -0.7843    0.7368   -3.7019 H       1  UNL1        0.0233
     55 H           0.9081   -1.8655   -2.2890 H       1  UNL1        0.0233
     56 H          -0.6839   -2.4994   -1.8228 H       1  UNL1        0.0233
     57 H          -0.5056   -1.7946   -3.4369 H       1  UNL1        0.0233
     58 H          -0.8786   -3.9517    0.8179 H       1  UNL1        0.0465
     59 H          -1.1192   -3.0017    2.3387 H       1  UNL1        0.0465
     60 H          -2.8111   -5.0402    1.4714 H       1  UNL1        0.0281
     61 H          -3.4500   -3.6202    2.4037 H       1  UNL1        0.0281
     62 H          -3.3349   -3.8705   -0.6430 H       1  UNL1        0.0288
     63 H          -4.7700   -3.5353    0.4716 H       1  UNL1        0.0288
     64 H          -3.4557   -1.5799   -0.7521 H       1  UNL1        0.0598
     65 H          -4.2164   -1.0277    3.3495 H       1  UNL1        0.2935
     66 H          -4.7587   -0.0238   -0.9592 H       1  UNL1        0.0630
     67 H          -6.8246    1.3332   -1.1438 H       1  UNL1        0.0320
     68 H          -6.6092   -1.1935    0.4692 H       1  UNL1        0.0233
     69 H          -7.0966   -1.0130   -1.2553 H       1  UNL1        0.0233
     70 H          -8.2448   -0.5600    0.1096 H       1  UNL1        0.0233
     71 H          -8.0791    2.0199    0.7322 H       1  UNL1        0.0233
     72 H          -6.3937    2.2992    1.3607 H       1  UNL1        0.0233
     73 H          -7.2563    0.8349    1.8470 H       1  UNL1        0.0233
@<TRIPOS>BOND
     1     1     2    1
     2     2     3   am
     3     3     4    2
     4     3     5    1
     5     5     6   ar
     6     6     7   ar
     7     7     8   ar
     8     8     9   ar
     9     9    10   ar
    10     8    11    1
    11    11    12    2
    12    11    13   am
    13    13    14    1
    14    14    15    1
    15    15    16    1
    16    15    17    2
    17     1    18    1
    18    18    19    1
    19    18    20    1
    20     1    21    1
    21    21    22    2
    22    21    23   am
    23    23    24    1
    24    24    25    1
    25    25    26    1
    26    26    27    1
    27    27    28    1
    28    28    29    1
    29    28    30    2
    30    30    31    1
    31    31    32    1
    32    32    33    1
    33    32    34    1
    34    31    35    1
    35    35    36    2
    36    35    37    1
    37    37    38    1
    38    37    39    1
    39    37    40    1
    40    10     5   ar
    41    27    23    1
    42     1    41    1
    43     2    42    1
    44     6    43    1
    45     7    44    1
    46     9    45    1
    47    10    46    1
    48    13    47    1
    49    14    48    1
    50    14    49    1
    51    16    50    1
    52    18    51    1
    53    19    52    1
    54    19    53    1
    55    19    54    1
    56    20    55    1
    57    20    56    1
    58    20    57    1
    59    24    58    1
    60    24    59    1
    61    25    60    1
    62    25    61    1
    63    26    62    1
    64    26    63    1
    65    27    64    1
    66    29    65    1
    67    31    66    1
    68    32    67    1
    69    33    68    1
    70    33    69    1
    71    33    70    1
    72    34    71    1
    73    34    72    1
    74    34    73    1
