
     RDKit          3D

 51 54  0  0  0  0  0  0  0  0999 V2000
    6.2961    0.2039   -2.3074 C   0  0  0  0  0  0  0  0  0  0  0  0
    5.4322   -0.9285   -1.8482 C   0  0  0  0  0  0  0  0  0  0  0  0
    5.7370   -1.2842   -0.4103 C   0  0  0  0  0  0  0  0  0  0  0  0
    5.4596    0.0491    0.7151 S   0  0  0  0  0  0  0  0  0  0  0  0
    5.8192   -0.5157    2.0991 O   0  0  0  0  0  0  0  0  0  0  0  0
    6.4412    1.1677    0.5102 O   0  0  0  0  0  0  0  0  0  0  0  0
    3.8504    0.6373    0.7241 N   0  0  0  0  0  0  0  0  0  0  0  0
    2.5946    0.0649    1.0406 C   0  0  0  0  0  0  0  0  0  0  0  0
    1.5853    0.8955    1.5243 C   0  0  0  0  0  0  0  0  0  0  0  0
    1.8961    2.2275    1.6511 F   0  0  0  0  0  0  0  0  0  0  0  0
    0.3506    0.3968    1.8514 C   0  0  0  0  0  0  0  0  0  0  0  0
   -0.5991    1.3639    2.3702 C   0  0  0  0  0  0  0  0  0  0  0  0
   -0.1704    2.5280    2.6794 O   0  0  0  0  0  0  0  0  0  0  0  0
   -2.0141    1.3271    2.6428 C   0  0  0  0  0  0  0  0  0  0  0  0
   -2.6474    1.6959    3.8352 C   0  0  0  0  0  0  0  0  0  0  0  0
   -3.9691    1.4891    3.7135 N   0  0  0  0  0  0  0  0  0  0  0  0
   -4.2776    0.9989    2.5020 C   0  0  0  0  0  0  0  0  0  0  0  0
   -5.4540    0.6574    1.9496 N   0  0  0  0  0  0  0  0  0  0  0  0
   -5.4435    0.1976    0.6884 C   0  0  0  0  0  0  0  0  0  0  0  0
   -4.2932    0.0485   -0.0915 C   0  0  0  0  0  0  0  0  0  0  0  0
   -3.1364    0.4181    0.5456 C   0  0  0  0  0  0  0  0  0  0  0  0
   -3.0672    0.8966    1.8330 C   0  0  0  0  0  0  0  0  0  0  0  0
   -4.3435   -0.4567   -1.4566 C   0  0  0  0  0  0  0  0  0  0  0  0
   -3.3556    0.0678   -2.2696 C   0  0  0  0  0  0  0  0  0  0  0  0
   -3.2658   -0.3115   -3.5955 C   0  0  0  0  0  0  0  0  0  0  0  0
   -4.1874   -1.2339   -4.1057 C   0  0  0  0  0  0  0  0  0  0  0  0
   -4.0632   -1.7076   -5.7760 Cl  0  0  0  0  0  0  0  0  0  0  0  0
   -5.1533   -1.7290   -3.2580 C   0  0  0  0  0  0  0  0  0  0  0  0
   -5.2649   -1.3662   -1.9292 C   0  0  0  0  0  0  0  0  0  0  0  0
    0.0872   -0.9453    1.7057 C   0  0  0  0  0  0  0  0  0  0  0  0
   -1.1197   -1.4451    2.0432 F   0  0  0  0  0  0  0  0  0  0  0  0
    1.0601   -1.7903    1.2308 C   0  0  0  0  0  0  0  0  0  0  0  0
    2.2864   -1.2694    0.9102 C   0  0  0  0  0  0  0  0  0  0  0  0
    6.7614   -0.0554   -3.2634 H   0  0  0  0  0  0  0  0  0  0  0  0
    7.1073    0.3493   -1.5652 H   0  0  0  0  0  0  0  0  0  0  0  0
    5.6973    1.1299   -2.4452 H   0  0  0  0  0  0  0  0  0  0  0  0
    4.3453   -0.7164   -1.9952 H   0  0  0  0  0  0  0  0  0  0  0  0
    5.6774   -1.8247   -2.4503 H   0  0  0  0  0  0  0  0  0  0  0  0
    6.8538   -1.4542   -0.3923 H   0  0  0  0  0  0  0  0  0  0  0  0
    5.2503   -2.1810   -0.0391 H   0  0  0  0  0  0  0  0  0  0  0  0
    3.7905    1.6505    0.4183 H   0  0  0  0  0  0  0  0  0  0  0  0
   -2.1572    2.0910    4.7325 H   0  0  0  0  0  0  0  0  0  0  0  0
   -4.6519    1.6953    4.4870 H   0  0  0  0  0  0  0  0  0  0  0  0
   -6.4181   -0.0734    0.2627 H   0  0  0  0  0  0  0  0  0  0  0  0
   -2.1958    0.3344    0.0140 H   0  0  0  0  0  0  0  0  0  0  0  0
   -2.5910    0.7867   -1.9760 H   0  0  0  0  0  0  0  0  0  0  0  0
   -2.5121    0.0731   -4.2655 H   0  0  0  0  0  0  0  0  0  0  0  0
   -5.8583   -2.4378   -3.6560 H   0  0  0  0  0  0  0  0  0  0  0  0
   -6.0119   -1.7405   -1.2441 H   0  0  0  0  0  0  0  0  0  0  0  0
    0.8353   -2.8607    1.1181 H   0  0  0  0  0  0  0  0  0  0  0  0
    3.0068   -1.9727    0.5420 H   0  0  0  0  0  0  0  0  0  0  0  0
  1  2  1  0
  2  3  1  0
  3  4  1  0
  4  5  2  0
  4  6  2  0
  4  7  1  0
  7  8  1  0
  8  9  2  0
  9 10  1  0
  9 11  1  0
 11 12  1  0
 12 13  2  0
 12 14  1  0
 14 15  2  0
 15 16  1  0
 16 17  1  0
 17 18  2  0
 18 19  1  0
 19 20  2  0
 20 21  1  0
 21 22  2  0
 20 23  1  0
 23 24  2  0
 24 25  1  0
 25 26  2  0
 26 27  1  0
 26 28  1  0
 28 29  2  0
 11 30  2  0
 30 31  1  0
 30 32  1  0
 32 33  2  0
 33  8  1  0
 22 14  1  0
 29 23  1  0
 22 17  1  0
  1 34  1  0
  1 35  1  0
  1 36  1  0
  2 37  1  0
  2 38  1  0
  3 39  1  0
  3 40  1  0
  7 41  1  0
 15 42  1  0
 16 43  1  0
 19 44  1  0
 21 45  1  0
 24 46  1  0
 25 47  1  0
 28 48  1  0
 29 49  1  0
 32 50  1  0
 33 51  1  0
M  END
$$$$
