
     RDKit          3D

 53 57  0  0  0  0  0  0  0  0999 V2000
    6.2133   -2.3398    0.4674 C   0  0  0  0  0  0  0  0  0  0  0  0
    5.8020   -1.7735   -0.8952 C   0  0  1  0  0  0  0  0  0  0  0  0
    4.3357   -1.8338   -1.0635 C   0  0  0  0  0  0  0  0  0  0  0  0
    3.6142   -0.6080   -1.0040 N   0  0  0  0  0  0  0  0  0  0  0  0
    2.2577   -0.6284   -0.5880 C   0  0  0  0  0  0  0  0  0  0  0  0
    1.4255    0.4683   -0.5780 C   0  0  0  0  0  0  0  0  0  0  0  0
    0.1071    0.3724   -0.1525 C   0  0  0  0  0  0  0  0  0  0  0  0
   -0.7292    1.5660   -0.1628 C   0  0  0  0  0  0  0  0  0  0  0  0
   -0.3668    2.8021   -0.5500 N   0  0  0  0  0  0  0  0  0  0  0  0
   -1.3733    3.6442   -0.4296 N   0  0  0  0  0  0  0  0  0  0  0  0
   -2.4536    2.9987    0.0457 C   0  0  0  0  0  0  0  0  0  0  0  0
   -3.7508    3.3667    0.3610 C   0  0  0  0  0  0  0  0  0  0  0  0
   -4.6529    2.4218    0.8485 C   0  0  0  0  0  0  0  0  0  0  0  0
   -4.2528    1.1159    1.0176 C   0  0  0  0  0  0  0  0  0  0  0  0
   -5.1467    0.1893    1.4985 O   0  0  0  0  0  0  0  0  0  0  0  0
   -5.9994   -0.5921    0.6923 C   0  0  0  0  0  0  0  0  0  0  0  0
   -5.3742   -1.5145   -0.3276 C   0  0  0  0  0  0  0  0  0  0  0  0
   -7.3772   -0.1204    0.3998 C   0  0  0  0  0  0  0  0  0  0  0  0
   -7.1858   -1.1818    1.4209 C   0  0  0  0  0  0  0  0  0  0  0  0
   -2.9617    0.7582    0.7019 C   0  0  0  0  0  0  0  0  0  0  0  0
   -2.0484    1.6839    0.2152 C   0  0  0  0  0  0  0  0  0  0  0  0
   -0.3404   -0.8202    0.2512 N   0  0  0  0  0  0  0  0  0  0  0  0
    0.4443   -1.9217    0.2567 C   0  0  0  0  0  0  0  0  0  0  0  0
    1.7115   -1.7852   -0.1621 N   0  0  0  0  0  0  0  0  0  0  0  0
    4.2871    0.6177   -1.3697 C   0  0  0  0  0  0  0  0  0  0  0  0
    5.6859    0.5373   -0.7734 C   0  0  1  0  0  0  0  0  0  0  0  0
    5.5978    0.7587    0.7128 C   0  0  0  0  0  0  0  0  0  0  0  0
    6.3887   -0.5617   -1.1494 O   0  0  0  0  0  0  0  0  0  0  0  0
    5.7500   -1.8162    1.2992 H   0  0  0  0  0  0  0  0  0  0  0  0
    5.7831   -3.3844    0.4751 H   0  0  0  0  0  0  0  0  0  0  0  0
    7.3062   -2.4625    0.5341 H   0  0  0  0  0  0  0  0  0  0  0  0
    6.2541   -2.5021   -1.6345 H   0  0  0  0  0  0  0  0  0  0  0  0
    4.0352   -2.3427   -2.0243 H   0  0  0  0  0  0  0  0  0  0  0  0
    3.9157   -2.5182   -0.2686 H   0  0  0  0  0  0  0  0  0  0  0  0
    1.7950    1.4274   -0.9085 H   0  0  0  0  0  0  0  0  0  0  0  0
   -1.3721    4.6490   -0.6544 H   0  0  0  0  0  0  0  0  0  0  0  0
   -4.0555    4.3863    0.2266 H   0  0  0  0  0  0  0  0  0  0  0  0
   -5.6465    2.7864    1.0716 H   0  0  0  0  0  0  0  0  0  0  0  0
   -5.0454   -2.4240    0.2066 H   0  0  0  0  0  0  0  0  0  0  0  0
   -6.1223   -1.8000   -1.0913 H   0  0  0  0  0  0  0  0  0  0  0  0
   -4.5462   -1.0160   -0.8758 H   0  0  0  0  0  0  0  0  0  0  0  0
   -7.8758   -0.4333   -0.5355 H   0  0  0  0  0  0  0  0  0  0  0  0
   -7.6069    0.9109    0.7205 H   0  0  0  0  0  0  0  0  0  0  0  0
   -7.3648   -0.9051    2.4743 H   0  0  0  0  0  0  0  0  0  0  0  0
   -7.4957   -2.2291    1.1796 H   0  0  0  0  0  0  0  0  0  0  0  0
   -2.6166   -0.2549    0.8224 H   0  0  0  0  0  0  0  0  0  0  0  0
    0.0112   -2.8511    0.5971 H   0  0  0  0  0  0  0  0  0  0  0  0
    3.7892    1.4662   -0.9014 H   0  0  0  0  0  0  0  0  0  0  0  0
    4.3607    0.7027   -2.4779 H   0  0  0  0  0  0  0  0  0  0  0  0
    6.2275    1.4371   -1.1889 H   0  0  0  0  0  0  0  0  0  0  0  0
    6.5079    0.4600    1.2412 H   0  0  0  0  0  0  0  0  0  0  0  0
    5.4894    1.8683    0.8970 H   0  0  0  0  0  0  0  0  0  0  0  0
    4.6649    0.3178    1.1322 H   0  0  0  0  0  0  0  0  0  0  0  0
  1  2  1  0
  2  3  1  0
  3  4  1  0
  4  5  1  0
  5  6  2  0
  6  7  1  0
  7  8  1  0
  8  9  2  0
  9 10  1  0
 10 11  1  0
 11 12  2  0
 12 13  1  0
 13 14  2  0
 14 15  1  0
 15 16  1  0
 16 17  1  0
 16 18  1  0
 18 19  1  0
 14 20  1  0
 20 21  2  0
  7 22  2  0
 22 23  1  0
 23 24  2  0
  4 25  1  0
 25 26  1  0
 26 27  1  0
 26 28  1  0
 28  2  1  0
 24  5  1  0
 21  8  1  0
 21 11  1  0
 19 16  1  0
  1 29  1  0
  1 30  1  0
  1 31  1  0
  2 32  1  6
  3 33  1  0
  3 34  1  0
  6 35  1  0
 10 36  1  0
 12 37  1  0
 13 38  1  0
 17 39  1  0
 17 40  1  0
 17 41  1  0
 18 42  1  0
 18 43  1  0
 19 44  1  0
 19 45  1  0
 20 46  1  0
 23 47  1  0
 25 48  1  0
 25 49  1  0
 26 50  1  6
 27 51  1  0
 27 52  1  0
 27 53  1  0
M  END
$$$$
