@<TRIPOS>MOLECULE
*****
 53 57 0 0 0
SMALL
GASTEIGER

@<TRIPOS>ATOM
      1 C           6.2133   -2.3398    0.4674 C.3     1  UNL1       -0.0372
      2 C           5.8020   -1.7735   -0.8952 C.3     1  UNL1        0.0719
      3 C           4.3357   -1.8338   -1.0635 C.3     1  UNL1        0.0396
      4 N           3.6142   -0.6080   -1.0040 N.pl3   1  UNL1       -0.3102
      5 C           2.2577   -0.6284   -0.5880 C.ar    1  UNL1        0.1252
      6 C           1.4255    0.4683   -0.5780 C.ar    1  UNL1        0.0059
      7 C           0.1071    0.3724   -0.1525 C.ar    1  UNL1        0.0965
      8 C          -0.7292    1.5660   -0.1628 C.ar    1  UNL1        0.1186
      9 N          -0.3668    2.8021   -0.5500 N.ar    1  UNL1       -0.1712
     10 N          -1.3733    3.6442   -0.4296 N.ar    1  UNL1       -0.2763
     11 C          -2.4536    2.9987    0.0457 C.ar    1  UNL1        0.0666
     12 C          -3.7508    3.3667    0.3610 C.ar    1  UNL1       -0.0328
     13 C          -4.6529    2.4218    0.8485 C.ar    1  UNL1       -0.0179
     14 C          -4.2528    1.1159    1.0176 C.ar    1  UNL1        0.1221
     15 O          -5.1467    0.1893    1.4985 O.3     1  UNL1       -0.4859
     16 C          -5.9994   -0.5921    0.6923 C.3     1  UNL1        0.1081
     17 C          -5.3742   -1.5145   -0.3276 C.3     1  UNL1       -0.0249
     18 C          -7.3772   -0.1204    0.3998 C.3     1  UNL1       -0.0096
     19 C          -7.1858   -1.1818    1.4209 C.3     1  UNL1       -0.0096
     20 C          -2.9617    0.7582    0.7019 C.ar    1  UNL1       -0.0086
     21 C          -2.0484    1.6839    0.2152 C.ar    1  UNL1        0.0323
     22 N          -0.3404   -0.8202    0.2512 N.ar    1  UNL1       -0.2337
     23 C           0.4443   -1.9217    0.2567 C.ar    1  UNL1        0.1188
     24 N           1.7115   -1.7852   -0.1621 N.ar    1  UNL1       -0.2207
     25 C           4.2871    0.6177   -1.3697 C.3     1  UNL1        0.0396
     26 C           5.6859    0.5373   -0.7734 C.3     1  UNL1        0.0719
     27 C           5.5978    0.7587    0.7128 C.3     1  UNL1       -0.0372
     28 O           6.3887   -0.5617   -1.1494 O.3     1  UNL1       -0.3708
     29 H           5.7500   -1.8162    1.2992 H       1  UNL1        0.0255
     30 H           5.7831   -3.3844    0.4751 H       1  UNL1        0.0255
     31 H           7.3062   -2.4625    0.5341 H       1  UNL1        0.0255
     32 H           6.2541   -2.5021   -1.6345 H       1  UNL1        0.0609
     33 H           4.0352   -2.3427   -2.0243 H       1  UNL1        0.0489
     34 H           3.9157   -2.5182   -0.2686 H       1  UNL1        0.0489
     35 H           1.7950    1.4274   -0.9085 H       1  UNL1        0.0674
     36 H          -1.3721    4.6490   -0.6544 H       1  UNL1        0.1889
     37 H          -4.0555    4.3863    0.2266 H       1  UNL1        0.0640
     38 H          -5.6465    2.7864    1.0716 H       1  UNL1        0.0655
     39 H          -5.0454   -2.4240    0.2066 H       1  UNL1        0.0268
     40 H          -6.1223   -1.8000   -1.0913 H       1  UNL1        0.0268
     41 H          -4.5462   -1.0160   -0.8758 H       1  UNL1        0.0268
     42 H          -7.8758   -0.4333   -0.5355 H       1  UNL1        0.0305
     43 H          -7.6069    0.9109    0.7205 H       1  UNL1        0.0305
     44 H          -7.3648   -0.9051    2.4743 H       1  UNL1        0.0305
     45 H          -7.4957   -2.2291    1.1796 H       1  UNL1        0.0305
     46 H          -2.6166   -0.2549    0.8224 H       1  UNL1        0.0661
     47 H           0.0112   -2.8511    0.5971 H       1  UNL1        0.1048
     48 H           3.7892    1.4662   -0.9014 H       1  UNL1        0.0489
     49 H           4.3607    0.7027   -2.4779 H       1  UNL1        0.0489
     50 H           6.2275    1.4371   -1.1889 H       1  UNL1        0.0609
     51 H           6.5079    0.4600    1.2412 H       1  UNL1        0.0255
     52 H           5.4894    1.8683    0.8970 H       1  UNL1        0.0255
     53 H           4.6649    0.3178    1.1322 H       1  UNL1        0.0255
@<TRIPOS>BOND
     1     1     2    1
     2     2     3    1
     3     3     4    1
     4     4     5    1
     5     5     6   ar
     6     6     7   ar
     7     7     8    1
     8     8     9   ar
     9     9    10   ar
    10    10    11   ar
    11    11    12   ar
    12    12    13   ar
    13    13    14   ar
    14    14    15    1
    15    15    16    1
    16    16    17    1
    17    16    18    1
    18    18    19    1
    19    14    20   ar
    20    20    21   ar
    21     7    22   ar
    22    22    23   ar
    23    23    24   ar
    24     4    25    1
    25    25    26    1
    26    26    27    1
    27    26    28    1
    28    28     2    1
    29    24     5   ar
    30    21     8   ar
    31    21    11   ar
    32    19    16    1
    33     1    29    1
    34     1    30    1
    35     1    31    1
    36     2    32    1
    37     3    33    1
    38     3    34    1
    39     6    35    1
    40    10    36    1
    41    12    37    1
    42    13    38    1
    43    17    39    1
    44    17    40    1
    45    17    41    1
    46    18    42    1
    47    18    43    1
    48    19    44    1
    49    19    45    1
    50    20    46    1
    51    23    47    1
    52    25    48    1
    53    25    49    1
    54    26    50    1
    55    27    51    1
    56    27    52    1
    57    27    53    1
