
     RDKit          3D

 43 46  0  0  0  0  0  0  0  0999 V2000
    9.5637   -0.5134   -0.0740 N   0  0  0  0  0  0  0  0  0  0  0  0
    8.4030   -0.4228   -0.0730 C   0  0  0  0  0  0  0  0  0  0  0  0
    6.9616   -0.3272   -0.0537 C   0  0  0  0  0  0  0  0  0  0  0  0
    6.2016   -1.4535   -0.3153 C   0  0  0  0  0  0  0  0  0  0  0  0
    4.8122   -1.3813   -0.3009 C   0  0  0  0  0  0  0  0  0  0  0  0
    4.1852   -0.1979   -0.0285 C   0  0  0  0  0  0  0  0  0  0  0  0
    2.7008   -0.1015   -0.0085 C   0  0  0  0  0  0  0  0  0  0  0  0
    2.0714   -1.1541   -0.2528 O   0  0  0  0  0  0  0  0  0  0  0  0
    2.0599    1.1123    0.2711 N   0  0  0  0  0  0  0  0  0  0  0  0
    0.6688    1.3139    0.3157 C   0  0  0  0  0  0  0  0  0  0  0  0
    0.1729    2.5978    0.6116 C   0  0  0  0  0  0  0  0  0  0  0  0
   -1.1701    2.8449    0.6669 C   0  0  0  0  0  0  0  0  0  0  0  0
   -2.0793    1.8350    0.4327 C   0  0  0  0  0  0  0  0  0  0  0  0
   -3.4316    2.0726    0.4860 F   0  0  0  0  0  0  0  0  0  0  0  0
   -1.6501    0.5618    0.1392 C   0  0  0  0  0  0  0  0  0  0  0  0
   -2.6545   -0.5170   -0.1148 C   0  0  2  0  0  0  0  0  0  0  0  0
   -1.9609   -1.7890   -0.5443 C   0  0  0  0  0  0  0  0  0  0  0  0
   -2.9251   -2.7674   -0.7809 F   0  0  0  0  0  0  0  0  0  0  0  0
   -1.3686   -1.5425   -1.7663 F   0  0  0  0  0  0  0  0  0  0  0  0
   -3.4193   -0.0608   -1.2581 N   0  0  0  0  0  0  0  0  0  0  0  0
   -4.6683    0.1266   -1.3133 C   0  0  0  0  0  0  0  0  0  0  0  0
   -5.2172    0.5837   -2.5552 N   0  0  0  0  0  0  0  0  0  0  0  0
   -5.4319   -0.1118   -0.1993 O   0  0  0  0  0  0  0  0  0  0  0  0
   -4.8940   -0.4038    1.0537 C   0  0  1  0  0  0  0  0  0  0  0  0
   -4.4079   -1.7784    1.3683 C   0  0  0  0  0  0  0  0  0  0  0  0
   -3.4600   -0.6800    1.1357 C   0  0  1  0  0  0  0  0  0  0  0  0
   -0.2790    0.3477    0.0914 C   0  0  0  0  0  0  0  0  0  0  0  0
    4.9436    0.8842    0.2228 N   0  0  0  0  0  0  0  0  0  0  0  0
    6.2963    0.8502    0.2172 C   0  0  0  0  0  0  0  0  0  0  0  0
    6.6716   -2.3878   -0.5303 H   0  0  0  0  0  0  0  0  0  0  0  0
    4.2014   -2.2503   -0.5029 H   0  0  0  0  0  0  0  0  0  0  0  0
    2.6840    1.9333    0.4617 H   0  0  0  0  0  0  0  0  0  0  0  0
    0.9151    3.3937    0.7963 H   0  0  0  0  0  0  0  0  0  0  0  0
   -1.5575    3.8215    0.8918 H   0  0  0  0  0  0  0  0  0  0  0  0
   -1.2609   -2.1851    0.2204 H   0  0  0  0  0  0  0  0  0  0  0  0
   -6.1772    0.2392   -2.8319 H   0  0  0  0  0  0  0  0  0  0  0  0
   -4.7417    1.2260   -3.1999 H   0  0  0  0  0  0  0  0  0  0  0  0
   -5.3936    0.1838    1.8804 H   0  0  0  0  0  0  0  0  0  0  0  0
   -4.6764   -2.5578    0.6552 H   0  0  0  0  0  0  0  0  0  0  0  0
   -4.6089   -2.1092    2.4258 H   0  0  0  0  0  0  0  0  0  0  0  0
   -2.9660   -0.3001    2.0830 H   0  0  0  0  0  0  0  0  0  0  0  0
   -0.0059   -0.6597   -0.1433 H   0  0  0  0  0  0  0  0  0  0  0  0
    6.8928    1.7243    0.4202 H   0  0  0  0  0  0  0  0  0  0  0  0
  1  2  3  0
  2  3  1  0
  3  4  2  0
  4  5  1  0
  5  6  2  0
  6  7  1  0
  7  8  2  0
  7  9  1  0
  9 10  1  0
 10 11  2  0
 11 12  1  0
 12 13  2  0
 13 14  1  0
 13 15  1  0
 15 16  1  0
 16 17  1  6
 17 18  1  0
 17 19  1  0
 16 20  1  0
 20 21  2  0
 21 22  1  0
 21 23  1  0
 23 24  1  0
 24 25  1  0
 25 26  1  0
 15 27  2  0
  6 28  1  0
 28 29  2  0
 29  3  1  0
 27 10  1  0
 26 16  1  0
 26 24  1  0
  4 30  1  0
  5 31  1  0
  9 32  1  0
 11 33  1  0
 12 34  1  0
 17 35  1  0
 22 36  1  0
 22 37  1  0
 24 38  1  1
 25 39  1  0
 25 40  1  0
 26 41  1  1
 27 42  1  0
 29 43  1  0
M  END
$$$$
