@<TRIPOS>MOLECULE
*****
 43 46 0 0 0
SMALL
GASTEIGER

@<TRIPOS>ATOM
      1 N           9.5637   -0.5134   -0.0740 N.1     1  UNL1       -0.1908
      2 C           8.4030   -0.4228   -0.0730 C.1     1  UNL1        0.1007
      3 C           6.9616   -0.3272   -0.0537 C.ar    1  UNL1        0.0699
      4 C           6.2016   -1.4535   -0.3153 C.ar    1  UNL1       -0.0407
      5 C           4.8122   -1.3813   -0.3009 C.ar    1  UNL1       -0.0300
      6 C           4.1852   -0.1979   -0.0285 C.ar    1  UNL1        0.1257
      7 C           2.7008   -0.1015   -0.0085 C.2     1  UNL1        0.2666
      8 O           2.0714   -1.1541   -0.2528 O.2     1  UNL1       -0.2682
      9 N           2.0599    1.1123    0.2711 N.am    1  UNL1       -0.2802
     10 C           0.6688    1.3139    0.3157 C.ar    1  UNL1        0.0342
     11 C           0.1729    2.5978    0.6116 C.ar    1  UNL1       -0.0377
     12 C          -1.1701    2.8449    0.6669 C.ar    1  UNL1       -0.0243
     13 C          -2.0793    1.8350    0.4327 C.ar    1  UNL1        0.1292
     14 F          -3.4316    2.0726    0.4860 F       1  UNL1       -0.2051
     15 C          -1.6501    0.5618    0.1392 C.ar    1  UNL1        0.0228
     16 C          -2.6545   -0.5170   -0.1148 C.3     1  UNL1        0.1603
     17 C          -1.9609   -1.7890   -0.5443 C.3     1  UNL1        0.2686
     18 F          -2.9251   -2.7674   -0.7809 F       1  UNL1       -0.2062
     19 F          -1.3686   -1.5425   -1.7663 F       1  UNL1       -0.2062
     20 N          -3.4193   -0.0608   -1.2581 N.2     1  UNL1       -0.2194
     21 C          -4.6683    0.1266   -1.3133 C.2     1  UNL1        0.2764
     22 N          -5.2172    0.5837   -2.5552 N.pl3   1  UNL1       -0.3134
     23 O          -5.4319   -0.1118   -0.1993 O.2     1  UNL1       -0.4622
     24 C          -4.8940   -0.4038    1.0537 C.3     1  UNL1        0.1091
     25 C          -4.4079   -1.7784    1.3683 C.3     1  UNL1       -0.0064
     26 C          -3.4600   -0.6800    1.1357 C.3     1  UNL1        0.0344
     27 C          -0.2790    0.3477    0.0914 C.ar    1  UNL1       -0.0321
     28 N           4.9436    0.8842    0.2228 N.ar    1  UNL1       -0.2491
     29 C           6.2963    0.8502    0.2172 C.ar    1  UNL1        0.0458
     30 H           6.6716   -2.3878   -0.5303 H       1  UNL1        0.0631
     31 H           4.2014   -2.2503   -0.5029 H       1  UNL1        0.0641
     32 H           2.6840    1.9333    0.4617 H       1  UNL1        0.1552
     33 H           0.9151    3.3937    0.7963 H       1  UNL1        0.0637
     34 H          -1.5575    3.8215    0.8918 H       1  UNL1        0.0647
     35 H          -1.2609   -2.1851    0.2204 H       1  UNL1        0.1047
     36 H          -6.1772    0.2392   -2.8319 H       1  UNL1        0.1466
     37 H          -4.7417    1.2260   -3.1999 H       1  UNL1        0.1466
     38 H          -5.3936    0.1838    1.8804 H       1  UNL1        0.0737
     39 H          -4.6764   -2.5578    0.6552 H       1  UNL1        0.0306
     40 H          -4.6089   -2.1092    2.4258 H       1  UNL1        0.0306
     41 H          -2.9660   -0.3001    2.0830 H       1  UNL1        0.0366
     42 H          -0.0059   -0.6597   -0.1433 H       1  UNL1        0.0640
     43 H           6.8928    1.7243    0.4202 H       1  UNL1        0.0843
@<TRIPOS>BOND
     1     1     2    3
     2     2     3    1
     3     3     4   ar
     4     4     5   ar
     5     5     6   ar
     6     6     7    1
     7     7     8    2
     8     7     9   am
     9     9    10    1
    10    10    11   ar
    11    11    12   ar
    12    12    13   ar
    13    13    14    1
    14    13    15   ar
    15    15    16    1
    16    16    17    1
    17    17    18    1
    18    17    19    1
    19    16    20    1
    20    20    21    2
    21    21    22    1
    22    21    23    1
    23    23    24    1
    24    24    25    1
    25    25    26    1
    26    15    27   ar
    27     6    28   ar
    28    28    29   ar
    29    29     3   ar
    30    27    10   ar
    31    26    16    1
    32    26    24    1
    33     4    30    1
    34     5    31    1
    35     9    32    1
    36    11    33    1
    37    12    34    1
    38    17    35    1
    39    22    36    1
    40    22    37    1
    41    24    38    1
    42    25    39    1
    43    25    40    1
    44    26    41    1
    45    27    42    1
    46    29    43    1
