
     RDKit          3D

 46 49  0  0  0  0  0  0  0  0999 V2000
   -0.4846   -3.0515    0.2246 C   0  0  0  0  0  0  0  0  0  0  0  0
    0.6008   -2.0936    0.2092 N   0  0  0  0  0  0  0  0  0  0  0  0
    0.4811   -0.8437   -0.2704 C   0  0  0  0  0  0  0  0  0  0  0  0
   -0.7631   -0.4009   -0.7963 N   0  0  0  0  0  0  0  0  0  0  0  0
   -1.0549   -0.6176   -2.2021 C   0  0  0  0  0  0  0  0  0  0  0  0
   -1.6160    0.7175   -2.7099 C   0  0  0  0  0  0  0  0  0  0  0  0
   -2.7243    1.1258   -2.0038 O   0  0  0  0  0  0  0  0  0  0  0  0
   -3.0359    0.3199   -0.9230 C   0  0  2  0  0  0  0  0  0  0  0  0
   -4.1945    0.9354   -0.1756 C   0  0  0  0  0  0  0  0  0  0  0  0
   -3.7759    1.5023    1.1454 C   0  0  0  0  0  0  0  0  0  0  0  0
   -3.0712    0.5238    2.0237 C   0  0  0  0  0  0  0  0  0  0  0  0
   -2.0903   -0.3549    1.2855 C   0  0  0  0  0  0  0  0  0  0  0  0
   -1.7897    0.2716   -0.0328 C   0  0  1  0  0  0  0  0  0  0  0  0
    1.5434   -0.0552   -0.2344 N   0  0  0  0  0  0  0  0  0  0  0  0
    2.7707   -0.3867    0.2486 C   0  0  0  0  0  0  0  0  0  0  0  0
    3.8489    0.6149    0.2139 C   0  0  0  0  0  0  0  0  0  0  0  0
    3.5478    1.8654   -0.3180 C   0  0  0  0  0  0  0  0  0  0  0  0
    4.4996    2.8479   -0.3830 C   0  0  0  0  0  0  0  0  0  0  0  0
    5.7477    2.6438    0.0599 N   0  0  0  0  0  0  0  0  0  0  0  0
    6.0505    1.4553    0.5704 C   0  0  0  0  0  0  0  0  0  0  0  0
    5.1169    0.4116    0.6624 C   0  0  0  0  0  0  0  0  0  0  0  0
    5.4900   -0.7694    1.1909 F   0  0  0  0  0  0  0  0  0  0  0  0
    2.9112   -1.6511    0.7396 C   0  0  0  0  0  0  0  0  0  0  0  0
    1.7834   -2.4866    0.7007 C   0  0  0  0  0  0  0  0  0  0  0  0
    1.9594   -3.6543    1.1680 O   0  0  0  0  0  0  0  0  0  0  0  0
   -0.8553   -3.0859    1.2915 H   0  0  0  0  0  0  0  0  0  0  0  0
   -0.1437   -4.0895    0.0097 H   0  0  0  0  0  0  0  0  0  0  0  0
   -1.3101   -2.7858   -0.4608 H   0  0  0  0  0  0  0  0  0  0  0  0
   -1.7424   -1.4385   -2.3915 H   0  0  0  0  0  0  0  0  0  0  0  0
   -0.1188   -0.7846   -2.7920 H   0  0  0  0  0  0  0  0  0  0  0  0
   -1.8332    0.6877   -3.7876 H   0  0  0  0  0  0  0  0  0  0  0  0
   -0.8080    1.4756   -2.5040 H   0  0  0  0  0  0  0  0  0  0  0  0
   -3.3336   -0.7065   -1.2369 H   0  0  0  0  0  0  0  0  0  0  0  0
   -4.6839    1.7068   -0.7750 H   0  0  0  0  0  0  0  0  0  0  0  0
   -4.9825    0.1577    0.0379 H   0  0  0  0  0  0  0  0  0  0  0  0
   -3.2035    2.4504    1.0562 H   0  0  0  0  0  0  0  0  0  0  0  0
   -4.7256    1.7948    1.6824 H   0  0  0  0  0  0  0  0  0  0  0  0
   -2.5440    1.1223    2.8219 H   0  0  0  0  0  0  0  0  0  0  0  0
   -3.8301   -0.0769    2.5651 H   0  0  0  0  0  0  0  0  0  0  0  0
   -2.6145   -1.3176    1.1165 H   0  0  0  0  0  0  0  0  0  0  0  0
   -1.1770   -0.4206    1.8772 H   0  0  0  0  0  0  0  0  0  0  0  0
   -1.4719    1.3336    0.0833 H   0  0  0  0  0  0  0  0  0  0  0  0
    2.5231    2.0361   -0.6830 H   0  0  0  0  0  0  0  0  0  0  0  0
    4.2192    3.8189   -0.8101 H   0  0  0  0  0  0  0  0  0  0  0  0
    7.0512    1.2747    0.9313 H   0  0  0  0  0  0  0  0  0  0  0  0
    3.8335   -2.0225    1.1458 H   0  0  0  0  0  0  0  0  0  0  0  0
  1  2  1  0
  2  3  1  0
  3  4  1  0
  4  5  1  0
  5  6  1  0
  6  7  1  0
  7  8  1  0
  8  9  1  0
  9 10  1  0
 10 11  1  0
 11 12  1  0
 12 13  1  0
  3 14  2  0
 14 15  1  0
 15 16  1  0
 16 17  2  0
 17 18  1  0
 18 19  2  0
 19 20  1  0
 20 21  2  0
 21 22  1  0
 15 23  2  0
 23 24  1  0
 24 25  2  0
 24  2  1  0
 13  4  1  0
 21 16  1  0
 13  8  1  0
  1 26  1  0
  1 27  1  0
  1 28  1  0
  5 29  1  0
  5 30  1  0
  6 31  1  0
  6 32  1  0
  8 33  1  6
  9 34  1  0
  9 35  1  0
 10 36  1  0
 10 37  1  0
 11 38  1  0
 11 39  1  0
 12 40  1  0
 12 41  1  0
 13 42  1  1
 17 43  1  0
 18 44  1  0
 20 45  1  0
 23 46  1  0
M  END
$$$$
