@<TRIPOS>MOLECULE
*****
 46 49 0 0 0
SMALL
GASTEIGER

@<TRIPOS>ATOM
      1 C          -0.4846   -3.0515    0.2246 C.3     1  UNL1        0.0178
      2 N           0.6008   -2.0936    0.2092 N.ar    1  UNL1       -0.2839
      3 C           0.4811   -0.8437   -0.2704 C.ar    1  UNL1        0.2016
      4 N          -0.7631   -0.4009   -0.7963 N.pl3   1  UNL1       -0.2932
      5 C          -1.0549   -0.6176   -2.2021 C.3     1  UNL1        0.0387
      6 C          -1.6160    0.7175   -2.7099 C.3     1  UNL1        0.0639
      7 O          -2.7243    1.1258   -2.0038 O.3     1  UNL1       -0.3732
      8 C          -3.0359    0.3199   -0.9230 C.3     1  UNL1        0.0772
      9 C          -4.1945    0.9354   -0.1756 C.3     1  UNL1       -0.0248
     10 C          -3.7759    1.5023    1.1454 C.3     1  UNL1       -0.0506
     11 C          -3.0712    0.5238    2.0237 C.3     1  UNL1       -0.0512
     12 C          -2.0903   -0.3549    1.2855 C.3     1  UNL1       -0.0319
     13 C          -1.7897    0.2716   -0.0328 C.3     1  UNL1        0.0524
     14 N           1.5434   -0.0552   -0.2344 N.ar    1  UNL1       -0.2154
     15 C           2.7707   -0.3867    0.2486 C.ar    1  UNL1        0.0825
     16 C           3.8489    0.6149    0.2139 C.ar    1  UNL1        0.0387
     17 C           3.5478    1.8654   -0.3180 C.ar    1  UNL1       -0.0316
     18 C           4.4996    2.8479   -0.3830 C.ar    1  UNL1        0.0284
     19 N           5.7477    2.6438    0.0599 N.ar    1  UNL1       -0.2604
     20 C           6.0505    1.4553    0.5704 C.ar    1  UNL1        0.0634
     21 C           5.1169    0.4116    0.6624 C.ar    1  UNL1        0.1505
     22 F           5.4900   -0.7694    1.1909 F       1  UNL1       -0.2032
     23 C           2.9112   -1.6511    0.7396 C.ar    1  UNL1        0.0292
     24 C           1.7834   -2.4866    0.7007 C.ar    1  UNL1        0.2555
     25 O           1.9594   -3.6543    1.1680 O.2     1  UNL1       -0.2675
     26 H          -0.8553   -3.0859    1.2915 H       1  UNL1        0.0458
     27 H          -0.1437   -4.0895    0.0097 H       1  UNL1        0.0458
     28 H          -1.3101   -2.7858   -0.4608 H       1  UNL1        0.0458
     29 H          -1.7424   -1.4385   -2.3915 H       1  UNL1        0.0487
     30 H          -0.1188   -0.7846   -2.7920 H       1  UNL1        0.0487
     31 H          -1.8332    0.6877   -3.7876 H       1  UNL1        0.0575
     32 H          -0.8080    1.4756   -2.5040 H       1  UNL1        0.0575
     33 H          -3.3336   -0.7065   -1.2369 H       1  UNL1        0.0614
     34 H          -4.6839    1.7068   -0.7750 H       1  UNL1        0.0291
     35 H          -4.9825    0.1577    0.0379 H       1  UNL1        0.0291
     36 H          -3.2035    2.4504    1.0562 H       1  UNL1        0.0266
     37 H          -4.7256    1.7948    1.6824 H       1  UNL1        0.0266
     38 H          -2.5440    1.1223    2.8219 H       1  UNL1        0.0266
     39 H          -3.8301   -0.0769    2.5651 H       1  UNL1        0.0266
     40 H          -2.6145   -1.3176    1.1165 H       1  UNL1        0.0284
     41 H          -1.1770   -0.4206    1.8772 H       1  UNL1        0.0284
     42 H          -1.4719    1.3336    0.0833 H       1  UNL1        0.0526
     43 H           2.5231    2.0361   -0.6830 H       1  UNL1        0.0640
     44 H           4.2192    3.8189   -0.8101 H       1  UNL1        0.0830
     45 H           7.0512    1.2747    0.9313 H       1  UNL1        0.0859
     46 H           3.8335   -2.0225    1.1458 H       1  UNL1        0.0693
@<TRIPOS>BOND
     1     1     2    1
     2     2     3   ar
     3     3     4    1
     4     4     5    1
     5     5     6    1
     6     6     7    1
     7     7     8    1
     8     8     9    1
     9     9    10    1
    10    10    11    1
    11    11    12    1
    12    12    13    1
    13     3    14   ar
    14    14    15   ar
    15    15    16    1
    16    16    17   ar
    17    17    18   ar
    18    18    19   ar
    19    19    20   ar
    20    20    21   ar
    21    21    22    1
    22    15    23   ar
    23    23    24   ar
    24    24    25    2
    25    24     2   ar
    26    13     4    1
    27    21    16   ar
    28    13     8    1
    29     1    26    1
    30     1    27    1
    31     1    28    1
    32     5    29    1
    33     5    30    1
    34     6    31    1
    35     6    32    1
    36     8    33    1
    37     9    34    1
    38     9    35    1
    39    10    36    1
    40    10    37    1
    41    11    38    1
    42    11    39    1
    43    12    40    1
    44    12    41    1
    45    13    42    1
    46    17    43    1
    47    18    44    1
    48    20    45    1
    49    23    46    1
