@<TRIPOS>MOLECULE
*****
 53 55 0 0 0
SMALL
GASTEIGER

@<TRIPOS>ATOM
      1 C          -0.6965   -0.9927   -2.9499 C.3     1  UNL1       -0.0240
      2 C          -0.9221   -1.0312   -1.5186 C.ar    1  UNL1        0.0228
      3 C          -2.1936   -0.7272   -1.0200 C.ar    1  UNL1        0.0006
      4 C          -2.4806   -0.7633    0.3148 C.ar    1  UNL1        0.1418
      5 O          -3.7277   -0.4691    0.8513 O.3     1  UNL1       -0.4859
      6 C          -4.7423   -0.1113   -0.0798 C.3     1  UNL1        0.1173
      7 C          -6.0269    0.1777    0.6048 C.ar    1  UNL1        0.0250
      8 C          -6.4461    1.4789    0.7716 C.ar    1  UNL1       -0.0499
      9 C          -7.6289    1.8065    1.3994 C.ar    1  UNL1       -0.0259
     10 C          -8.4127    0.7781    1.8740 C.ar    1  UNL1        0.1261
     11 F          -9.5893    1.0408    2.5016 F       1  UNL1       -0.2054
     12 C          -8.0214   -0.5365    1.7230 C.ar    1  UNL1        0.0092
     13 C          -6.8185   -0.8425    1.0832 C.ar    1  UNL1        0.1325
     14 F          -6.4054   -2.1214    0.9185 F       1  UNL1       -0.2050
     15 C          -1.4668   -1.1136    1.1709 C.ar    1  UNL1        0.1238
     16 BR         -1.7851   -1.1897    3.0602 Br      1  UNL1       -0.0409
     17 C          -0.2045   -1.4152    0.6756 C.ar    1  UNL1        0.2694
     18 O           0.6912   -1.7330    1.4976 O.2     1  UNL1       -0.2663
     19 N           0.0488   -1.3679   -0.6688 N.ar    1  UNL1       -0.3072
     20 C           1.3550   -1.6827   -1.1173 C.3     1  UNL1        0.0514
     21 C           2.3102   -0.5435   -1.2119 C.ar    1  UNL1       -0.0274
     22 C           2.4652    0.2330   -2.3393 C.ar    1  UNL1       -0.0569
     23 C           3.3859    1.2786   -2.3393 C.ar    1  UNL1       -0.0611
     24 C           4.1680    1.5855   -1.2495 C.ar    1  UNL1       -0.0573
     25 C           4.0235    0.8174   -0.1183 C.ar    1  UNL1       -0.0331
     26 C           4.8371    1.0959    1.0916 C.3     1  UNL1        0.0235
     27 N           6.0790    0.3736    1.0911 N.3     1  UNL1       -0.3042
     28 C           6.8878    0.6116    2.2418 C.3     1  UNL1       -0.0127
     29 C           6.8028    0.4584   -0.1500 C.3     1  UNL1       -0.0127
     30 C           3.0973   -0.2291   -0.1280 C.ar    1  UNL1       -0.0525
     31 H           0.0022   -1.6988   -3.3852 H       1  UNL1        0.0292
     32 H          -1.6853   -1.2252   -3.4543 H       1  UNL1        0.0292
     33 H          -0.5055    0.0664   -3.2392 H       1  UNL1        0.0292
     34 H          -2.9731   -0.4559   -1.7023 H       1  UNL1        0.0672
     35 H          -4.8788   -0.9675   -0.7995 H       1  UNL1        0.0749
     36 H          -4.4225    0.7474   -0.7170 H       1  UNL1        0.0749
     37 H          -5.8015    2.2565    0.3843 H       1  UNL1        0.0623
     38 H          -7.9204    2.8365    1.5098 H       1  UNL1        0.0646
     39 H          -8.6044   -1.3667    2.0795 H       1  UNL1        0.0675
     40 H           1.8115   -2.3921   -0.3568 H       1  UNL1        0.0542
     41 H           1.3949   -2.2762   -2.0556 H       1  UNL1        0.0542
     42 H           1.8893    0.0246   -3.2083 H       1  UNL1        0.0621
     43 H           3.4880    1.8791   -3.2485 H       1  UNL1        0.0618
     44 H           4.8755    2.3971   -1.2637 H       1  UNL1        0.0621
     45 H           4.2498    0.7280    1.9729 H       1  UNL1        0.0475
     46 H           4.9562    2.1935    1.2431 H       1  UNL1        0.0475
     47 H           7.3213    1.6252    2.3006 H       1  UNL1        0.0391
     48 H           7.7372   -0.1146    2.2172 H       1  UNL1        0.0391
     49 H           6.3077    0.3611    3.1555 H       1  UNL1        0.0391
     50 H           7.7589   -0.1191    0.0152 H       1  UNL1        0.0391
     51 H           6.2964   -0.0705   -0.9788 H       1  UNL1        0.0391
     52 H           7.0664    1.5001   -0.4228 H       1  UNL1        0.0391
     53 H           3.0526   -0.7948    0.7967 H       1  UNL1        0.0624
@<TRIPOS>BOND
     1     1     2    1
     2     2     3   ar
     3     3     4   ar
     4     4     5    1
     5     5     6    1
     6     6     7    1
     7     7     8   ar
     8     8     9   ar
     9     9    10   ar
    10    10    11    1
    11    10    12   ar
    12    12    13   ar
    13    13    14    1
    14     4    15   ar
    15    15    16    1
    16    15    17   ar
    17    17    18    2
    18    17    19   ar
    19    19    20    1
    20    20    21    1
    21    21    22   ar
    22    22    23   ar
    23    23    24   ar
    24    24    25   ar
    25    25    26    1
    26    26    27    1
    27    27    28    1
    28    27    29    1
    29    25    30   ar
    30    19     2   ar
    31    30    21   ar
    32    13     7   ar
    33     1    31    1
    34     1    32    1
    35     1    33    1
    36     3    34    1
    37     6    35    1
    38     6    36    1
    39     8    37    1
    40     9    38    1
    41    12    39    1
    42    20    40    1
    43    20    41    1
    44    22    42    1
    45    23    43    1
    46    24    44    1
    47    26    45    1
    48    26    46    1
    49    28    47    1
    50    28    48    1
    51    28    49    1
    52    29    50    1
    53    29    51    1
    54    29    52    1
    55    30    53    1
