@<TRIPOS>MOLECULE
*****
 51 55 0 0 0
SMALL
GASTEIGER

@<TRIPOS>ATOM
      1 O           1.5781   -2.8793   -2.1359 O.2     1  UNL1       -0.4086
      2 N           1.6647   -1.6741   -1.5198 N.2     1  UNL1       -0.0816
      3 C           0.7034   -0.8621   -1.4533 C.2     1  UNL1        0.1738
      4 C          -0.5879   -1.1596   -2.0399 C.2     1  UNL1        0.2733
      5 O          -0.9102   -2.2132   -2.6636 O.2     1  UNL1       -0.2678
      6 N          -1.4307   -0.0183   -1.7715 N.am    1  UNL1       -0.2610
      7 C          -2.7965    0.0012   -2.2499 C.3     1  UNL1        0.0487
      8 C          -3.7731   -0.6034   -1.3175 C.ar    1  UNL1        0.0151
      9 C          -4.3446   -0.1108   -0.1679 C.ar    1  UNL1        0.1338
     10 O          -3.9723    1.1498    0.1934 O.3     1  UNL1       -0.4655
     11 C          -4.7442    1.8733    1.1297 C.3     1  UNL1        0.1911
     12 O          -5.9097    1.2479    1.5109 O.3     1  UNL1       -0.3392
     13 C          -5.7484   -0.1015    1.8115 C.3     1  UNL1        0.0799
     14 C          -5.2412   -0.8050    0.6053 C.ar    1  UNL1        0.0230
     15 C          -5.6274   -2.0809    0.2520 C.ar    1  UNL1       -0.0176
     16 C          -5.1036   -2.6517   -0.8857 C.ar    1  UNL1        0.1243
     17 F          -5.4500   -3.9001   -1.2767 F       1  UNL1       -0.2055
     18 C          -4.2095   -1.9080   -1.6207 C.ar    1  UNL1       -0.0183
     19 C          -0.6104    0.8790   -1.0547 C.ar    1  UNL1        0.0470
     20 C          -0.9115    2.1197   -0.5666 C.ar    1  UNL1       -0.0396
     21 C          -0.0409    2.9244    0.1129 C.ar    1  UNL1       -0.0594
     22 C           1.2268    2.4464    0.3160 C.ar    1  UNL1       -0.0538
     23 C           1.5962    1.1855   -0.1600 C.ar    1  UNL1       -0.0138
     24 C           2.9344    0.8107    0.1156 C.2     1  UNL1       -0.0533
     25 C           3.9724    0.0470    0.1041 C.2     1  UNL1       -0.0540
     26 C           5.3528   -0.0057    0.5473 C.ar    1  UNL1       -0.0250
     27 C           6.0825   -1.1183    0.2633 C.ar    1  UNL1       -0.0546
     28 C           7.3740   -1.1220    0.7014 C.ar    1  UNL1       -0.0612
     29 C           7.9167   -0.0722    1.3883 C.ar    1  UNL1       -0.0617
     30 C           7.1804    1.0451    1.6722 C.ar    1  UNL1       -0.0612
     31 C           5.8578    1.0918    1.2444 C.ar    1  UNL1       -0.0546
     32 C           0.6664    0.4298   -0.8364 C.ar    1  UNL1        0.0372
     33 H           2.1107   -3.6644   -1.7430 H       1  UNL1        0.3278
     34 H          -3.1060    1.0482   -2.5256 H       1  UNL1        0.0519
     35 H          -2.8718   -0.5476   -3.2249 H       1  UNL1        0.0519
     36 H          -4.1550    2.0535    2.0629 H       1  UNL1        0.1017
     37 H          -5.0429    2.8654    0.6988 H       1  UNL1        0.1017
     38 H          -6.7451   -0.4929    2.0953 H       1  UNL1        0.0612
     39 H          -5.0868   -0.2574    2.6901 H       1  UNL1        0.0612
     40 H          -6.3320   -2.5993    0.8768 H       1  UNL1        0.0651
     41 H          -3.8190   -2.3993   -2.5154 H       1  UNL1        0.0650
     42 H          -1.8880    2.5321   -0.7192 H       1  UNL1        0.0636
     43 H          -0.3288    3.8965    0.4784 H       1  UNL1        0.0618
     44 H           1.8725    3.1355    0.8649 H       1  UNL1        0.0624
     45 H           3.5323    1.5506    0.6708 H       1  UNL1        0.0624
     46 H           3.5772   -0.7957   -0.4296 H       1  UNL1        0.0624
     47 H           5.6674   -1.9569   -0.2793 H       1  UNL1        0.0623
     48 H           7.9548   -2.0147    0.4713 H       1  UNL1        0.0618
     49 H           8.9604   -0.1554    1.7038 H       1  UNL1        0.0618
     50 H           7.6736    1.8509    2.2244 H       1  UNL1        0.0618
     51 H           5.3320    1.9853    1.4927 H       1  UNL1        0.0623
@<TRIPOS>BOND
     1     1     2    1
     2     2     3    2
     3     3     4    1
     4     4     5    2
     5     4     6   am
     6     6     7    1
     7     7     8    1
     8     8     9   ar
     9     9    10    1
    10    10    11    1
    11    11    12    1
    12    12    13    1
    13    13    14    1
    14    14    15   ar
    15    15    16   ar
    16    16    17    1
    17    16    18   ar
    18     6    19    1
    19    19    20   ar
    20    20    21   ar
    21    21    22   ar
    22    22    23   ar
    23    23    24    1
    24    24    25    2
    25    25    26    1
    26    26    27   ar
    27    27    28   ar
    28    28    29   ar
    29    29    30   ar
    30    30    31   ar
    31    23    32   ar
    32    32     3    1
    33    18     8   ar
    34    32    19   ar
    35    14     9   ar
    36    31    26   ar
    37     1    33    1
    38     7    34    1
    39     7    35    1
    40    11    36    1
    41    11    37    1
    42    13    38    1
    43    13    39    1
    44    15    40    1
    45    18    41    1
    46    20    42    1
    47    21    43    1
    48    22    44    1
    49    24    45    1
    50    25    46    1
    51    27    47    1
    52    28    48    1
    53    29    49    1
    54    30    50    1
    55    31    51    1
