
     RDKit          3D

 51 55  0  0  0  0  0  0  0  0999 V2000
    1.5781   -2.8793   -2.1359 O   0  0  0  0  0  0  0  0  0  0  0  0
    1.6647   -1.6741   -1.5198 N   0  0  0  0  0  0  0  0  0  0  0  0
    0.7034   -0.8621   -1.4533 C   0  0  0  0  0  0  0  0  0  0  0  0
   -0.5879   -1.1596   -2.0399 C   0  0  0  0  0  0  0  0  0  0  0  0
   -0.9102   -2.2132   -2.6636 O   0  0  0  0  0  0  0  0  0  0  0  0
   -1.4307   -0.0183   -1.7715 N   0  0  0  0  0  0  0  0  0  0  0  0
   -2.7965    0.0012   -2.2499 C   0  0  0  0  0  0  0  0  0  0  0  0
   -3.7731   -0.6034   -1.3175 C   0  0  0  0  0  0  0  0  0  0  0  0
   -4.3446   -0.1108   -0.1679 C   0  0  0  0  0  0  0  0  0  0  0  0
   -3.9723    1.1498    0.1934 O   0  0  0  0  0  0  0  0  0  0  0  0
   -4.7442    1.8733    1.1297 C   0  0  0  0  0  0  0  0  0  0  0  0
   -5.9097    1.2479    1.5109 O   0  0  0  0  0  0  0  0  0  0  0  0
   -5.7484   -0.1015    1.8115 C   0  0  0  0  0  0  0  0  0  0  0  0
   -5.2412   -0.8050    0.6053 C   0  0  0  0  0  0  0  0  0  0  0  0
   -5.6274   -2.0809    0.2520 C   0  0  0  0  0  0  0  0  0  0  0  0
   -5.1036   -2.6517   -0.8857 C   0  0  0  0  0  0  0  0  0  0  0  0
   -5.4500   -3.9001   -1.2767 F   0  0  0  0  0  0  0  0  0  0  0  0
   -4.2095   -1.9080   -1.6207 C   0  0  0  0  0  0  0  0  0  0  0  0
   -0.6104    0.8790   -1.0547 C   0  0  0  0  0  0  0  0  0  0  0  0
   -0.9115    2.1197   -0.5666 C   0  0  0  0  0  0  0  0  0  0  0  0
   -0.0409    2.9244    0.1129 C   0  0  0  0  0  0  0  0  0  0  0  0
    1.2268    2.4464    0.3160 C   0  0  0  0  0  0  0  0  0  0  0  0
    1.5962    1.1855   -0.1600 C   0  0  0  0  0  0  0  0  0  0  0  0
    2.9344    0.8107    0.1156 C   0  0  0  0  0  0  0  0  0  0  0  0
    3.9724    0.0470    0.1041 C   0  0  0  0  0  0  0  0  0  0  0  0
    5.3528   -0.0057    0.5473 C   0  0  0  0  0  0  0  0  0  0  0  0
    6.0825   -1.1183    0.2633 C   0  0  0  0  0  0  0  0  0  0  0  0
    7.3740   -1.1220    0.7014 C   0  0  0  0  0  0  0  0  0  0  0  0
    7.9167   -0.0722    1.3883 C   0  0  0  0  0  0  0  0  0  0  0  0
    7.1804    1.0451    1.6722 C   0  0  0  0  0  0  0  0  0  0  0  0
    5.8578    1.0918    1.2444 C   0  0  0  0  0  0  0  0  0  0  0  0
    0.6664    0.4298   -0.8364 C   0  0  0  0  0  0  0  0  0  0  0  0
    2.1107   -3.6644   -1.7430 H   0  0  0  0  0  0  0  0  0  0  0  0
   -3.1060    1.0482   -2.5256 H   0  0  0  0  0  0  0  0  0  0  0  0
   -2.8718   -0.5476   -3.2249 H   0  0  0  0  0  0  0  0  0  0  0  0
   -4.1550    2.0535    2.0629 H   0  0  0  0  0  0  0  0  0  0  0  0
   -5.0429    2.8654    0.6988 H   0  0  0  0  0  0  0  0  0  0  0  0
   -6.7451   -0.4929    2.0953 H   0  0  0  0  0  0  0  0  0  0  0  0
   -5.0868   -0.2574    2.6901 H   0  0  0  0  0  0  0  0  0  0  0  0
   -6.3320   -2.5993    0.8768 H   0  0  0  0  0  0  0  0  0  0  0  0
   -3.8190   -2.3993   -2.5154 H   0  0  0  0  0  0  0  0  0  0  0  0
   -1.8880    2.5321   -0.7192 H   0  0  0  0  0  0  0  0  0  0  0  0
   -0.3288    3.8965    0.4784 H   0  0  0  0  0  0  0  0  0  0  0  0
    1.8725    3.1355    0.8649 H   0  0  0  0  0  0  0  0  0  0  0  0
    3.5323    1.5506    0.6708 H   0  0  0  0  0  0  0  0  0  0  0  0
    3.5772   -0.7957   -0.4296 H   0  0  0  0  0  0  0  0  0  0  0  0
    5.6674   -1.9569   -0.2793 H   0  0  0  0  0  0  0  0  0  0  0  0
    7.9548   -2.0147    0.4713 H   0  0  0  0  0  0  0  0  0  0  0  0
    8.9604   -0.1554    1.7038 H   0  0  0  0  0  0  0  0  0  0  0  0
    7.6736    1.8509    2.2244 H   0  0  0  0  0  0  0  0  0  0  0  0
    5.3320    1.9853    1.4927 H   0  0  0  0  0  0  0  0  0  0  0  0
  1  2  1  0
  2  3  2  0
  3  4  1  0
  4  5  2  0
  4  6  1  0
  6  7  1  0
  7  8  1  0
  8  9  2  0
  9 10  1  0
 10 11  1  0
 11 12  1  0
 12 13  1  0
 13 14  1  0
 14 15  2  0
 15 16  1  0
 16 17  1  0
 16 18  2  0
  6 19  1  0
 19 20  2  0
 20 21  1  0
 21 22  2  0
 22 23  1  0
 23 24  1  0
 24 25  2  0
 25 26  1  0
 26 27  2  0
 27 28  1  0
 28 29  2  0
 29 30  1  0
 30 31  2  0
 23 32  2  0
 32  3  1  0
 18  8  1  0
 32 19  1  0
 14  9  1  0
 31 26  1  0
  1 33  1  0
  7 34  1  0
  7 35  1  0
 11 36  1  0
 11 37  1  0
 13 38  1  0
 13 39  1  0
 15 40  1  0
 18 41  1  0
 20 42  1  0
 21 43  1  0
 22 44  1  0
 24 45  1  0
 25 46  1  0
 27 47  1  0
 28 48  1  0
 29 49  1  0
 30 50  1  0
 31 51  1  0
M  END
$$$$
