@<TRIPOS>MOLECULE
*****
 50 52 0 0 0
SMALL
GASTEIGER

@<TRIPOS>ATOM
      1 C           9.5087    1.3080   -2.1485 C.1     1  UNL1       -0.1158
      2 C           8.3808    1.7574   -2.7715 C.1     1  UNL1       -0.0648
      3 C           7.2142    2.2026   -3.4205 C.3     1  UNL1        0.1497
      4 O           6.3188    2.6876   -2.4326 O.3     1  UNL1       -0.4780
      5 C           5.4304    1.9281   -1.8505 C.ar    1  UNL1        0.1399
      6 C           5.0523    0.6286   -2.1238 C.ar    1  UNL1       -0.0162
      7 C           4.0877    0.0269   -1.4095 C.ar    1  UNL1       -0.0277
      8 C           3.3454    0.5460   -0.3146 C.ar    1  UNL1        0.1259
      9 C           2.2884   -0.1994    0.2244 C.2     1  UNL1        0.2666
     10 O           2.3260   -1.5133    0.1463 O.2     1  UNL1       -0.2682
     11 N           1.0694    0.3167    0.8675 N.am    1  UNL1       -0.2802
     12 C           0.1039   -0.7501    1.1936 C.ar    1  UNL1        0.0369
     13 C           0.2543   -1.8943    1.7138 C.ar    1  UNL1       -0.0023
     14 C          -0.6289   -2.9048    1.9601 C.ar    1  UNL1        0.1605
     15 F          -0.3938   -4.0189    2.5518 F       1  UNL1       -0.2024
     16 C          -1.9986   -2.5798    1.5016 C.ar    1  UNL1        0.1640
     17 F          -2.9015   -3.4599    1.7915 F       1  UNL1       -0.2021
     18 C          -2.2142   -1.3379    0.8939 C.ar    1  UNL1        0.0224
     19 C          -3.5731   -1.2041    0.2364 C.3     1  UNL1        0.1259
     20 C          -3.6472   -2.3056   -0.7865 C.3     1  UNL1        0.1196
     21 F          -4.8542   -2.4472   -1.4000 F       1  UNL1       -0.2462
     22 C          -3.7718    0.0730   -0.4413 C.3     1  UNL1        0.0251
     23 C          -4.3639    1.1424    0.4405 C.3     1  UNL1        0.1998
     24 C          -5.8016    1.4277    0.1047 C.3     1  UNL1        0.4266
     25 F          -6.4841    0.1859    0.2884 F       1  UNL1       -0.1669
     26 F          -6.3681    2.3745    0.9818 F       1  UNL1       -0.1669
     27 F          -5.9894    1.7906   -1.1995 F       1  UNL1       -0.1669
     28 O          -4.2591    0.7289    1.8066 O.2     1  UNL1       -0.4534
     29 C          -4.9266   -0.5824    2.1419 C.2     1  UNL1        0.2766
     30 N          -5.7523   -0.4639    3.2580 N.pl3   1  UNL1       -0.3134
     31 N          -4.5457   -1.4253    1.3267 N.2     1  UNL1       -0.2228
     32 C          -1.2187   -0.4029    0.7315 C.ar    1  UNL1       -0.0320
     33 N           3.7408    1.8475   -0.0643 N.ar    1  UNL1       -0.2467
     34 C           4.6499    2.4468   -0.7277 C.ar    1  UNL1        0.0701
     35 H          10.3878    0.9425   -1.6558 H       1  UNL1        0.1229
     36 H           7.2881    2.8967   -4.2628 H       1  UNL1        0.0837
     37 H           6.7206    1.2846   -3.9109 H       1  UNL1        0.0837
     38 H           5.5699    0.0986   -2.9578 H       1  UNL1        0.0655
     39 H           3.5791   -0.9258   -1.8409 H       1  UNL1        0.0641
     40 H           0.9098    1.2838    0.9853 H       1  UNL1        0.1552
     41 H           1.3538   -2.1654    2.0520 H       1  UNL1        0.0666
     42 H          -2.8787   -2.0234   -1.6118 H       1  UNL1        0.0643
     43 H          -3.2535   -3.2322   -0.3597 H       1  UNL1        0.0643
     44 H          -4.5020   -0.0589   -1.2740 H       1  UNL1        0.0331
     45 H          -2.8930    0.5588   -0.9577 H       1  UNL1        0.0331
     46 H          -3.8133    2.1478    0.4686 H       1  UNL1        0.0826
     47 H          -5.5655   -0.9757    4.1174 H       1  UNL1        0.1466
     48 H          -6.6112    0.2084    3.2025 H       1  UNL1        0.1466
     49 H          -1.4117    0.5362    0.2949 H       1  UNL1        0.0640
     50 H           5.0417    3.4949   -0.5126 H       1  UNL1        0.0867
@<TRIPOS>BOND
     1     1     2    3
     2     2     3    1
     3     3     4    1
     4     4     5    1
     5     5     6   ar
     6     6     7   ar
     7     7     8   ar
     8     8     9    1
     9     9    10    2
    10     9    11   am
    11    11    12    1
    12    12    13   ar
    13    13    14   ar
    14    14    15    1
    15    14    16   ar
    16    16    17    1
    17    16    18   ar
    18    18    19    1
    19    19    20    1
    20    20    21    1
    21    19    22    1
    22    22    23    1
    23    23    24    1
    24    24    25    1
    25    24    26    1
    26    24    27    1
    27    23    28    1
    28    28    29    1
    29    29    30    1
    30    29    31    2
    31    18    32   ar
    32     8    33   ar
    33    33    34   ar
    34    34     5   ar
    35    32    12   ar
    36    31    19    1
    37     1    35    1
    38     3    36    1
    39     3    37    1
    40     6    38    1
    41     7    39    1
    42    11    40    1
    43    13    41    1
    44    20    42    1
    45    20    43    1
    46    22    44    1
    47    22    45    1
    48    23    46    1
    49    30    47    1
    50    30    48    1
    51    32    49    1
    52    34    50    1
