
     RDKit          3D

 50 52  0  0  0  0  0  0  0  0999 V2000
    9.5087    1.3080   -2.1485 C   0  0  0  0  0  0  0  0  0  0  0  0
    8.3808    1.7574   -2.7715 C   0  0  0  0  0  0  0  0  0  0  0  0
    7.2142    2.2026   -3.4205 C   0  0  0  0  0  0  0  0  0  0  0  0
    6.3188    2.6876   -2.4326 O   0  0  0  0  0  0  0  0  0  0  0  0
    5.4304    1.9281   -1.8505 C   0  0  0  0  0  0  0  0  0  0  0  0
    5.0523    0.6286   -2.1238 C   0  0  0  0  0  0  0  0  0  0  0  0
    4.0877    0.0269   -1.4095 C   0  0  0  0  0  0  0  0  0  0  0  0
    3.3454    0.5460   -0.3146 C   0  0  0  0  0  0  0  0  0  0  0  0
    2.2884   -0.1994    0.2244 C   0  0  0  0  0  0  0  0  0  0  0  0
    2.3260   -1.5133    0.1463 O   0  0  0  0  0  0  0  0  0  0  0  0
    1.0694    0.3167    0.8675 N   0  0  0  0  0  0  0  0  0  0  0  0
    0.1039   -0.7501    1.1936 C   0  0  0  0  0  0  0  0  0  0  0  0
    0.2543   -1.8943    1.7138 C   0  0  0  0  0  0  0  0  0  0  0  0
   -0.6289   -2.9048    1.9601 C   0  0  0  0  0  0  0  0  0  0  0  0
   -0.3938   -4.0189    2.5518 F   0  0  0  0  0  0  0  0  0  0  0  0
   -1.9986   -2.5798    1.5016 C   0  0  0  0  0  0  0  0  0  0  0  0
   -2.9015   -3.4599    1.7915 F   0  0  0  0  0  0  0  0  0  0  0  0
   -2.2142   -1.3379    0.8939 C   0  0  0  0  0  0  0  0  0  0  0  0
   -3.5731   -1.2041    0.2364 C   0  0  2  0  0  0  0  0  0  0  0  0
   -3.6472   -2.3056   -0.7865 C   0  0  0  0  0  0  0  0  0  0  0  0
   -4.8542   -2.4472   -1.4000 F   0  0  0  0  0  0  0  0  0  0  0  0
   -3.7718    0.0730   -0.4413 C   0  0  0  0  0  0  0  0  0  0  0  0
   -4.3639    1.1424    0.4405 C   0  0  1  0  0  0  0  0  0  0  0  0
   -5.8016    1.4277    0.1047 C   0  0  0  0  0  0  0  0  0  0  0  0
   -6.4841    0.1859    0.2884 F   0  0  0  0  0  0  0  0  0  0  0  0
   -6.3681    2.3745    0.9818 F   0  0  0  0  0  0  0  0  0  0  0  0
   -5.9894    1.7906   -1.1995 F   0  0  0  0  0  0  0  0  0  0  0  0
   -4.2591    0.7289    1.8066 O   0  0  0  0  0  0  0  0  0  0  0  0
   -4.9266   -0.5824    2.1419 C   0  0  0  0  0  0  0  0  0  0  0  0
   -5.7523   -0.4639    3.2580 N   0  0  0  0  0  0  0  0  0  0  0  0
   -4.5457   -1.4253    1.3267 N   0  0  0  0  0  0  0  0  0  0  0  0
   -1.2187   -0.4029    0.7315 C   0  0  0  0  0  0  0  0  0  0  0  0
    3.7408    1.8475   -0.0643 N   0  0  0  0  0  0  0  0  0  0  0  0
    4.6499    2.4468   -0.7277 C   0  0  0  0  0  0  0  0  0  0  0  0
   10.3878    0.9425   -1.6558 H   0  0  0  0  0  0  0  0  0  0  0  0
    7.2881    2.8967   -4.2628 H   0  0  0  0  0  0  0  0  0  0  0  0
    6.7206    1.2846   -3.9109 H   0  0  0  0  0  0  0  0  0  0  0  0
    5.5699    0.0986   -2.9578 H   0  0  0  0  0  0  0  0  0  0  0  0
    3.5791   -0.9258   -1.8409 H   0  0  0  0  0  0  0  0  0  0  0  0
    0.9098    1.2838    0.9853 H   0  0  0  0  0  0  0  0  0  0  0  0
    1.3538   -2.1654    2.0520 H   0  0  0  0  0  0  0  0  0  0  0  0
   -2.8787   -2.0234   -1.6118 H   0  0  0  0  0  0  0  0  0  0  0  0
   -3.2535   -3.2322   -0.3597 H   0  0  0  0  0  0  0  0  0  0  0  0
   -4.5020   -0.0589   -1.2740 H   0  0  0  0  0  0  0  0  0  0  0  0
   -2.8930    0.5588   -0.9577 H   0  0  0  0  0  0  0  0  0  0  0  0
   -3.8133    2.1478    0.4686 H   0  0  0  0  0  0  0  0  0  0  0  0
   -5.5655   -0.9757    4.1174 H   0  0  0  0  0  0  0  0  0  0  0  0
   -6.6112    0.2084    3.2025 H   0  0  0  0  0  0  0  0  0  0  0  0
   -1.4117    0.5362    0.2949 H   0  0  0  0  0  0  0  0  0  0  0  0
    5.0417    3.4949   -0.5126 H   0  0  0  0  0  0  0  0  0  0  0  0
  1  2  3  0
  2  3  1  0
  3  4  1  0
  4  5  1  0
  5  6  2  0
  6  7  1  0
  7  8  2  0
  8  9  1  0
  9 10  2  0
  9 11  1  0
 11 12  1  0
 12 13  2  0
 13 14  1  0
 14 15  1  0
 14 16  2  0
 16 17  1  0
 16 18  1  0
 18 19  1  0
 19 20  1  6
 20 21  1  0
 19 22  1  0
 22 23  1  0
 23 24  1  0
 24 25  1  0
 24 26  1  0
 24 27  1  0
 23 28  1  0
 28 29  1  0
 29 30  1  0
 29 31  2  0
 18 32  2  0
  8 33  1  0
 33 34  2  0
 34  5  1  0
 32 12  1  0
 31 19  1  0
  1 35  1  0
  3 36  1  0
  3 37  1  0
  6 38  1  0
  7 39  1  0
 11 40  1  0
 13 41  1  0
 20 42  1  0
 20 43  1  0
 22 44  1  0
 22 45  1  0
 23 46  1  1
 30 47  1  0
 30 48  1  0
 32 49  1  0
 34 50  1  0
M  END
$$$$
