@<TRIPOS>MOLECULE
*****
 53 57 0 0 0
SMALL
GASTEIGER

@<TRIPOS>ATOM
      1 O           4.5618    1.3562   -2.0289 O.2     1  UNL1       -0.2751
      2 C           4.5857    1.9248   -0.9122 C.2     1  UNL1        0.2225
      3 N           4.1880    1.2254    0.2538 N.am    1  UNL1       -0.2530
      4 C           3.7488   -0.1274    0.2328 C.ar    1  UNL1        0.2416
      5 N           4.5797   -1.1764    0.3757 N.ar    1  UNL1       -0.1938
      6 C           3.8322   -2.3113    0.3065 C.ar    1  UNL1        0.1583
      7 C           4.1542   -3.6459    0.3883 C.ar    1  UNL1       -0.0173
      8 C           3.1747   -4.5833    0.2819 C.ar    1  UNL1       -0.0562
      9 C           1.8801   -4.2023    0.0951 C.ar    1  UNL1       -0.0355
     10 C           1.5625   -2.8611    0.0136 C.ar    1  UNL1        0.0749
     11 C           0.1621   -2.4427   -0.1888 C.ar    1  UNL1        0.0005
     12 C          -0.1805   -1.4658   -1.0997 C.ar    1  UNL1       -0.0523
     13 C          -1.5117   -1.0753   -1.2850 C.ar    1  UNL1       -0.0567
     14 C          -2.5044   -1.6654   -0.5551 C.ar    1  UNL1       -0.0333
     15 C          -3.9110   -1.2658   -0.7360 C.3     1  UNL1        0.0241
     16 N          -4.2159   -0.2131    0.1637 N.3     1  UNL1       -0.2951
     17 C          -5.5162    0.3065    0.1406 C.3     1  UNL1        0.0187
     18 C          -5.6550    1.6812   -0.4647 C.3     1  UNL1        0.0785
     19 S          -4.7450    2.8064    0.6019 S.O2    1  UNL1       -0.0286
     20 O          -5.6362    3.4431    1.6071 O.2     1  UNL1       -0.1743
     21 O          -4.0713    3.7978   -0.3016 O.2     1  UNL1       -0.1743
     22 C          -3.4859    1.7885    1.3833 C.3     1  UNL1        0.0785
     23 C          -3.1524    0.6992    0.4218 C.3     1  UNL1        0.0187
     24 C          -2.1877   -2.6352    0.3527 C.ar    1  UNL1       -0.0567
     25 C          -0.8600   -3.0212    0.5341 C.ar    1  UNL1       -0.0523
     26 N           2.5482   -1.9654    0.1220 N.ar    1  UNL1       -0.2108
     27 N           2.5273   -0.6433    0.0815 N.ar    1  UNL1       -0.1281
     28 C           5.0334    3.3327   -0.8256 C.3     1  UNL1        0.0360
     29 C           5.8255    3.7207    0.3680 C.3     1  UNL1       -0.0412
     30 C           4.4554    4.2418    0.2128 C.3     1  UNL1       -0.0412
     31 H           4.2293    1.7568    1.1666 H       1  UNL1        0.1578
     32 H           5.1842   -3.9519    0.5371 H       1  UNL1        0.0655
     33 H           3.3730   -5.6609    0.3397 H       1  UNL1        0.0619
     34 H           1.0414   -4.8965    0.0009 H       1  UNL1        0.0639
     35 H           0.6278   -1.0142   -1.6656 H       1  UNL1        0.0624
     36 H          -1.6914   -0.3078   -2.0146 H       1  UNL1        0.0621
     37 H          -4.5451   -2.1487   -0.4421 H       1  UNL1        0.0476
     38 H          -4.1388   -1.0129   -1.8021 H       1  UNL1        0.0476
     39 H          -6.1787   -0.3785   -0.4404 H       1  UNL1        0.0442
     40 H          -5.9233    0.3691    1.1770 H       1  UNL1        0.0442
     41 H          -5.3074    1.7365   -1.5025 H       1  UNL1        0.0512
     42 H          -6.7233    1.9712   -0.3649 H       1  UNL1        0.0512
     43 H          -3.8999    1.3536    2.3222 H       1  UNL1        0.0512
     44 H          -2.5632    2.3758    1.5754 H       1  UNL1        0.0512
     45 H          -2.2595    0.0950    0.7487 H       1  UNL1        0.0442
     46 H          -2.8577    1.1799   -0.5397 H       1  UNL1        0.0442
     47 H          -2.9673   -3.0979    0.9251 H       1  UNL1        0.0621
     48 H          -0.6011   -3.7912    1.2537 H       1  UNL1        0.0624
     49 H           5.3321    3.8284   -1.7679 H       1  UNL1        0.0394
     50 H           6.0868    2.9150    1.0659 H       1  UNL1        0.0273
     51 H           6.6442    4.4868    0.2729 H       1  UNL1        0.0273
     52 H           3.6554    3.8486    0.8904 H       1  UNL1        0.0273
     53 H           4.2959    5.3206   -0.0127 H       1  UNL1        0.0273
@<TRIPOS>BOND
     1     1     2    2
     2     2     3   am
     3     3     4    1
     4     4     5   ar
     5     5     6   ar
     6     6     7   ar
     7     7     8   ar
     8     8     9   ar
     9     9    10   ar
    10    10    11    1
    11    11    12   ar
    12    12    13   ar
    13    13    14   ar
    14    14    15    1
    15    15    16    1
    16    16    17    1
    17    17    18    1
    18    18    19    1
    19    19    20    2
    20    19    21    2
    21    19    22    1
    22    22    23    1
    23    14    24   ar
    24    24    25   ar
    25    10    26   ar
    26    26    27   ar
    27     2    28    1
    28    28    29    1
    29    29    30    1
    30    27     4   ar
    31    30    28    1
    32    26     6   ar
    33    25    11   ar
    34    23    16    1
    35     3    31    1
    36     7    32    1
    37     8    33    1
    38     9    34    1
    39    12    35    1
    40    13    36    1
    41    15    37    1
    42    15    38    1
    43    17    39    1
    44    17    40    1
    45    18    41    1
    46    18    42    1
    47    22    43    1
    48    22    44    1
    49    23    45    1
    50    23    46    1
    51    24    47    1
    52    25    48    1
    53    28    49    1
    54    29    50    1
    55    29    51    1
    56    30    52    1
    57    30    53    1
