
     RDKit          3D

 45 46  0  0  0  0  0  0  0  0999 V2000
   -0.2941    3.0779    2.3589 C   0  0  0  0  0  0  0  0  0  0  0  0
   -1.1794    2.1059    1.8514 O   0  0  0  0  0  0  0  0  0  0  0  0
   -0.7754    1.3054    0.7873 C   0  0  0  0  0  0  0  0  0  0  0  0
    0.4783    1.4278    0.1994 C   0  0  0  0  0  0  0  0  0  0  0  0
    0.8631    0.6264   -0.8550 C   0  0  0  0  0  0  0  0  0  0  0  0
    2.1666    0.7443   -1.4938 C   0  0  0  0  0  0  0  0  0  0  0  0
    3.2878    0.0729   -0.8056 C   0  0  0  0  0  0  0  0  0  0  0  0
    4.1797    0.8442   -0.0646 C   0  0  0  0  0  0  0  0  0  0  0  0
    5.2103    0.2685    0.5806 N   0  0  0  0  0  0  0  0  0  0  0  0
    5.4344   -1.0570    0.5480 C   0  0  0  0  0  0  0  0  0  0  0  0
    6.5468   -1.6168    1.2529 N   0  0  0  0  0  0  0  0  0  0  0  0
    4.5859   -1.8158   -0.1607 N   0  0  0  0  0  0  0  0  0  0  0  0
    3.5217   -1.2801   -0.8354 C   0  0  0  0  0  0  0  0  0  0  0  0
    2.6405   -2.0873   -1.5798 N   0  0  0  0  0  0  0  0  0  0  0  0
   -0.0573   -0.2934   -1.2883 C   0  0  0  0  0  0  0  0  0  0  0  0
   -1.3116   -0.4261   -0.7106 C   0  0  0  0  0  0  0  0  0  0  0  0
   -2.2248   -1.3738   -1.1769 O   0  0  0  0  0  0  0  0  0  0  0  0
   -1.8244   -2.2036   -2.2702 C   0  0  0  0  0  0  0  0  0  0  0  0
   -1.6917    0.3754    0.3414 C   0  0  0  0  0  0  0  0  0  0  0  0
   -2.9469    0.2559    0.9334 O   0  0  0  0  0  0  0  0  0  0  0  0
   -4.0701    0.9901    0.4955 C   0  0  0  0  0  0  0  0  0  0  0  0
   -5.2441    0.5984    1.3714 C   0  0  0  0  0  0  0  0  0  0  0  0
   -5.4307   -0.9129    1.1747 C   0  0  0  0  0  0  0  0  0  0  0  0
   -3.9347   -1.7571    1.6755 Cl  0  0  0  0  0  0  0  0  0  0  0  0
   -0.6995    3.4363    3.3301 H   0  0  0  0  0  0  0  0  0  0  0  0
   -0.1349    3.8908    1.6301 H   0  0  0  0  0  0  0  0  0  0  0  0
    0.7046    2.5821    2.5115 H   0  0  0  0  0  0  0  0  0  0  0  0
    1.1769    2.1676    0.5709 H   0  0  0  0  0  0  0  0  0  0  0  0
    2.1729    0.3390   -2.5498 H   0  0  0  0  0  0  0  0  0  0  0  0
    2.4513    1.8281   -1.6502 H   0  0  0  0  0  0  0  0  0  0  0  0
    4.0038    1.9227   -0.0333 H   0  0  0  0  0  0  0  0  0  0  0  0
    6.9753   -1.0693    2.0450 H   0  0  0  0  0  0  0  0  0  0  0  0
    6.9071   -2.5561    0.9647 H   0  0  0  0  0  0  0  0  0  0  0  0
    2.8211   -2.2320   -2.5861 H   0  0  0  0  0  0  0  0  0  0  0  0
    1.8294   -2.5213   -1.1115 H   0  0  0  0  0  0  0  0  0  0  0  0
    0.1930   -0.9516   -2.1284 H   0  0  0  0  0  0  0  0  0  0  0  0
   -1.6178   -1.4951   -3.1243 H   0  0  0  0  0  0  0  0  0  0  0  0
   -0.8921   -2.7414   -2.0335 H   0  0  0  0  0  0  0  0  0  0  0  0
   -2.6606   -2.8686   -2.5601 H   0  0  0  0  0  0  0  0  0  0  0  0
   -3.8229    2.0637    0.6176 H   0  0  0  0  0  0  0  0  0  0  0  0
   -4.3489    0.8095   -0.5418 H   0  0  0  0  0  0  0  0  0  0  0  0
   -6.1563    1.1186    1.0305 H   0  0  0  0  0  0  0  0  0  0  0  0
   -5.0274    0.8382    2.4148 H   0  0  0  0  0  0  0  0  0  0  0  0
   -5.5593   -1.1353    0.0963 H   0  0  0  0  0  0  0  0  0  0  0  0
   -6.2459   -1.2949    1.8056 H   0  0  0  0  0  0  0  0  0  0  0  0
  1  2  1  0
  2  3  1  0
  3  4  2  0
  4  5  1  0
  5  6  1  0
  6  7  1  0
  7  8  2  0
  8  9  1  0
  9 10  2  0
 10 11  1  0
 10 12  1  0
 12 13  2  0
 13 14  1  0
  5 15  2  0
 15 16  1  0
 16 17  1  0
 17 18  1  0
 16 19  2  0
 19 20  1  0
 20 21  1  0
 21 22  1  0
 22 23  1  0
 23 24  1  0
 19  3  1  0
 13  7  1  0
  1 25  1  0
  1 26  1  0
  1 27  1  0
  4 28  1  0
  6 29  1  0
  6 30  1  0
  8 31  1  0
 11 32  1  0
 11 33  1  0
 14 34  1  0
 14 35  1  0
 15 36  1  0
 18 37  1  0
 18 38  1  0
 18 39  1  0
 21 40  1  0
 21 41  1  0
 22 42  1  0
 22 43  1  0
 23 44  1  0
 23 45  1  0
M  END
$$$$
