@<TRIPOS>MOLECULE
*****
 45 46 0 0 0
SMALL
GASTEIGER

@<TRIPOS>ATOM
      1 C          -0.2941    3.0779    2.3589 C.3     1  UNL1        0.0790
      2 O          -1.1794    2.1059    1.8514 O.3     1  UNL1       -0.4913
      3 C          -0.7754    1.3054    0.7873 C.ar    1  UNL1        0.1654
      4 C           0.4783    1.4278    0.1994 C.ar    1  UNL1       -0.0126
      5 C           0.8631    0.6264   -0.8550 C.ar    1  UNL1       -0.0358
      6 C           2.1666    0.7443   -1.4938 C.3     1  UNL1        0.0025
      7 C           3.2878    0.0729   -0.8056 C.ar    1  UNL1        0.0146
      8 C           4.1797    0.8442   -0.0646 C.ar    1  UNL1        0.0379
      9 N           5.2103    0.2685    0.5806 N.ar    1  UNL1       -0.2227
     10 C           5.4344   -1.0570    0.5480 C.ar    1  UNL1        0.2142
     11 N           6.5468   -1.6168    1.2529 N.pl3   1  UNL1       -0.3274
     12 N           4.5859   -1.8158   -0.1607 N.ar    1  UNL1       -0.1999
     13 C           3.5217   -1.2801   -0.8354 C.ar    1  UNL1        0.1247
     14 N           2.6405   -2.0873   -1.5798 N.pl3   1  UNL1       -0.3428
     15 C          -0.0573   -0.2934   -1.2883 C.ar    1  UNL1       -0.0126
     16 C          -1.3116   -0.4261   -0.7106 C.ar    1  UNL1        0.1654
     17 O          -2.2248   -1.3738   -1.1769 O.3     1  UNL1       -0.4913
     18 C          -1.8244   -2.2036   -2.2702 C.3     1  UNL1        0.0790
     19 C          -1.6917    0.3754    0.3414 C.ar    1  UNL1        0.2038
     20 O          -2.9469    0.2559    0.9334 O.3     1  UNL1       -0.4852
     21 C          -4.0701    0.9901    0.4955 C.3     1  UNL1        0.0910
     22 C          -5.2441    0.5984    1.3714 C.3     1  UNL1       -0.0052
     23 C          -5.4307   -0.9129    1.1747 C.3     1  UNL1        0.0257
     24 CL         -3.9347   -1.7571    1.6755 Cl      1  UNL1       -0.1253
     25 H          -0.6995    3.4363    3.3301 H       1  UNL1        0.0660
     26 H          -0.1349    3.8908    1.6301 H       1  UNL1        0.0660
     27 H           0.7046    2.5821    2.5115 H       1  UNL1        0.0660
     28 H           1.1769    2.1676    0.5709 H       1  UNL1        0.0658
     29 H           2.1729    0.3390   -2.5498 H       1  UNL1        0.0363
     30 H           2.4513    1.8281   -1.6502 H       1  UNL1        0.0363
     31 H           4.0038    1.9227   -0.0333 H       1  UNL1        0.0834
     32 H           6.9753   -1.0693    2.0450 H       1  UNL1        0.1452
     33 H           6.9071   -2.5561    0.9647 H       1  UNL1        0.1452
     34 H           2.8211   -2.2320   -2.5861 H       1  UNL1        0.1437
     35 H           1.8294   -2.5213   -1.1115 H       1  UNL1        0.1437
     36 H           0.1930   -0.9516   -2.1284 H       1  UNL1        0.0658
     37 H          -1.6178   -1.4951   -3.1243 H       1  UNL1        0.0660
     38 H          -0.8921   -2.7414   -2.0335 H       1  UNL1        0.0660
     39 H          -2.6606   -2.8686   -2.5601 H       1  UNL1        0.0660
     40 H          -3.8229    2.0637    0.6176 H       1  UNL1        0.0697
     41 H          -4.3489    0.8095   -0.5418 H       1  UNL1        0.0697
     42 H          -6.1563    1.1186    1.0305 H       1  UNL1        0.0309
     43 H          -5.0274    0.8382    2.4148 H       1  UNL1        0.0309
     44 H          -5.5593   -1.1353    0.0963 H       1  UNL1        0.0431
     45 H          -6.2459   -1.2949    1.8056 H       1  UNL1        0.0431
@<TRIPOS>BOND
     1     1     2    1
     2     2     3    1
     3     3     4   ar
     4     4     5   ar
     5     5     6    1
     6     6     7    1
     7     7     8   ar
     8     8     9   ar
     9     9    10   ar
    10    10    11    1
    11    10    12   ar
    12    12    13   ar
    13    13    14    1
    14     5    15   ar
    15    15    16   ar
    16    16    17    1
    17    17    18    1
    18    16    19   ar
    19    19    20    1
    20    20    21    1
    21    21    22    1
    22    22    23    1
    23    23    24    1
    24    19     3   ar
    25    13     7   ar
    26     1    25    1
    27     1    26    1
    28     1    27    1
    29     4    28    1
    30     6    29    1
    31     6    30    1
    32     8    31    1
    33    11    32    1
    34    11    33    1
    35    14    34    1
    36    14    35    1
    37    15    36    1
    38    18    37    1
    39    18    38    1
    40    18    39    1
    41    21    40    1
    42    21    41    1
    43    22    42    1
    44    22    43    1
    45    23    44    1
    46    23    45    1
