
     RDKit          3D

 52 55  0  0  0  0  0  0  0  0999 V2000
    8.0137   -1.6625   -2.0896 C   0  0  0  0  0  0  0  0  0  0  0  0
    6.7470   -2.1870   -2.6414 C   0  0  0  0  0  0  0  0  0  0  0  0
    6.7620   -2.7775   -3.7482 O   0  0  0  0  0  0  0  0  0  0  0  0
    5.5038   -2.0526   -1.9717 N   0  0  0  0  0  0  0  0  0  0  0  0
    5.4767   -1.3820   -0.7115 C   0  0  0  0  0  0  0  0  0  0  0  0
    4.1924   -0.7213   -0.3493 C   0  0  0  0  0  0  0  0  0  0  0  0
    2.9727   -1.2543   -1.0229 C   0  0  0  0  0  0  0  0  0  0  0  0
    1.9079   -0.3911   -0.8008 O   0  0  0  0  0  0  0  0  0  0  0  0
    0.6757   -0.6299   -0.3059 C   0  0  0  0  0  0  0  0  0  0  0  0
    0.2642   -1.8816    0.0713 C   0  0  0  0  0  0  0  0  0  0  0  0
   -0.9945   -2.0930    0.5721 N   0  0  0  0  0  0  0  0  0  0  0  0
   -1.8814   -1.1002    0.7184 C   0  0  0  0  0  0  0  0  0  0  0  0
   -1.5066    0.1731    0.3508 C   0  0  0  0  0  0  0  0  0  0  0  0
   -2.4855    1.2991    0.5027 C   0  0  0  0  0  0  0  0  0  0  0  0
   -2.5852    1.7297    1.9494 C   0  0  0  0  0  0  0  0  0  0  0  0
   -3.8835    1.5569    2.4937 O   0  0  0  0  0  0  0  0  0  0  0  0
   -5.0215    1.7689    1.7472 C   0  0  0  0  0  0  0  0  0  0  0  0
   -4.9389    1.4062    0.3974 C   0  0  0  0  0  0  0  0  0  0  0  0
   -6.0390    1.5916   -0.4030 C   0  0  0  0  0  0  0  0  0  0  0  0
   -7.2309    2.1272    0.0818 C   0  0  0  0  0  0  0  0  0  0  0  0
   -7.2959    2.4827    1.4263 C   0  0  0  0  0  0  0  0  0  0  0  0
   -6.2036    2.3020    2.2344 C   0  0  0  0  0  0  0  0  0  0  0  0
   -6.2665    2.6724    3.6323 C   0  0  0  0  0  0  0  0  0  0  0  0
   -5.1472    2.4952    4.4830 N   0  0  0  0  0  0  0  0  0  0  0  0
   -7.3167    3.1554    4.1023 O   0  0  0  0  0  0  0  0  0  0  0  0
   -3.7372    0.8829   -0.0233 O   0  0  0  0  0  0  0  0  0  0  0  0
   -0.2373    0.4045   -0.1571 C   0  0  0  0  0  0  0  0  0  0  0  0
    3.2683   -1.4475   -2.5020 C   0  0  0  0  0  0  0  0  0  0  0  0
    4.2752   -2.5899   -2.5589 C   0  0  0  0  0  0  0  0  0  0  0  0
    8.0055   -1.6230   -0.9784 H   0  0  0  0  0  0  0  0  0  0  0  0
    8.2658   -0.6535   -2.5333 H   0  0  0  0  0  0  0  0  0  0  0  0
    8.8298   -2.3995   -2.3451 H   0  0  0  0  0  0  0  0  0  0  0  0
    5.8591   -2.0465    0.1183 H   0  0  0  0  0  0  0  0  0  0  0  0
    6.2527   -0.5610   -0.7616 H   0  0  0  0  0  0  0  0  0  0  0  0
    4.0403   -0.8900    0.7576 H   0  0  0  0  0  0  0  0  0  0  0  0
    4.2290    0.3820   -0.4584 H   0  0  0  0  0  0  0  0  0  0  0  0
    2.7103   -2.2623   -0.6483 H   0  0  0  0  0  0  0  0  0  0  0  0
    0.8884   -2.7463   -0.0005 H   0  0  0  0  0  0  0  0  0  0  0  0
   -2.8858   -1.2677    1.1188 H   0  0  0  0  0  0  0  0  0  0  0  0
   -2.1185    2.1182   -0.1450 H   0  0  0  0  0  0  0  0  0  0  0  0
   -1.8700    1.1941    2.5836 H   0  0  0  0  0  0  0  0  0  0  0  0
   -2.3755    2.8162    2.0061 H   0  0  0  0  0  0  0  0  0  0  0  0
   -5.9760    1.3069   -1.4653 H   0  0  0  0  0  0  0  0  0  0  0  0
   -8.0769    2.2674   -0.5428 H   0  0  0  0  0  0  0  0  0  0  0  0
   -8.2001    2.9065    1.8666 H   0  0  0  0  0  0  0  0  0  0  0  0
   -5.0166    1.5890    4.9567 H   0  0  0  0  0  0  0  0  0  0  0  0
   -4.4787    3.2719    4.6186 H   0  0  0  0  0  0  0  0  0  0  0  0
    0.0795    1.3992   -0.4530 H   0  0  0  0  0  0  0  0  0  0  0  0
    2.3785   -1.7666   -3.0644 H   0  0  0  0  0  0  0  0  0  0  0  0
    3.7599   -0.5596   -2.9316 H   0  0  0  0  0  0  0  0  0  0  0  0
    3.9506   -3.4001   -1.8491 H   0  0  0  0  0  0  0  0  0  0  0  0
    4.4606   -2.9525   -3.5737 H   0  0  0  0  0  0  0  0  0  0  0  0
  1  2  1  0
  2  3  2  0
  2  4  1  0
  4  5  1  0
  5  6  1  0
  6  7  1  0
  7  8  1  0
  8  9  1  0
  9 10  2  0
 10 11  1  0
 11 12  2  0
 12 13  1  0
 13 14  1  0
 14 15  1  0
 15 16  1  0
 16 17  1  0
 17 18  2  0
 18 19  1  0
 19 20  2  0
 20 21  1  0
 21 22  2  0
 22 23  1  0
 23 24  1  0
 23 25  2  0
 18 26  1  0
 13 27  2  0
  7 28  1  0
 28 29  1  0
 29  4  1  0
 27  9  1  0
 26 14  1  0
 22 17  1  0
  1 30  1  0
  1 31  1  0
  1 32  1  0
  5 33  1  0
  5 34  1  0
  6 35  1  0
  6 36  1  0
  7 37  1  0
 10 38  1  0
 12 39  1  0
 14 40  1  0
 15 41  1  0
 15 42  1  0
 19 43  1  0
 20 44  1  0
 21 45  1  0
 24 46  1  0
 24 47  1  0
 27 48  1  0
 28 49  1  0
 28 50  1  0
 29 51  1  0
 29 52  1  0
M  END
$$$$
