@<TRIPOS>MOLECULE
*****
 52 55 0 0 0
SMALL
GASTEIGER

@<TRIPOS>ATOM
      1 C           8.0137   -1.6625   -2.0896 C.3     1  UNL1        0.0124
      2 C           6.7470   -2.1870   -2.6414 C.2     1  UNL1        0.2125
      3 O           6.7620   -2.7775   -3.7482 O.2     1  UNL1       -0.2759
      4 N           5.5038   -2.0526   -1.9717 N.am    1  UNL1       -0.3015
      5 C           5.4767   -1.3820   -0.7115 C.3     1  UNL1        0.0180
      6 C           4.1924   -0.7213   -0.3493 C.3     1  UNL1        0.0001
      7 C           2.9727   -1.2543   -1.0229 C.3     1  UNL1        0.1031
      8 O           1.9079   -0.3911   -0.8008 O.3     1  UNL1       -0.4872
      9 C           0.6757   -0.6299   -0.3059 C.ar    1  UNL1        0.1393
     10 C           0.2642   -1.8816    0.0713 C.ar    1  UNL1        0.0692
     11 N          -0.9945   -2.0930    0.5721 N.ar    1  UNL1       -0.2592
     12 C          -1.8814   -1.1002    0.7184 C.ar    1  UNL1        0.0346
     13 C          -1.5066    0.1731    0.3508 C.ar    1  UNL1        0.0175
     14 C          -2.4855    1.2991    0.5027 C.3     1  UNL1        0.1606
     15 C          -2.5852    1.7297    1.9494 C.3     1  UNL1        0.1308
     16 O          -3.8835    1.5569    2.4937 O.3     1  UNL1       -0.4835
     17 C          -5.0215    1.7689    1.7472 C.ar    1  UNL1        0.1742
     18 C          -4.9389    1.4062    0.3974 C.ar    1  UNL1        0.1637
     19 C          -6.0390    1.5916   -0.4030 C.ar    1  UNL1       -0.0162
     20 C          -7.2309    2.1272    0.0818 C.ar    1  UNL1       -0.0574
     21 C          -7.2959    2.4827    1.4263 C.ar    1  UNL1       -0.0459
     22 C          -6.2036    2.3020    2.2344 C.ar    1  UNL1        0.0817
     23 C          -6.2665    2.6724    3.6323 C.2     1  UNL1        0.2452
     24 N          -5.1472    2.4952    4.4830 N.am    1  UNL1       -0.3252
     25 O          -7.3167    3.1554    4.1023 O.2     1  UNL1       -0.2703
     26 O          -3.7372    0.8829   -0.0233 O.3     1  UNL1       -0.4771
     27 C          -0.2373    0.4045   -0.1571 C.ar    1  UNL1       -0.0102
     28 C           3.2683   -1.4475   -2.5020 C.3     1  UNL1        0.0001
     29 C           4.2752   -2.5899   -2.5589 C.3     1  UNL1        0.0180
     30 H           8.0055   -1.6230   -0.9784 H       1  UNL1        0.0323
     31 H           8.2658   -0.6535   -2.5333 H       1  UNL1        0.0323
     32 H           8.8298   -2.3995   -2.3451 H       1  UNL1        0.0323
     33 H           5.8591   -2.0465    0.1183 H       1  UNL1        0.0466
     34 H           6.2527   -0.5610   -0.7616 H       1  UNL1        0.0466
     35 H           4.0403   -0.8900    0.7576 H       1  UNL1        0.0316
     36 H           4.2290    0.3820   -0.4584 H       1  UNL1        0.0316
     37 H           2.7103   -2.2623   -0.6483 H       1  UNL1        0.0734
     38 H           0.8884   -2.7463   -0.0005 H       1  UNL1        0.0867
     39 H          -2.8858   -1.2677    1.1188 H       1  UNL1        0.0833
     40 H          -2.1185    2.1182   -0.1450 H       1  UNL1        0.0820
     41 H          -1.8700    1.1941    2.5836 H       1  UNL1        0.0738
     42 H          -2.3755    2.8162    2.0061 H       1  UNL1        0.0738
     43 H          -5.9760    1.3069   -1.4653 H       1  UNL1        0.0655
     44 H          -8.0769    2.2674   -0.5428 H       1  UNL1        0.0619
     45 H          -8.2001    2.9065    1.8666 H       1  UNL1        0.0626
     46 H          -5.0166    1.5890    4.9567 H       1  UNL1        0.1453
     47 H          -4.4787    3.2719    4.6186 H       1  UNL1        0.1453
     48 H           0.0795    1.3992   -0.4530 H       1  UNL1        0.0659
     49 H           2.3785   -1.7666   -3.0644 H       1  UNL1        0.0316
     50 H           3.7599   -0.5596   -2.9316 H       1  UNL1        0.0316
     51 H           3.9506   -3.4001   -1.8491 H       1  UNL1        0.0466
     52 H           4.4606   -2.9525   -3.5737 H       1  UNL1        0.0466
@<TRIPOS>BOND
     1     1     2    1
     2     2     3    2
     3     2     4   am
     4     4     5    1
     5     5     6    1
     6     6     7    1
     7     7     8    1
     8     8     9    1
     9     9    10   ar
    10    10    11   ar
    11    11    12   ar
    12    12    13   ar
    13    13    14    1
    14    14    15    1
    15    15    16    1
    16    16    17    1
    17    17    18   ar
    18    18    19   ar
    19    19    20   ar
    20    20    21   ar
    21    21    22   ar
    22    22    23    1
    23    23    24   am
    24    23    25    2
    25    18    26    1
    26    13    27   ar
    27     7    28    1
    28    28    29    1
    29    29     4    1
    30    27     9   ar
    31    26    14    1
    32    22    17   ar
    33     1    30    1
    34     1    31    1
    35     1    32    1
    36     5    33    1
    37     5    34    1
    38     6    35    1
    39     6    36    1
    40     7    37    1
    41    10    38    1
    42    12    39    1
    43    14    40    1
    44    15    41    1
    45    15    42    1
    46    19    43    1
    47    20    44    1
    48    21    45    1
    49    24    46    1
    50    24    47    1
    51    27    48    1
    52    28    49    1
    53    28    50    1
    54    29    51    1
    55    29    52    1
