@<TRIPOS>MOLECULE
*****
 62 64 0 0 0
SMALL
GASTEIGER

@<TRIPOS>ATOM
      1 C           7.3640    0.0353    4.3198 C.3     1  UNL1        0.0790
      2 O           7.4829   -0.3187    2.9606 O.3     1  UNL1       -0.4915
      3 C           6.4097   -0.5902    2.1553 C.ar    1  UNL1        0.1615
      4 C           5.1242   -0.5389    2.6491 C.ar    1  UNL1       -0.0156
      5 C           4.0548   -0.8152    1.8255 C.ar    1  UNL1       -0.0459
      6 C           4.2425   -1.1490    0.4898 C.ar    1  UNL1        0.0404
      7 C           3.0529   -1.4445   -0.3264 C.2     1  UNL1        0.2445
      8 O           1.9194   -1.4993    0.2222 O.2     1  UNL1       -0.2702
      9 N           3.1112   -1.6752   -1.7193 N.am    1  UNL1       -0.3072
     10 C           1.9938   -1.9725   -2.5784 C.3     1  UNL1        0.0372
     11 C           1.1552   -0.7877   -2.8891 C.ar    1  UNL1       -0.0296
     12 C           1.4703    0.0761   -3.9328 C.ar    1  UNL1       -0.0570
     13 C           0.6747    1.1629   -4.2225 C.ar    1  UNL1       -0.0607
     14 C          -0.4450    1.3764   -3.4517 C.ar    1  UNL1       -0.0496
     15 C          -0.8021    0.5430   -2.3989 C.ar    1  UNL1        0.0370
     16 C          -2.0094    0.8412   -1.6399 C.2     1  UNL1        0.2441
     17 O          -2.7107    1.8207   -1.9814 O.2     1  UNL1       -0.2702
     18 N          -2.4631    0.0932   -0.5196 N.am    1  UNL1       -0.3113
     19 C          -3.6695    0.3911    0.2306 C.3     1  UNL1        0.0122
     20 C          -4.8762    0.3133   -0.6564 C.3     1  UNL1       -0.0334
     21 C          -6.1620    0.5943    0.0418 C.3     1  UNL1       -0.0270
     22 C          -6.2408    1.9749    0.6660 C.3     1  UNL1       -0.0479
     23 C          -7.5786    2.1008    1.4105 C.3     1  UNL1       -0.0401
     24 C          -7.5374    1.1403    2.5490 C.3     1  UNL1       -0.0041
     25 N          -6.6614    0.0271    2.3831 N.3     1  UNL1       -0.3157
     26 C          -6.5404   -0.4751    1.0454 C.3     1  UNL1       -0.0012
     27 C           0.0331   -0.5227   -2.1626 C.ar    1  UNL1       -0.0450
     28 C           5.5237   -1.1917    0.0283 C.ar    1  UNL1       -0.0042
     29 C           6.6234   -0.9173    0.8385 C.ar    1  UNL1        0.1622
     30 O           7.9269   -0.9624    0.3658 O.3     1  UNL1       -0.4914
     31 C           8.1038   -1.3047   -0.9995 C.3     1  UNL1        0.0790
     32 H           7.0990   -0.8522    4.8973 H       1  UNL1        0.0660
     33 H           6.5735    0.8154    4.4132 H       1  UNL1        0.0660
     34 H           8.3094    0.4476    4.7158 H       1  UNL1        0.0660
     35 H           4.9991   -0.2790    3.6872 H       1  UNL1        0.0655
     36 H           3.0389   -0.7792    2.2002 H       1  UNL1        0.0626
     37 H           4.0813   -1.6163   -2.1499 H       1  UNL1        0.1493
     38 H           2.4029   -2.3204   -3.5574 H       1  UNL1        0.0512
     39 H           1.3458   -2.7731   -2.1514 H       1  UNL1        0.0512
     40 H           2.3531   -0.1098   -4.5231 H       1  UNL1        0.0621
     41 H           0.9534    1.8149   -5.0474 H       1  UNL1        0.0618
     42 H          -1.0802    2.2250   -3.6654 H       1  UNL1        0.0625
     43 H          -1.8438   -0.7318   -0.2494 H       1  UNL1        0.1490
     44 H          -3.6006    1.3523    0.7808 H       1  UNL1        0.0462
     45 H          -3.7692   -0.3918    1.0095 H       1  UNL1        0.0462
     46 H          -4.8255    0.9680   -1.5411 H       1  UNL1        0.0283
     47 H          -4.9386   -0.7485   -1.0198 H       1  UNL1        0.0283
     48 H          -6.9648    0.5775   -0.7287 H       1  UNL1        0.0314
     49 H          -6.2386    2.7794   -0.0944 H       1  UNL1        0.0269
     50 H          -5.4633    2.1834    1.3941 H       1  UNL1        0.0269
     51 H          -7.6283    3.1368    1.7978 H       1  UNL1        0.0278
     52 H          -8.4245    1.9179    0.7130 H       1  UNL1        0.0278
     53 H          -7.2518    1.6775    3.4718 H       1  UNL1        0.0424
     54 H          -8.5983    0.7940    2.7262 H       1  UNL1        0.0424
     55 H          -5.7520    0.1225    2.8801 H       1  UNL1        0.1219
     56 H          -7.4859   -0.9867    0.7833 H       1  UNL1        0.0427
     57 H          -5.7387   -1.2279    1.0326 H       1  UNL1        0.0427
     58 H          -0.2400   -1.1767   -1.3589 H       1  UNL1        0.0628
     59 H           5.7154   -1.4438   -0.9875 H       1  UNL1        0.0663
     60 H           7.6127   -0.5412   -1.6718 H       1  UNL1        0.0660
     61 H           7.5980   -2.2686   -1.2432 H       1  UNL1        0.0660
     62 H           9.1915   -1.3834   -1.2165 H       1  UNL1        0.0660
@<TRIPOS>BOND
     1     1     2    1
     2     2     3    1
     3     3     4   ar
     4     4     5   ar
     5     5     6   ar
     6     6     7    1
     7     7     8    2
     8     7     9   am
     9     9    10    1
    10    10    11    1
    11    11    12   ar
    12    12    13   ar
    13    13    14   ar
    14    14    15   ar
    15    15    16    1
    16    16    17    2
    17    16    18   am
    18    18    19    1
    19    19    20    1
    20    20    21    1
    21    21    22    1
    22    22    23    1
    23    23    24    1
    24    24    25    1
    25    25    26    1
    26    15    27   ar
    27     6    28   ar
    28    28    29   ar
    29    29    30    1
    30    30    31    1
    31    29     3   ar
    32    27    11   ar
    33    26    21    1
    34     1    32    1
    35     1    33    1
    36     1    34    1
    37     4    35    1
    38     5    36    1
    39     9    37    1
    40    10    38    1
    41    10    39    1
    42    12    40    1
    43    13    41    1
    44    14    42    1
    45    18    43    1
    46    19    44    1
    47    19    45    1
    48    20    46    1
    49    20    47    1
    50    21    48    1
    51    22    49    1
    52    22    50    1
    53    23    51    1
    54    23    52    1
    55    24    53    1
    56    24    54    1
    57    25    55    1
    58    26    56    1
    59    26    57    1
    60    27    58    1
    61    28    59    1
    62    31    60    1
    63    31    61    1
    64    31    62    1
