
     RDKit          3D

 62 64  0  0  0  0  0  0  0  0999 V2000
    7.3640    0.0353    4.3198 C   0  0  0  0  0  0  0  0  0  0  0  0
    7.4829   -0.3187    2.9606 O   0  0  0  0  0  0  0  0  0  0  0  0
    6.4097   -0.5902    2.1553 C   0  0  0  0  0  0  0  0  0  0  0  0
    5.1242   -0.5389    2.6491 C   0  0  0  0  0  0  0  0  0  0  0  0
    4.0548   -0.8152    1.8255 C   0  0  0  0  0  0  0  0  0  0  0  0
    4.2425   -1.1490    0.4898 C   0  0  0  0  0  0  0  0  0  0  0  0
    3.0529   -1.4445   -0.3264 C   0  0  0  0  0  0  0  0  0  0  0  0
    1.9194   -1.4993    0.2222 O   0  0  0  0  0  0  0  0  0  0  0  0
    3.1112   -1.6752   -1.7193 N   0  0  0  0  0  0  0  0  0  0  0  0
    1.9938   -1.9725   -2.5784 C   0  0  0  0  0  0  0  0  0  0  0  0
    1.1552   -0.7877   -2.8891 C   0  0  0  0  0  0  0  0  0  0  0  0
    1.4703    0.0761   -3.9328 C   0  0  0  0  0  0  0  0  0  0  0  0
    0.6747    1.1629   -4.2225 C   0  0  0  0  0  0  0  0  0  0  0  0
   -0.4450    1.3764   -3.4517 C   0  0  0  0  0  0  0  0  0  0  0  0
   -0.8021    0.5430   -2.3989 C   0  0  0  0  0  0  0  0  0  0  0  0
   -2.0094    0.8412   -1.6399 C   0  0  0  0  0  0  0  0  0  0  0  0
   -2.7107    1.8207   -1.9814 O   0  0  0  0  0  0  0  0  0  0  0  0
   -2.4631    0.0932   -0.5196 N   0  0  0  0  0  0  0  0  0  0  0  0
   -3.6695    0.3911    0.2306 C   0  0  0  0  0  0  0  0  0  0  0  0
   -4.8762    0.3133   -0.6564 C   0  0  0  0  0  0  0  0  0  0  0  0
   -6.1620    0.5943    0.0418 C   0  0  0  0  0  0  0  0  0  0  0  0
   -6.2408    1.9749    0.6660 C   0  0  0  0  0  0  0  0  0  0  0  0
   -7.5786    2.1008    1.4105 C   0  0  0  0  0  0  0  0  0  0  0  0
   -7.5374    1.1403    2.5490 C   0  0  0  0  0  0  0  0  0  0  0  0
   -6.6614    0.0271    2.3831 N   0  0  0  0  0  0  0  0  0  0  0  0
   -6.5404   -0.4751    1.0454 C   0  0  0  0  0  0  0  0  0  0  0  0
    0.0331   -0.5227   -2.1626 C   0  0  0  0  0  0  0  0  0  0  0  0
    5.5237   -1.1917    0.0283 C   0  0  0  0  0  0  0  0  0  0  0  0
    6.6234   -0.9173    0.8385 C   0  0  0  0  0  0  0  0  0  0  0  0
    7.9269   -0.9624    0.3658 O   0  0  0  0  0  0  0  0  0  0  0  0
    8.1038   -1.3047   -0.9995 C   0  0  0  0  0  0  0  0  0  0  0  0
    7.0990   -0.8522    4.8973 H   0  0  0  0  0  0  0  0  0  0  0  0
    6.5735    0.8154    4.4132 H   0  0  0  0  0  0  0  0  0  0  0  0
    8.3094    0.4476    4.7158 H   0  0  0  0  0  0  0  0  0  0  0  0
    4.9991   -0.2790    3.6872 H   0  0  0  0  0  0  0  0  0  0  0  0
    3.0389   -0.7792    2.2002 H   0  0  0  0  0  0  0  0  0  0  0  0
    4.0813   -1.6163   -2.1499 H   0  0  0  0  0  0  0  0  0  0  0  0
    2.4029   -2.3204   -3.5574 H   0  0  0  0  0  0  0  0  0  0  0  0
    1.3458   -2.7731   -2.1514 H   0  0  0  0  0  0  0  0  0  0  0  0
    2.3531   -0.1098   -4.5231 H   0  0  0  0  0  0  0  0  0  0  0  0
    0.9534    1.8149   -5.0474 H   0  0  0  0  0  0  0  0  0  0  0  0
   -1.0802    2.2250   -3.6654 H   0  0  0  0  0  0  0  0  0  0  0  0
   -1.8438   -0.7318   -0.2494 H   0  0  0  0  0  0  0  0  0  0  0  0
   -3.6006    1.3523    0.7808 H   0  0  0  0  0  0  0  0  0  0  0  0
   -3.7692   -0.3918    1.0095 H   0  0  0  0  0  0  0  0  0  0  0  0
   -4.8255    0.9680   -1.5411 H   0  0  0  0  0  0  0  0  0  0  0  0
   -4.9386   -0.7485   -1.0198 H   0  0  0  0  0  0  0  0  0  0  0  0
   -6.9648    0.5775   -0.7287 H   0  0  0  0  0  0  0  0  0  0  0  0
   -6.2386    2.7794   -0.0944 H   0  0  0  0  0  0  0  0  0  0  0  0
   -5.4633    2.1834    1.3941 H   0  0  0  0  0  0  0  0  0  0  0  0
   -7.6283    3.1368    1.7978 H   0  0  0  0  0  0  0  0  0  0  0  0
   -8.4245    1.9179    0.7130 H   0  0  0  0  0  0  0  0  0  0  0  0
   -7.2518    1.6775    3.4718 H   0  0  0  0  0  0  0  0  0  0  0  0
   -8.5983    0.7940    2.7262 H   0  0  0  0  0  0  0  0  0  0  0  0
   -5.7520    0.1225    2.8801 H   0  0  0  0  0  0  0  0  0  0  0  0
   -7.4859   -0.9867    0.7833 H   0  0  0  0  0  0  0  0  0  0  0  0
   -5.7387   -1.2279    1.0326 H   0  0  0  0  0  0  0  0  0  0  0  0
   -0.2400   -1.1767   -1.3589 H   0  0  0  0  0  0  0  0  0  0  0  0
    5.7154   -1.4438   -0.9875 H   0  0  0  0  0  0  0  0  0  0  0  0
    7.6127   -0.5412   -1.6718 H   0  0  0  0  0  0  0  0  0  0  0  0
    7.5980   -2.2686   -1.2432 H   0  0  0  0  0  0  0  0  0  0  0  0
    9.1915   -1.3834   -1.2165 H   0  0  0  0  0  0  0  0  0  0  0  0
  1  2  1  0
  2  3  1  0
  3  4  2  0
  4  5  1  0
  5  6  2  0
  6  7  1  0
  7  8  2  0
  7  9  1  0
  9 10  1  0
 10 11  1  0
 11 12  2  0
 12 13  1  0
 13 14  2  0
 14 15  1  0
 15 16  1  0
 16 17  2  0
 16 18  1  0
 18 19  1  0
 19 20  1  0
 20 21  1  0
 21 22  1  0
 22 23  1  0
 23 24  1  0
 24 25  1  0
 25 26  1  0
 15 27  2  0
  6 28  1  0
 28 29  2  0
 29 30  1  0
 30 31  1  0
 29  3  1  0
 27 11  1  0
 26 21  1  0
  1 32  1  0
  1 33  1  0
  1 34  1  0
  4 35  1  0
  5 36  1  0
  9 37  1  0
 10 38  1  0
 10 39  1  0
 12 40  1  0
 13 41  1  0
 14 42  1  0
 18 43  1  0
 19 44  1  0
 19 45  1  0
 20 46  1  0
 20 47  1  0
 21 48  1  0
 22 49  1  0
 22 50  1  0
 23 51  1  0
 23 52  1  0
 24 53  1  0
 24 54  1  0
 25 55  1  0
 26 56  1  0
 26 57  1  0
 27 58  1  0
 28 59  1  0
 31 60  1  0
 31 61  1  0
 31 62  1  0
M  END
$$$$
