@<TRIPOS>MOLECULE
*****
 27 29 0 0 0
SMALL
GASTEIGER

@<TRIPOS>ATOM
      1 O          -2.8303    2.1267    1.6381 O.2     1  UNL1       -0.2701
      2 C          -2.7321    1.0838    0.9875 C.2     1  UNL1        0.2458
      3 N          -3.8737    0.2857    0.6489 N.am    1  UNL1       -0.3109
      4 C          -3.6480   -1.1648    0.4947 C.3     1  UNL1        0.0172
      5 C          -2.6062   -1.3147   -0.5693 C.3     1  UNL1        0.0038
      6 C          -1.3769   -0.5760   -0.2099 C.ar    1  UNL1        0.0301
      7 N          -0.0577   -0.7961   -0.4829 N.ar    1  UNL1       -0.3573
      8 C           0.7144    0.1656    0.0293 C.ar    1  UNL1        0.0475
      9 C           2.1703    0.2785   -0.0532 C.ar    1  UNL1        0.0012
     10 C           2.8553    1.3303    0.5236 C.ar    1  UNL1       -0.0345
     11 C           4.2188    1.4747    0.4701 C.ar    1  UNL1        0.0282
     12 N           4.9286    0.5356   -0.1829 N.ar    1  UNL1       -0.2632
     13 C           4.3068   -0.5213   -0.7695 C.ar    1  UNL1        0.0282
     14 C           2.9374   -0.6614   -0.7128 C.ar    1  UNL1       -0.0345
     15 C          -0.1373    1.0408    0.6578 C.ar    1  UNL1       -0.0240
     16 C          -1.4566    0.5846    0.5150 C.ar    1  UNL1        0.0578
     17 H          -4.8152    0.6949    0.5187 H       1  UNL1        0.1490
     18 H          -3.2437   -1.5634    1.4688 H       1  UNL1        0.0466
     19 H          -4.5970   -1.6439    0.2656 H       1  UNL1        0.0466
     20 H          -2.3913   -2.3820   -0.8103 H       1  UNL1        0.0343
     21 H          -3.0517   -0.9134   -1.5300 H       1  UNL1        0.0343
     22 H           0.2708   -1.6169   -1.0228 H       1  UNL1        0.1656
     23 H           2.2728    2.0765    1.0444 H       1  UNL1        0.0639
     24 H           4.7130    2.3256    0.9431 H       1  UNL1        0.0830
     25 H           4.8895   -1.2885   -1.3033 H       1  UNL1        0.0830
     26 H           2.4308   -1.5100   -1.1830 H       1  UNL1        0.0639
     27 H           0.1093    1.9492    1.1916 H       1  UNL1        0.0646
@<TRIPOS>BOND
     1     1     2    2
     2     2     3   am
     3     3     4    1
     4     4     5    1
     5     5     6    1
     6     6     7   ar
     7     7     8   ar
     8     8     9    1
     9     9    10   ar
    10    10    11   ar
    11    11    12   ar
    12    12    13   ar
    13    13    14   ar
    14     8    15   ar
    15    15    16   ar
    16    16     2    1
    17    16     6   ar
    18    14     9   ar
    19     3    17    1
    20     4    18    1
    21     4    19    1
    22     5    20    1
    23     5    21    1
    24     7    22    1
    25    10    23    1
    26    11    24    1
    27    13    25    1
    28    14    26    1
    29    15    27    1
