@<TRIPOS>MOLECULE
*****
 120 122 0 0 0
SMALL
GASTEIGER

@<TRIPOS>ATOM
      1 C          -8.5970   -4.4830   -1.6884 C.3     1  UNK1       -0.0524
      2 C          -9.3556   -3.2949   -2.1981 C.3     1  UNK1       -0.0040
      3 N          -8.7934   -2.0340   -1.8234 N.3     1  UNK1       -0.3028
      4 C          -9.6322   -0.9858   -2.3523 C.3     1  UNK1       -0.0040
      5 C         -10.9875   -0.9851   -1.6293 C.3     1  UNK1       -0.0524
      6 C          -7.4578   -1.8979   -2.2725 C.3     1  UNK1       -0.0011
      7 C          -6.7742   -0.5978   -1.8702 C.3     1  UNK1       -0.0401
      8 C          -6.7709   -0.5195   -0.3930 C.3     1  UNK1       -0.0498
      9 C          -6.1474    0.6958    0.2313 C.3     1  UNK1       -0.0259
     10 C          -4.7566    0.9833   -0.0362 C.3     1  UNK1        0.0994
     11 N          -3.9015   -0.1533    0.4048 N.am    1  UNK1       -0.3025
     12 C          -2.5619   -0.2284    0.0886 C.2     1  UNK1        0.2340
     13 O          -2.0497    0.7383   -0.5962 O.2     1  UNK1       -0.2738
     14 C          -1.6778   -1.3306    0.4841 C.3     1  UNK1        0.0996
     15 C          -1.9486   -1.9958    1.7633 C.3     1  UNK1       -0.0236
     16 C          -1.0800   -3.1173    2.1807 C.3     1  UNK1       -0.0446
     17 C           0.3619   -2.8558    2.4089 C.3     1  UNK1       -0.0626
     18 C          -1.6635   -3.8298    3.3869 C.3     1  UNK1       -0.0626
     19 N          -0.2832   -0.9226    0.3872 N.am    1  UNK1       -0.3025
     20 C           0.2149    0.1212    1.1839 C.2     1  UNK1        0.2337
     21 O          -0.6192    0.6648    1.9910 O.2     1  UNK1       -0.2738
     22 C           1.5655    0.6298    1.1724 C.3     1  UNK1        0.0966
     23 C           1.5795    2.1652    1.0348 C.3     1  UNK1       -0.0381
     24 N           2.5013    0.0452    0.2672 N.am    1  UNK1       -0.3027
     25 C           3.7823   -0.4084    0.6710 C.2     1  UNK1        0.2343
     26 O           4.0478   -0.2732    1.9188 O.2     1  UNK1       -0.2738
     27 C           4.7923   -1.0032   -0.2524 C.3     1  UNK1        0.1033
     28 C           4.1678   -2.0464   -1.0864 C.3     1  UNK1       -0.0007
     29 C           5.0682   -2.7136   -2.0275 C.ar    1  UNK1       -0.0451
     30 C           5.3350   -2.3054   -3.2883 C.ar    1  UNK1       -0.0585
     31 C           6.2049   -3.0084   -4.1142 C.ar    1  UNK1       -0.0615
     32 C           6.8174   -4.1417   -3.6644 C.ar    1  UNK1       -0.0617
     33 C           6.5614   -4.5803   -2.3810 C.ar    1  UNK1       -0.0615
     34 C           5.6942   -3.8758   -1.5631 C.ar    1  UNK1       -0.0585
     35 N           6.0029   -1.3420    0.4271 N.am    1  UNK1       -0.3034
     36 C           7.0827   -0.4249    0.5098 C.2     0  UNK0        0.2179
     37 O           6.8957    0.7113   -0.0487 O.2     0  UNK0       -0.2754
     38 C           8.3753   -0.7438    1.2088 C.3     0  UNK0        0.0491
     39 C           9.2654    0.4268    1.2248 C.ar    0  UNK0       -0.0380
     40 C           9.1234    1.2901    2.3173 C.ar    0  UNK0       -0.0575
     41 C           9.9331    2.4032    2.3889 C.ar    0  UNK0       -0.0538
     42 C          10.8479    2.6454    1.4092 C.ar    0  UNK0       -0.0179
     43 C          11.6482    3.7542    1.4901 C.ar    0  UNK0       -0.0540
     44 C          12.6029    4.0558    0.5237 C.ar    0  UNK0       -0.0612
     45 C          12.7399    3.2102   -0.5415 C.ar    0  UNK0       -0.0612
     46 C          11.9452    2.0724   -0.6617 C.ar    0  UNK0       -0.0540
     47 C          11.0252    1.8188    0.3086 C.ar    0  UNK0       -0.0176
     48 C          10.1980    0.7019    0.2561 C.ar    0  UNK0       -0.0504
     49 C          -4.1995    2.2328    0.4939 C.2     1  UNK1        0.2340
     50 O          -3.2099    2.1385    1.2759 O.2     1  UNK1       -0.2738
     51 N          -4.6407    3.5345    0.2221 N.am    2  UNK2       -0.2991
     52 C          -3.9998    4.7109    0.7739 C.3     2  UNK2        0.1437
     53 C          -3.3948    5.4485   -0.4270 C.3     2  UNK2        0.0730
     54 O          -2.4849    4.6606   -1.1134 O.3     2  UNK2       -0.3926
     55 C          -4.8894    5.6006    1.5338 C.2     2  UNK2        0.3297
     56 O          -4.4174    6.6520    2.0529 O.2     2  UNK2       -0.2487
     57 O          -6.2411    5.2645    1.6697 O.3     2  UNK2       -0.4666
     58 C          -7.0280    6.1730    2.4393 C.3     2  UNK2        0.0817
     59 H          -7.8541   -4.8762   -2.4097 H       1  UNK1        0.0242
     60 H          -8.1558   -4.3173   -0.6640 H       1  UNK1        0.0242
     61 H          -9.3415   -5.3190   -1.5407 H       1  UNK1        0.0242
     62 H          -9.4430   -3.4388   -3.3169 H       1  UNK1        0.0424
     63 H         -10.4133   -3.3840   -1.8253 H       1  UNK1        0.0424
     64 H          -9.8554   -1.1012   -3.4474 H       1  UNK1        0.0424
     65 H          -9.1665    0.0300   -2.2850 H       1  UNK1        0.0424
     66 H         -11.7974   -1.3926   -2.2737 H       1  UNK1        0.0242
     67 H         -10.9146   -1.6362   -0.7396 H       1  UNK1        0.0242
     68 H         -11.1877    0.0345   -1.2997 H       1  UNK1        0.0242
     69 H          -7.4609   -1.8964   -3.3998 H       1  UNK1        0.0426
     70 H          -6.8036   -2.7159   -1.8926 H       1  UNK1        0.0426
     71 H          -5.6921   -0.7801   -2.1777 H       1  UNK1        0.0278
     72 H          -7.1959    0.2515   -2.4044 H       1  UNK1        0.0278
     73 H          -7.8458   -0.6214   -0.0475 H       1  UNK1        0.0266
     74 H          -6.3086   -1.4778   -0.0133 H       1  UNK1        0.0266
     75 H          -6.8644    1.5318    0.0302 H       1  UNK1        0.0288
     76 H          -6.3156    0.5449    1.3490 H       1  UNK1        0.0288
     77 H          -4.5234    1.0451   -1.1219 H       1  UNK1        0.0594
     78 H          -4.3764   -0.8826    0.9588 H       1  UNK1        0.1495
     79 H          -1.8211   -2.1105   -0.3328 H       1  UNK1        0.0594
     80 H          -3.0116   -2.4104    1.8099 H       1  UNK1        0.0290
     81 H          -1.9721   -1.2635    2.6356 H       1  UNK1        0.0290
     82 H          -1.1941   -3.8982    1.3375 H       1  UNK1        0.0296
     83 H           0.8437   -3.7235    2.9734 H       1  UNK1        0.0232
     84 H           0.9059   -2.8775    1.4422 H       1  UNK1        0.0232
     85 H           0.5839   -1.9920    3.0368 H       1  UNK1        0.0232
     86 H          -0.9105   -4.5649    3.7800 H       1  UNK1        0.0232
     87 H          -1.7871   -3.0673    4.1868 H       1  UNK1        0.0232
     88 H          -2.6176   -4.3409    3.1299 H       1  UNK1        0.0232
     89 H           0.3189   -1.4121   -0.2881 H       1  UNK1        0.1495
     90 H           2.0092    0.4893    2.2108 H       1  UNK1        0.0592
     91 H           0.8766    2.3618    0.2031 H       1  UNK1        0.0252
     92 H           1.1531    2.5764    1.9472 H       1  UNK1        0.0252
     93 H           2.5577    2.5547    0.7504 H       1  UNK1        0.0252
     94 H           2.2401   -0.0574   -0.7318 H       1  UNK1        0.1495
     95 H           5.0568   -0.1199   -0.9243 H       1  UNK1        0.0598
     96 H           3.5895   -2.8049   -0.4815 H       1  UNK1        0.0336
     97 H           3.3759   -1.5377   -1.7096 H       1  UNK1        0.0336
     98 H           4.8831   -1.4248   -3.6900 H       1  UNK1        0.0620
     99 H           6.4281   -2.6901   -5.1340 H       1  UNK1        0.0618
    100 H           7.4971   -4.6780   -4.3297 H       1  UNK1        0.0618
    101 H           7.0564   -5.4857   -2.0405 H       1  UNK1        0.0618
    102 H           5.5224   -4.2489   -0.5649 H       1  UNK1        0.0620
    103 H           6.0979   -2.2814    0.8761 H       1  UNK1        0.1495
    104 H           8.9268   -1.5404    0.6213 H       0  UNK0        0.0407
    105 H           8.1370   -1.1772    2.1792 H       0  UNK0        0.0407
    106 H           8.4061    1.0931    3.0962 H       0  UNK0        0.0621
    107 H           9.8144    3.0709    3.2383 H       0  UNK0        0.0624
    108 H          11.5713    4.4403    2.3088 H       0  UNK0        0.0624
    109 H          13.2108    4.9483    0.6393 H       0  UNK0        0.0618
    110 H          13.4720    3.3988   -1.3215 H       0  UNK0        0.0618
    111 H          12.0575    1.4046   -1.5129 H       0  UNK0        0.0624
    112 H          10.3149    0.0391   -0.5939 H       0  UNK0        0.0626
    113 H          -5.4559    3.6612   -0.3935 H       2  UNK2        0.1496
    114 H          -3.1769    4.3862    1.4506 H       2  UNK2        0.0638
    115 H          -2.9332    6.3891   -0.0634 H       2  UNK2        0.0581
    116 H          -4.2044    5.7437   -1.1333 H       2  UNK2        0.0581
    117 H          -1.5534    4.9028   -0.8779 H       2  UNK2        0.2095
    118 H          -8.0837    6.1481    2.1891 H       2  UNK2        0.0661
    119 H          -6.6009    7.1995    2.3506 H       2  UNK2        0.0661
    120 H          -6.8850    5.8499    3.5038 H       2  UNK2        0.0661
@<TRIPOS>BOND
     1     1     2    1
     2     2     3    1
     3     3     4    1
     4     4     5    1
     5     3     6    1
     6     6     7    1
     7     7     8    1
     8     8     9    1
     9     9    10    1
    10    10    11    1
    11    11    12   am
    12    12    13    2
    13    12    14    1
    14    14    15    1
    15    15    16    1
    16    16    17    1
    17    16    18    1
    18    14    19    1
    19    19    20   am
    20    20    21    2
    21    20    22    1
    22    22    23    1
    23    22    24    1
    24    24    25   am
    25    25    26    2
    26    25    27    1
    27    27    28    1
    28    28    29    1
    29    29    30   ar
    30    30    31   ar
    31    31    32   ar
    32    32    33   ar
    33    33    34   ar
    34    27    35    1
    35    35    36   am
    36    36    37    2
    37    36    38    1
    38    38    39    1
    39    39    40   ar
    40    40    41   ar
    41    41    42   ar
    42    42    43   ar
    43    43    44   ar
    44    44    45   ar
    45    45    46   ar
    46    46    47   ar
    47    47    48   ar
    48    10    49    1
    49    49    50    2
    50    49    51   am
    51    51    52    1
    52    52    53    1
    53    53    54    1
    54    52    55    1
    55    55    56    2
    56    55    57    1
    57    57    58    1
    58    34    29   ar
    59    48    39   ar
    60    47    42   ar
    61     1    59    1
    62     1    60    1
    63     1    61    1
    64     2    62    1
    65     2    63    1
    66     4    64    1
    67     4    65    1
    68     5    66    1
    69     5    67    1
    70     5    68    1
    71     6    69    1
    72     6    70    1
    73     7    71    1
    74     7    72    1
    75     8    73    1
    76     8    74    1
    77     9    75    1
    78     9    76    1
    79    10    77    1
    80    11    78    1
    81    14    79    1
    82    15    80    1
    83    15    81    1
    84    16    82    1
    85    17    83    1
    86    17    84    1
    87    17    85    1
    88    18    86    1
    89    18    87    1
    90    18    88    1
    91    19    89    1
    92    22    90    1
    93    23    91    1
    94    23    92    1
    95    23    93    1
    96    24    94    1
    97    27    95    1
    98    28    96    1
    99    28    97    1
   100    30    98    1
   101    31    99    1
   102    32   100    1
   103    33   101    1
   104    34   102    1
   105    35   103    1
   106    38   104    1
   107    38   105    1
   108    40   106    1
   109    41   107    1
   110    43   108    1
   111    44   109    1
   112    45   110    1
   113    46   111    1
   114    48   112    1
   115    51   113    1
   116    52   114    1
   117    53   115    1
   118    53   116    1
   119    54   117    1
   120    58   118    1
   121    58   119    1
   122    58   120    1
