
     RDKit          3D

 49 50  0  0  0  0  0  0  0  0999 V2000
    6.2773   -0.8772   -1.0268 C   0  0  0  0  0  0  0  0  0  0  0  0
    4.8387   -0.3796   -0.8690 C   0  0  0  0  0  0  0  0  0  0  0  0
    4.5168   -0.1923    0.5864 C   0  0  0  0  0  0  0  0  0  0  0  0
    3.1204    0.2914    0.7500 C   0  0  0  0  0  0  0  0  0  0  0  0
    2.1472   -0.6892    0.2560 C   0  0  0  0  0  0  0  0  0  0  0  0
    2.5063   -1.8085   -0.1321 O   0  0  0  0  0  0  0  0  0  0  0  0
    0.7415   -0.3367    0.2236 C   0  0  0  0  0  0  0  0  0  0  0  0
   -0.1631   -1.2634   -0.2421 C   0  0  0  0  0  0  0  0  0  0  0  0
   -1.5025   -0.9117   -0.2667 C   0  0  0  0  0  0  0  0  0  0  0  0
   -2.4910   -1.8909   -0.7660 C   0  0  0  0  0  0  0  0  0  0  0  0
   -1.8187   -3.1836   -1.1827 C   0  0  0  0  0  0  0  0  0  0  0  0
   -3.1939   -1.3870   -2.0215 C   0  0  0  0  0  0  0  0  0  0  0  0
   -3.5493   -2.2352    0.2386 C   0  0  0  0  0  0  0  0  0  0  0  0
   -1.9648    0.3193    0.1530 C   0  0  0  0  0  0  0  0  0  0  0  0
   -1.0634    1.2488    0.6194 C   0  0  0  0  0  0  0  0  0  0  0  0
    0.2905    0.9165    0.6532 C   0  0  0  0  0  0  0  0  0  0  0  0
   -1.8285    2.4565    0.9923 C   0  0  0  0  0  0  0  0  0  0  0  0
   -1.8085    3.5084   -0.1034 C   0  0  0  0  0  0  0  0  0  0  0  0
   -1.2866    2.9945    2.2788 C   0  0  0  0  0  0  0  0  0  0  0  0
   -3.2520    1.9508    1.0946 C   0  0  0  0  0  0  0  0  0  0  0  0
   -3.2755    0.8304    0.1939 O   0  0  0  0  0  0  0  0  0  0  0  0
    6.4129   -1.6659   -0.2598 H   0  0  0  0  0  0  0  0  0  0  0  0
    7.0029   -0.0388   -0.9153 H   0  0  0  0  0  0  0  0  0  0  0  0
    6.3363   -1.3382   -2.0261 H   0  0  0  0  0  0  0  0  0  0  0  0
    4.1420   -1.0083   -1.4039 H   0  0  0  0  0  0  0  0  0  0  0  0
    4.8319    0.6326   -1.3794 H   0  0  0  0  0  0  0  0  0  0  0  0
    4.6258   -1.1676    1.1214 H   0  0  0  0  0  0  0  0  0  0  0  0
    5.2122    0.5285    1.0687 H   0  0  0  0  0  0  0  0  0  0  0  0
    2.8926    0.4684    1.8494 H   0  0  0  0  0  0  0  0  0  0  0  0
    2.9611    1.2582    0.2010 H   0  0  0  0  0  0  0  0  0  0  0  0
    0.1830   -2.2523   -0.5824 H   0  0  0  0  0  0  0  0  0  0  0  0
   -1.0976   -2.9550   -1.9983 H   0  0  0  0  0  0  0  0  0  0  0  0
   -2.5890   -3.9132   -1.5146 H   0  0  0  0  0  0  0  0  0  0  0  0
   -1.2616   -3.6690   -0.3763 H   0  0  0  0  0  0  0  0  0  0  0  0
   -3.3771   -0.3167   -2.0108 H   0  0  0  0  0  0  0  0  0  0  0  0
   -2.5316   -1.5893   -2.9074 H   0  0  0  0  0  0  0  0  0  0  0  0
   -4.1510   -1.9109   -2.1769 H   0  0  0  0  0  0  0  0  0  0  0  0
   -3.1317   -2.6987    1.1485 H   0  0  0  0  0  0  0  0  0  0  0  0
   -4.1468   -1.3213    0.4630 H   0  0  0  0  0  0  0  0  0  0  0  0
   -4.1947   -3.0169   -0.2394 H   0  0  0  0  0  0  0  0  0  0  0  0
    1.0088    1.6138    1.0083 H   0  0  0  0  0  0  0  0  0  0  0  0
   -0.9241    4.1536   -0.0543 H   0  0  0  0  0  0  0  0  0  0  0  0
   -2.7154    4.1515    0.0883 H   0  0  0  0  0  0  0  0  0  0  0  0
   -1.9102    2.9963   -1.0858 H   0  0  0  0  0  0  0  0  0  0  0  0
   -0.3993    3.6327    2.0145 H   0  0  0  0  0  0  0  0  0  0  0  0
   -2.0353    3.5614    2.8654 H   0  0  0  0  0  0  0  0  0  0  0  0
   -0.8803    2.1488    2.8657 H   0  0  0  0  0  0  0  0  0  0  0  0
   -3.9788    2.6864    0.6935 H   0  0  0  0  0  0  0  0  0  0  0  0
   -3.5257    1.6685    2.1132 H   0  0  0  0  0  0  0  0  0  0  0  0
  1  2  1  0
  2  3  1  0
  3  4  1  0
  4  5  1  0
  5  6  2  0
  5  7  1  0
  7  8  2  0
  8  9  1  0
  9 10  1  0
 10 11  1  0
 10 12  1  0
 10 13  1  0
  9 14  2  0
 14 15  1  0
 15 16  2  0
 15 17  1  0
 17 18  1  0
 17 19  1  0
 17 20  1  0
 20 21  1  0
 16  7  1  0
 21 14  1  0
  1 22  1  0
  1 23  1  0
  1 24  1  0
  2 25  1  0
  2 26  1  0
  3 27  1  0
  3 28  1  0
  4 29  1  0
  4 30  1  0
  8 31  1  0
 11 32  1  0
 11 33  1  0
 11 34  1  0
 12 35  1  0
 12 36  1  0
 12 37  1  0
 13 38  1  0
 13 39  1  0
 13 40  1  0
 16 41  1  0
 18 42  1  0
 18 43  1  0
 18 44  1  0
 19 45  1  0
 19 46  1  0
 19 47  1  0
 20 48  1  0
 20 49  1  0
M  END
$$$$
