@<TRIPOS>MOLECULE
*****
 49 50 0 0 0
SMALL
GASTEIGER

@<TRIPOS>ATOM
      1 C           6.2773   -0.8772   -1.0268 C.3     1  UNL1       -0.0653
      2 C           4.8387   -0.3796   -0.8690 C.3     1  UNL1       -0.0555
      3 C           4.5168   -0.1923    0.5864 C.3     1  UNL1       -0.0463
      4 C           3.1204    0.2914    0.7500 C.3     1  UNL1        0.0105
      5 C           2.1472   -0.6892    0.2560 C.2     1  UNL1        0.1632
      6 O           2.5063   -1.8085   -0.1321 O.2     1  UNL1       -0.2921
      7 C           0.7415   -0.3367    0.2236 C.ar    1  UNL1        0.0182
      8 C          -0.1631   -1.2634   -0.2421 C.ar    1  UNL1       -0.0441
      9 C          -1.5025   -0.9117   -0.2667 C.ar    1  UNL1        0.0006
     10 C          -2.4910   -1.8909   -0.7660 C.3     1  UNL1       -0.0092
     11 C          -1.8187   -3.1836   -1.1827 C.3     1  UNL1       -0.0559
     12 C          -3.1939   -1.3870   -2.0215 C.3     1  UNL1       -0.0559
     13 C          -3.5493   -2.2352    0.2386 C.3     1  UNL1       -0.0559
     14 C          -1.9648    0.3193    0.1530 C.ar    1  UNL1        0.1280
     15 C          -1.0634    1.2488    0.6194 C.ar    1  UNL1        0.0041
     16 C           0.2905    0.9165    0.6532 C.ar    1  UNL1       -0.0440
     17 C          -1.8285    2.4565    0.9923 C.3     1  UNL1        0.0276
     18 C          -1.8085    3.5084   -0.1034 C.3     1  UNL1       -0.0525
     19 C          -1.2866    2.9945    2.2788 C.3     1  UNL1       -0.0525
     20 C          -3.2520    1.9508    1.0946 C.3     1  UNL1        0.0988
     21 O          -3.2755    0.8304    0.1939 O.3     1  UNL1       -0.4905
     22 H           6.4129   -1.6659   -0.2598 H       1  UNL1        0.0230
     23 H           7.0029   -0.0388   -0.9153 H       1  UNL1        0.0230
     24 H           6.3363   -1.3382   -2.0261 H       1  UNL1        0.0230
     25 H           4.1420   -1.0083   -1.4039 H       1  UNL1        0.0263
     26 H           4.8319    0.6326   -1.3794 H       1  UNL1        0.0263
     27 H           4.6258   -1.1676    1.1214 H       1  UNL1        0.0269
     28 H           5.2122    0.5285    1.0687 H       1  UNL1        0.0269
     29 H           2.8926    0.4684    1.8494 H       1  UNL1        0.0345
     30 H           2.9611    1.2582    0.2010 H       1  UNL1        0.0345
     31 H           0.1830   -2.2523   -0.5824 H       1  UNL1        0.0629
     32 H          -1.0976   -2.9550   -1.9983 H       1  UNL1        0.0238
     33 H          -2.5890   -3.9132   -1.5146 H       1  UNL1        0.0238
     34 H          -1.2616   -3.6690   -0.3763 H       1  UNL1        0.0238
     35 H          -3.3771   -0.3167   -2.0108 H       1  UNL1        0.0238
     36 H          -2.5316   -1.5893   -2.9074 H       1  UNL1        0.0238
     37 H          -4.1510   -1.9109   -2.1769 H       1  UNL1        0.0238
     38 H          -3.1317   -2.6987    1.1485 H       1  UNL1        0.0238
     39 H          -4.1468   -1.3213    0.4630 H       1  UNL1        0.0238
     40 H          -4.1947   -3.0169   -0.2394 H       1  UNL1        0.0238
     41 H           1.0088    1.6138    1.0083 H       1  UNL1        0.0629
     42 H          -0.9241    4.1536   -0.0543 H       1  UNL1        0.0239
     43 H          -2.7154    4.1515    0.0883 H       1  UNL1        0.0239
     44 H          -1.9102    2.9963   -1.0858 H       1  UNL1        0.0239
     45 H          -0.3993    3.6327    2.0145 H       1  UNL1        0.0239
     46 H          -2.0353    3.5614    2.8654 H       1  UNL1        0.0239
     47 H          -0.8803    2.1488    2.8657 H       1  UNL1        0.0239
     48 H          -3.9788    2.6864    0.6935 H       1  UNL1        0.0705
     49 H          -3.5257    1.6685    2.1132 H       1  UNL1        0.0705
@<TRIPOS>BOND
     1     1     2    1
     2     2     3    1
     3     3     4    1
     4     4     5    1
     5     5     6    2
     6     5     7    1
     7     7     8   ar
     8     8     9   ar
     9     9    10    1
    10    10    11    1
    11    10    12    1
    12    10    13    1
    13     9    14   ar
    14    14    15   ar
    15    15    16   ar
    16    15    17    1
    17    17    18    1
    18    17    19    1
    19    17    20    1
    20    20    21    1
    21    16     7   ar
    22    21    14    1
    23     1    22    1
    24     1    23    1
    25     1    24    1
    26     2    25    1
    27     2    26    1
    28     3    27    1
    29     3    28    1
    30     4    29    1
    31     4    30    1
    32     8    31    1
    33    11    32    1
    34    11    33    1
    35    11    34    1
    36    12    35    1
    37    12    36    1
    38    12    37    1
    39    13    38    1
    40    13    39    1
    41    13    40    1
    42    16    41    1
    43    18    42    1
    44    18    43    1
    45    18    44    1
    46    19    45    1
    47    19    46    1
    48    19    47    1
    49    20    48    1
    50    20    49    1
