@<TRIPOS>MOLECULE
*****
 56 58 0 0 0
SMALL
GASTEIGER

@<TRIPOS>ATOM
      1 C           0.0851   -1.0615    1.7018 C.3     1  UNL1        0.0785
      2 C           0.0138   -2.4556    1.1369 C.3     1  UNL1        0.0885
      3 S          -1.3698   -3.4029    1.6217 S.O2    1  UNL1       -0.0317
      4 C          -2.9340   -2.7454    1.1823 C.3     1  UNL1        0.0545
      5 O          -1.3581   -3.6932    3.0948 O.2     1  UNL1       -0.1745
      6 O          -1.2505   -4.7429    0.9040 O.2     1  UNL1       -0.1745
      7 N           1.2832   -0.4129    1.2130 N.am    1  UNL1       -0.2250
      8 C           2.2800    0.0056    2.1793 C.2     1  UNL1        0.2545
      9 O           2.3633   -0.0501    3.4507 O.2     1  UNL1       -0.2695
     10 C           3.4506    0.6332    1.5220 C.ar    1  UNL1        0.0515
     11 C           3.1832    0.6039    0.1710 C.ar    1  UNL1        0.0748
     12 C           1.8876   -0.0235    0.0063 C.2     1  UNL1        0.2565
     13 O           1.3419   -0.2117   -1.1016 O.2     1  UNL1       -0.2694
     14 C           4.0634    1.1089   -0.7572 C.ar    1  UNL1        0.0802
     15 C           5.2563    1.6690   -0.3796 C.ar    1  UNL1       -0.0354
     16 C           5.5305    1.7027    0.9584 C.ar    1  UNL1       -0.0590
     17 C           4.6509    1.1979    1.8882 C.ar    1  UNL1       -0.0488
     18 N           3.7559    1.0667   -2.1449 N.2     1  UNL1       -0.2169
     19 C           3.8492   -0.0740   -2.7393 C.2     1  UNL1        0.1843
     20 C           4.2398   -1.4362   -2.2245 C.3     1  UNL1        0.0116
     21 O           3.5457   -0.0971   -4.0908 O.2     1  UNL1       -0.4956
     22 C          -1.1119   -0.2354    1.4096 C.ar    1  UNL1       -0.0213
     23 C          -1.6909    0.1539    0.2336 C.ar    1  UNL1       -0.0113
     24 C          -2.7951    0.9604    0.1054 C.ar    1  UNL1        0.1622
     25 O          -3.2456    1.2529   -1.1797 O.3     1  UNL1       -0.4886
     26 C          -2.5658    0.7152   -2.2935 C.3     1  UNL1        0.0870
     27 C          -3.2096    1.1476   -3.5943 C.3     1  UNL1       -0.0307
     28 C          -3.4069    1.4428    1.2402 C.ar    1  UNL1        0.1615
     29 O          -4.5100    2.2487    1.1011 O.3     1  UNL1       -0.4915
     30 C          -5.1380    2.7424    2.2575 C.3     1  UNL1        0.0790
     31 C          -2.9163    1.1193    2.4862 C.ar    1  UNL1       -0.0160
     32 C          -1.8043    0.3043    2.5091 C.ar    1  UNL1       -0.0531
     33 H           0.2115   -1.1433    2.8246 H       1  UNL1        0.0571
     34 H           0.0936   -2.4179    0.0300 H       1  UNL1        0.0522
     35 H           0.9125   -2.9886    1.5099 H       1  UNL1        0.0522
     36 H          -3.3654   -2.0263    1.8769 H       1  UNL1        0.0464
     37 H          -2.9582   -2.4344    0.1055 H       1  UNL1        0.0464
     38 H          -3.6515   -3.6233    1.2020 H       1  UNL1        0.0464
     39 H           5.9802    2.0781   -1.0645 H       1  UNL1        0.0639
     40 H           6.4594    2.1320    1.3387 H       1  UNL1        0.0618
     41 H           4.8814    1.2330    2.9239 H       1  UNL1        0.0625
     42 H           4.1553   -1.4365   -1.1367 H       1  UNL1        0.0324
     43 H           3.4983   -2.1828   -2.6180 H       1  UNL1        0.0324
     44 H           5.2622   -1.6420   -2.6021 H       1  UNL1        0.0324
     45 H           3.3412    0.7525   -4.5693 H       1  UNL1        0.2934
     46 H          -1.2276   -0.2355   -0.6432 H       1  UNL1        0.0659
     47 H          -2.5451   -0.3885   -2.2426 H       1  UNL1        0.0694
     48 H          -1.5082    1.0481   -2.3279 H       1  UNL1        0.0694
     49 H          -2.9610    0.4450   -4.4182 H       1  UNL1        0.0262
     50 H          -2.8750    2.1591   -3.9021 H       1  UNL1        0.0262
     51 H          -4.3077    1.1539   -3.4325 H       1  UNL1        0.0262
     52 H          -6.0354    3.3661    2.0196 H       1  UNL1        0.0660
     53 H          -5.5555    1.8849    2.8589 H       1  UNL1        0.0660
     54 H          -4.4352    3.2652    2.9364 H       1  UNL1        0.0660
     55 H          -3.3826    1.4875    3.3737 H       1  UNL1        0.0655
     56 H          -1.4606    0.0809    3.5246 H       1  UNL1        0.0622
@<TRIPOS>BOND
     1     1     2    1
     2     2     3    1
     3     3     4    1
     4     3     5    2
     5     3     6    2
     6     1     7    1
     7     7     8   am
     8     8     9    2
     9     8    10    1
    10    10    11   ar
    11    11    12    1
    12    12    13    2
    13    11    14   ar
    14    14    15   ar
    15    15    16   ar
    16    16    17   ar
    17    14    18    1
    18    18    19    2
    19    19    20    1
    20    19    21    1
    21     1    22    1
    22    22    23   ar
    23    23    24   ar
    24    24    25    1
    25    25    26    1
    26    26    27    1
    27    24    28   ar
    28    28    29    1
    29    29    30    1
    30    28    31   ar
    31    31    32   ar
    32    12     7   am
    33    32    22   ar
    34    17    10   ar
    35     1    33    1
    36     2    34    1
    37     2    35    1
    38     4    36    1
    39     4    37    1
    40     4    38    1
    41    15    39    1
    42    16    40    1
    43    17    41    1
    44    20    42    1
    45    20    43    1
    46    20    44    1
    47    21    45    1
    48    23    46    1
    49    26    47    1
    50    26    48    1
    51    27    49    1
    52    27    50    1
    53    27    51    1
    54    30    52    1
    55    30    53    1
    56    30    54    1
    57    31    55    1
    58    32    56    1
