
     RDKit          3D

 56 58  0  0  0  0  0  0  0  0999 V2000
    0.0851   -1.0615    1.7018 C   0  0  1  0  0  0  0  0  0  0  0  0
    0.0138   -2.4556    1.1369 C   0  0  0  0  0  0  0  0  0  0  0  0
   -1.3698   -3.4029    1.6217 S   0  0  0  0  0  0  0  0  0  0  0  0
   -2.9340   -2.7454    1.1823 C   0  0  0  0  0  0  0  0  0  0  0  0
   -1.3581   -3.6932    3.0948 O   0  0  0  0  0  0  0  0  0  0  0  0
   -1.2505   -4.7429    0.9040 O   0  0  0  0  0  0  0  0  0  0  0  0
    1.2832   -0.4129    1.2130 N   0  0  0  0  0  0  0  0  0  0  0  0
    2.2800    0.0056    2.1793 C   0  0  0  0  0  0  0  0  0  0  0  0
    2.3633   -0.0501    3.4507 O   0  0  0  0  0  0  0  0  0  0  0  0
    3.4506    0.6332    1.5220 C   0  0  0  0  0  0  0  0  0  0  0  0
    3.1832    0.6039    0.1710 C   0  0  0  0  0  0  0  0  0  0  0  0
    1.8876   -0.0235    0.0063 C   0  0  0  0  0  0  0  0  0  0  0  0
    1.3419   -0.2117   -1.1016 O   0  0  0  0  0  0  0  0  0  0  0  0
    4.0634    1.1089   -0.7572 C   0  0  0  0  0  0  0  0  0  0  0  0
    5.2563    1.6690   -0.3796 C   0  0  0  0  0  0  0  0  0  0  0  0
    5.5305    1.7027    0.9584 C   0  0  0  0  0  0  0  0  0  0  0  0
    4.6509    1.1979    1.8882 C   0  0  0  0  0  0  0  0  0  0  0  0
    3.7559    1.0667   -2.1449 N   0  0  0  0  0  0  0  0  0  0  0  0
    3.8492   -0.0740   -2.7393 C   0  0  0  0  0  0  0  0  0  0  0  0
    4.2398   -1.4362   -2.2245 C   0  0  0  0  0  0  0  0  0  0  0  0
    3.5457   -0.0971   -4.0908 O   0  0  0  0  0  0  0  0  0  0  0  0
   -1.1119   -0.2354    1.4096 C   0  0  0  0  0  0  0  0  0  0  0  0
   -1.6909    0.1539    0.2336 C   0  0  0  0  0  0  0  0  0  0  0  0
   -2.7951    0.9604    0.1054 C   0  0  0  0  0  0  0  0  0  0  0  0
   -3.2456    1.2529   -1.1797 O   0  0  0  0  0  0  0  0  0  0  0  0
   -2.5658    0.7152   -2.2935 C   0  0  0  0  0  0  0  0  0  0  0  0
   -3.2096    1.1476   -3.5943 C   0  0  0  0  0  0  0  0  0  0  0  0
   -3.4069    1.4428    1.2402 C   0  0  0  0  0  0  0  0  0  0  0  0
   -4.5100    2.2487    1.1011 O   0  0  0  0  0  0  0  0  0  0  0  0
   -5.1380    2.7424    2.2575 C   0  0  0  0  0  0  0  0  0  0  0  0
   -2.9163    1.1193    2.4862 C   0  0  0  0  0  0  0  0  0  0  0  0
   -1.8043    0.3043    2.5091 C   0  0  0  0  0  0  0  0  0  0  0  0
    0.2115   -1.1433    2.8246 H   0  0  0  0  0  0  0  0  0  0  0  0
    0.0936   -2.4179    0.0300 H   0  0  0  0  0  0  0  0  0  0  0  0
    0.9125   -2.9886    1.5099 H   0  0  0  0  0  0  0  0  0  0  0  0
   -3.3654   -2.0263    1.8769 H   0  0  0  0  0  0  0  0  0  0  0  0
   -2.9582   -2.4344    0.1055 H   0  0  0  0  0  0  0  0  0  0  0  0
   -3.6515   -3.6233    1.2020 H   0  0  0  0  0  0  0  0  0  0  0  0
    5.9802    2.0781   -1.0645 H   0  0  0  0  0  0  0  0  0  0  0  0
    6.4594    2.1320    1.3387 H   0  0  0  0  0  0  0  0  0  0  0  0
    4.8814    1.2330    2.9239 H   0  0  0  0  0  0  0  0  0  0  0  0
    4.1553   -1.4365   -1.1367 H   0  0  0  0  0  0  0  0  0  0  0  0
    3.4983   -2.1828   -2.6180 H   0  0  0  0  0  0  0  0  0  0  0  0
    5.2622   -1.6420   -2.6021 H   0  0  0  0  0  0  0  0  0  0  0  0
    3.3412    0.7525   -4.5693 H   0  0  0  0  0  0  0  0  0  0  0  0
   -1.2276   -0.2355   -0.6432 H   0  0  0  0  0  0  0  0  0  0  0  0
   -2.5451   -0.3885   -2.2426 H   0  0  0  0  0  0  0  0  0  0  0  0
   -1.5082    1.0481   -2.3279 H   0  0  0  0  0  0  0  0  0  0  0  0
   -2.9610    0.4450   -4.4182 H   0  0  0  0  0  0  0  0  0  0  0  0
   -2.8750    2.1591   -3.9021 H   0  0  0  0  0  0  0  0  0  0  0  0
   -4.3077    1.1539   -3.4325 H   0  0  0  0  0  0  0  0  0  0  0  0
   -6.0354    3.3661    2.0196 H   0  0  0  0  0  0  0  0  0  0  0  0
   -5.5555    1.8849    2.8589 H   0  0  0  0  0  0  0  0  0  0  0  0
   -4.4352    3.2652    2.9364 H   0  0  0  0  0  0  0  0  0  0  0  0
   -3.3826    1.4875    3.3737 H   0  0  0  0  0  0  0  0  0  0  0  0
   -1.4606    0.0809    3.5246 H   0  0  0  0  0  0  0  0  0  0  0  0
  1  2  1  0
  2  3  1  0
  3  4  1  0
  3  5  2  0
  3  6  2  0
  1  7  1  0
  7  8  1  0
  8  9  2  0
  8 10  1  0
 10 11  2  0
 11 12  1  0
 12 13  2  0
 11 14  1  0
 14 15  2  0
 15 16  1  0
 16 17  2  0
 14 18  1  0
 18 19  2  3
 19 20  1  0
 19 21  1  0
  1 22  1  0
 22 23  2  0
 23 24  1  0
 24 25  1  0
 25 26  1  0
 26 27  1  0
 24 28  2  0
 28 29  1  0
 29 30  1  0
 28 31  1  0
 31 32  2  0
 12  7  1  0
 32 22  1  0
 17 10  1  0
  1 33  1  1
  2 34  1  0
  2 35  1  0
  4 36  1  0
  4 37  1  0
  4 38  1  0
 15 39  1  0
 16 40  1  0
 17 41  1  0
 20 42  1  0
 20 43  1  0
 20 44  1  0
 21 45  1  0
 23 46  1  0
 26 47  1  0
 26 48  1  0
 27 49  1  0
 27 50  1  0
 27 51  1  0
 30 52  1  0
 30 53  1  0
 30 54  1  0
 31 55  1  0
 32 56  1  0
M  END
$$$$
