@<TRIPOS>MOLECULE
*****
 71 72 0 0 0
SMALL
GASTEIGER

@<TRIPOS>ATOM
      1 C          -3.3221    2.5008   -4.4594 C.3     1  UNL1        0.0790
      2 O          -4.0940    2.5308   -3.2822 O.3     1  UNL1       -0.4915
      3 C          -4.0403    1.4945   -2.3531 C.ar    1  UNL1        0.1615
      4 C          -3.2597    0.3951   -2.4898 C.ar    1  UNL1       -0.0160
      5 C          -3.2288   -0.6364   -1.5381 C.ar    1  UNL1       -0.0548
      6 C          -3.9973   -0.5809   -0.4108 C.ar    1  UNL1       -0.0425
      7 C          -4.0768   -1.6138    0.6265 C.3     1  UNL1       -0.0148
      8 C          -3.2889   -1.4691    1.8589 C.3     1  UNL1        0.0026
      9 N          -1.8851   -1.5113    1.7259 N.3     1  UNL1       -0.3050
     10 C          -1.2085   -1.1937    2.9675 C.3     1  UNL1       -0.0128
     11 C          -1.3625   -2.6395    1.0332 C.3     1  UNL1       -0.0013
     12 C           0.1533   -2.7914    1.0957 C.3     1  UNL1       -0.0385
     13 C           0.8700   -1.6240    0.5634 C.3     1  UNL1       -0.0290
     14 C           2.3524   -1.5888    0.5196 C.3     1  UNL1        0.0846
     15 C           2.8235   -2.6479   -0.3101 C.1     1  UNL1        0.0742
     16 N           3.2541   -3.5744   -1.0588 N.1     1  UNL1       -0.1956
     17 C           2.8505   -0.3034   -0.0942 C.ar    1  UNL1       -0.0236
     18 C           3.0534   -0.2238   -1.4498 C.ar    1  UNL1       -0.0534
     19 C           3.5422    0.9220   -2.0551 C.ar    1  UNL1       -0.0160
     20 C           3.8511    2.0445   -1.3149 C.ar    1  UNL1        0.1615
     21 O           4.3484    3.2034   -1.9269 O.3     1  UNL1       -0.4915
     22 C           4.5224    3.1595   -3.3497 C.3     1  UNL1        0.0790
     23 C           3.6491    1.9696    0.0538 C.ar    1  UNL1        0.1618
     24 O           3.9537    3.0813    0.8181 O.3     1  UNL1       -0.4914
     25 C           3.7776    3.0839    2.2231 C.3     1  UNL1        0.0790
     26 C           3.1566    0.8146    0.6463 C.ar    1  UNL1       -0.0116
     27 C           3.0329   -1.8026    1.8626 C.3     1  UNL1       -0.0242
     28 C           2.8150   -3.1608    2.4541 C.3     1  UNL1       -0.0609
     29 C           4.4945   -1.5283    1.8382 C.3     1  UNL1       -0.0609
     30 C          -4.8053    0.5651   -0.2711 C.ar    1  UNL1       -0.0131
     31 C          -4.8528    1.5877   -1.1879 C.ar    1  UNL1        0.1617
     32 O          -5.5935    2.6665   -1.0799 O.3     1  UNL1       -0.4914
     33 C          -6.4641    3.3461   -0.2974 C.3     1  UNL1        0.0790
     34 H          -3.1641    1.5030   -4.8868 H       1  UNL1        0.0660
     35 H          -3.7860    3.1916   -5.2120 H       1  UNL1        0.0660
     36 H          -2.3090    2.9685   -4.2733 H       1  UNL1        0.0660
     37 H          -2.6211    0.2910   -3.3660 H       1  UNL1        0.0655
     38 H          -2.5875   -1.4923   -1.7216 H       1  UNL1        0.0621
     39 H          -3.8618   -2.6010    0.0909 H       1  UNL1        0.0326
     40 H          -5.1675   -1.7811    0.9226 H       1  UNL1        0.0326
     41 H          -3.5173   -0.4808    2.3858 H       1  UNL1        0.0430
     42 H          -3.6075   -2.2717    2.6161 H       1  UNL1        0.0430
     43 H          -0.5022   -1.9068    3.3433 H       1  UNL1        0.0391
     44 H          -2.0299   -1.1090    3.7458 H       1  UNL1        0.0391
     45 H          -0.8519   -0.1342    2.8821 H       1  UNL1        0.0391
     46 H          -1.8331   -3.5531    1.4684 H       1  UNL1        0.0426
     47 H          -1.6621   -2.6206   -0.0143 H       1  UNL1        0.0426
     48 H           0.4230   -3.1122    2.1342 H       1  UNL1        0.0278
     49 H           0.4045   -3.6818    0.4826 H       1  UNL1        0.0278
     50 H           0.4651   -0.6909    1.0487 H       1  UNL1        0.0284
     51 H           0.5509   -1.5532   -0.5532 H       1  UNL1        0.0284
     52 H           2.8092   -1.1134   -2.0473 H       1  UNL1        0.0622
     53 H           3.6874    0.9440   -3.1352 H       1  UNL1        0.0655
     54 H           5.1357    2.2603   -3.6468 H       1  UNL1        0.0660
     55 H           4.9696    4.0946   -3.7268 H       1  UNL1        0.0660
     56 H           3.5403    3.0299   -3.8407 H       1  UNL1        0.0660
     57 H           4.4013    3.8945    2.7010 H       1  UNL1        0.0660
     58 H           4.0871    2.1534    2.7050 H       1  UNL1        0.0660
     59 H           2.6990    3.2554    2.5087 H       1  UNL1        0.0660
     60 H           2.9993    0.7679    1.7274 H       1  UNL1        0.0658
     61 H           2.5607   -1.0413    2.5437 H       1  UNL1        0.0314
     62 H           2.5109   -3.8214    1.6221 H       1  UNL1        0.0233
     63 H           3.8684   -3.5899    2.7124 H       1  UNL1        0.0233
     64 H           2.2207   -3.2085    3.3652 H       1  UNL1        0.0233
     65 H           5.0358   -2.5038    1.7815 H       1  UNL1        0.0233
     66 H           4.8528   -0.8010    1.1114 H       1  UNL1        0.0233
     67 H           4.7814   -1.1225    2.8566 H       1  UNL1        0.0233
     68 H          -5.4279    0.6209    0.6417 H       1  UNL1        0.0658
     69 H          -7.4753    3.5543   -0.7070 H       1  UNL1        0.0660
     70 H          -6.6234    2.8503    0.7079 H       1  UNL1        0.0660
     71 H          -5.9966    4.3358   -0.0101 H       1  UNL1        0.0660
@<TRIPOS>BOND
     1     1     2    1
     2     2     3    1
     3     3     4   ar
     4     4     5   ar
     5     5     6   ar
     6     6     7    1
     7     7     8    1
     8     8     9    1
     9     9    10    1
    10     9    11    1
    11    11    12    1
    12    12    13    1
    13    13    14    1
    14    14    15    1
    15    15    16    3
    16    14    17    1
    17    17    18   ar
    18    18    19   ar
    19    19    20   ar
    20    20    21    1
    21    21    22    1
    22    20    23   ar
    23    23    24    1
    24    24    25    1
    25    23    26   ar
    26    14    27    1
    27    27    28    1
    28    27    29    1
    29     6    30   ar
    30    30    31   ar
    31    31    32    1
    32    32    33    1
    33    31     3   ar
    34    26    17   ar
    35     1    34    1
    36     1    35    1
    37     1    36    1
    38     4    37    1
    39     5    38    1
    40     7    39    1
    41     7    40    1
    42     8    41    1
    43     8    42    1
    44    10    43    1
    45    10    44    1
    46    10    45    1
    47    11    46    1
    48    11    47    1
    49    12    48    1
    50    12    49    1
    51    13    50    1
    52    13    51    1
    53    18    52    1
    54    19    53    1
    55    22    54    1
    56    22    55    1
    57    22    56    1
    58    25    57    1
    59    25    58    1
    60    25    59    1
    61    26    60    1
    62    27    61    1
    63    28    62    1
    64    28    63    1
    65    28    64    1
    66    29    65    1
    67    29    66    1
    68    29    67    1
    69    30    68    1
    70    33    69    1
    71    33    70    1
    72    33    71    1
