@<TRIPOS>MOLECULE
*****
 62 64 0 0 0
SMALL
GASTEIGER

@<TRIPOS>ATOM
      1 C           9.0458    4.2214   -0.5384 C.3     1  UNL1       -0.0025
      2 C           8.5053    3.0908   -1.2840 C.1     1  UNL1       -0.1022
      3 C           8.0617    2.1148   -1.9270 C.1     1  UNL1       -0.0617
      4 C           7.5654    0.9979   -2.6863 C.3     1  UNL1        0.1499
      5 O           6.2409    0.9645   -2.9527 O.3     1  UNL1       -0.4795
      6 C           5.0693    0.8816   -2.3594 C.ar    1  UNL1        0.1220
      7 C           3.8647    0.9209   -3.0835 C.ar    1  UNL1       -0.0181
      8 C           2.6267    0.8441   -2.5168 C.ar    1  UNL1       -0.0334
      9 C           2.5490    0.7160   -1.1356 C.ar    1  UNL1        0.0884
     10 S           0.9918    0.6777   -0.3827 S.O2    1  UNL1       -0.0021
     11 O           0.0182    1.4321   -1.2645 O.2     1  UNL1       -0.1693
     12 O           1.1188    1.4588    0.9135 O.2     1  UNL1       -0.1693
     13 C           0.4893   -0.9843   -0.1410 C.3     1  UNL1        0.0849
     14 C          -0.9071   -1.0925    0.4432 C.3     1  UNL1        0.0709
     15 C          -1.8678   -0.4071   -0.5016 C.2     1  UNL1        0.2433
     16 O          -2.5318    0.5300   -0.0432 O.2     1  UNL1       -0.2731
     17 N          -2.0260   -0.7917   -1.8543 N.am    1  UNL1       -0.1970
     18 O          -2.9369   -0.0967   -2.6276 O.3     1  UNL1       -0.2952
     19 C          -0.9843   -0.4344    1.7933 C.3     1  UNL1       -0.0229
     20 C          -2.3231   -0.6402    2.4838 C.3     1  UNL1        0.0215
     21 N          -2.8829   -1.8858    2.1485 N.3     1  UNL1       -0.1764
     22 S          -4.5151   -2.1502    2.4400 S.O2    1  UNL1        0.0659
     23 O          -4.7934   -1.8588    3.9151 O.2     1  UNL1       -0.1527
     24 O          -4.9703   -3.5750    2.2410 O.2     1  UNL1       -0.1527
     25 C          -5.4355   -1.0136    1.4908 C.ar    1  UNL1        0.1696
     26 C          -5.9003   -1.2737    0.2060 C.ar    1  UNL1        0.1071
     27 C          -5.7379   -2.5051   -0.6065 C.3     1  UNL1       -0.0171
     28 N          -6.5255   -0.1821   -0.1763 N.ar    1  UNL1       -0.0813
     29 O          -6.4770    0.7430    0.8049 O.2     1  UNL1       -0.3576
     30 C          -5.8041    0.2355    1.8298 C.ar    1  UNL1        0.1607
     31 C          -5.5485    1.0140    3.1077 C.3     1  UNL1       -0.0017
     32 C          -2.0714   -2.9392    1.7260 C.3     1  UNL1        0.0215
     33 C          -1.2509   -2.5516    0.4995 C.3     1  UNL1       -0.0229
     34 C           3.6940    0.6727   -0.4236 C.ar    1  UNL1       -0.0334
     35 C           4.9376    0.7477   -0.9693 C.ar    1  UNL1       -0.0181
     36 H           8.2453    4.9831   -0.4932 H       1  UNL1        0.0362
     37 H           9.3219    3.9396    0.4971 H       1  UNL1        0.0362
     38 H           9.9510    4.6296   -1.0706 H       1  UNL1        0.0362
     39 H           8.1442    1.0654   -3.7074 H       1  UNL1        0.0837
     40 H           7.9312    0.0412   -2.2147 H       1  UNL1        0.0837
     41 H           3.9992    1.0090   -4.1792 H       1  UNL1        0.0655
     42 H           1.7172    0.8835   -3.1431 H       1  UNL1        0.0638
     43 H           1.1859   -1.4451    0.6031 H       1  UNL1        0.0514
     44 H           0.5728   -1.5308   -1.0771 H       1  UNL1        0.0514
     45 H          -1.4721   -1.5550   -2.2616 H       1  UNL1        0.1822
     46 H          -2.7751   -0.3536   -3.5763 H       1  UNL1        0.2414
     47 H          -0.8707    0.6757    1.6364 H       1  UNL1        0.0289
     48 H          -0.1962   -0.7765    2.4847 H       1  UNL1        0.0289
     49 H          -2.1758   -0.5526    3.5882 H       1  UNL1        0.0444
     50 H          -3.0029    0.1731    2.1525 H       1  UNL1        0.0444
     51 H          -6.0989   -3.4182   -0.1025 H       1  UNL1        0.0294
     52 H          -6.2148   -2.3545   -1.5917 H       1  UNL1        0.0294
     53 H          -4.6426   -2.6759   -0.8195 H       1  UNL1        0.0294
     54 H          -4.6481    1.6914    2.9459 H       1  UNL1        0.0309
     55 H          -5.3215    0.3282    3.9111 H       1  UNL1        0.0309
     56 H          -6.4286    1.6634    3.2670 H       1  UNL1        0.0309
     57 H          -2.6260   -3.8719    1.5674 H       1  UNL1        0.0444
     58 H          -1.3040   -3.1451    2.5266 H       1  UNL1        0.0444
     59 H          -0.2801   -3.1220    0.5652 H       1  UNL1        0.0289
     60 H          -1.7839   -2.8024   -0.4208 H       1  UNL1        0.0289
     61 H           3.6404    0.5641    0.6777 H       1  UNL1        0.0638
     62 H           5.8432    0.7230   -0.3339 H       1  UNL1        0.0655
@<TRIPOS>BOND
     1     1     2    1
     2     2     3    3
     3     3     4    1
     4     4     5    1
     5     5     6    1
     6     6     7   ar
     7     7     8   ar
     8     8     9   ar
     9     9    10    1
    10    10    11    2
    11    10    12    2
    12    10    13    1
    13    13    14    1
    14    14    15    1
    15    15    16    2
    16    15    17   am
    17    17    18    1
    18    14    19    1
    19    19    20    1
    20    20    21    1
    21    21    22    1
    22    22    23    2
    23    22    24    2
    24    22    25    1
    25    25    26   ar
    26    26    27    1
    27    26    28   ar
    28    28    29   ar
    29    29    30   ar
    30    30    31    1
    31    21    32    1
    32    32    33    1
    33     9    34   ar
    34    34    35   ar
    35    35     6   ar
    36    33    14    1
    37    30    25   ar
    38     1    36    1
    39     1    37    1
    40     1    38    1
    41     4    39    1
    42     4    40    1
    43     7    41    1
    44     8    42    1
    45    13    43    1
    46    13    44    1
    47    17    45    1
    48    18    46    1
    49    19    47    1
    50    19    48    1
    51    20    49    1
    52    20    50    1
    53    27    51    1
    54    27    52    1
    55    27    53    1
    56    31    54    1
    57    31    55    1
    58    31    56    1
    59    32    57    1
    60    32    58    1
    61    33    59    1
    62    33    60    1
    63    34    61    1
    64    35    62    1
