
     RDKit          3D

 55 59  0  0  0  0  0  0  0  0999 V2000
   -1.2070   -2.3834   -3.6563 C   0  0  0  0  0  0  0  0  0  0  0  0
   -0.5345   -1.6083   -2.5146 C   0  0  2  0  0  0  0  0  0  0  0  0
   -1.6424   -0.8726   -1.7961 C   0  0  0  0  0  0  0  0  0  0  0  0
   -1.0718    0.2393   -1.0072 N   0  0  0  0  0  0  0  0  0  0  0  0
   -1.9701    1.1559   -0.4343 C   0  0  0  0  0  0  0  0  0  0  0  0
   -1.5262    2.1144    0.2473 O   0  0  0  0  0  0  0  0  0  0  0  0
   -3.4343    1.0035   -0.6263 C   0  0  0  0  0  0  0  0  0  0  0  0
   -4.0931    1.5842   -1.6895 C   0  0  0  0  0  0  0  0  0  0  0  0
   -5.4543    1.4347   -1.8572 C   0  0  0  0  0  0  0  0  0  0  0  0
   -6.1275    0.6809   -0.9178 C   0  0  0  0  0  0  0  0  0  0  0  0
   -5.4591    0.1037    0.1431 C   0  0  0  0  0  0  0  0  0  0  0  0
   -4.0980    0.2488    0.3173 C   0  0  0  0  0  0  0  0  0  0  0  0
   -3.3972   -0.3413    1.4089 N   0  0  0  0  0  0  0  0  0  0  0  0
   -2.4821    0.1978    2.1954 N   0  0  0  0  0  0  0  0  0  0  0  0
   -2.0446   -0.6724    3.1220 C   0  0  0  0  0  0  0  0  0  0  0  0
   -2.7459   -1.8367    2.8860 C   0  0  0  0  0  0  0  0  0  0  0  0
   -3.5537   -1.5913    1.8395 N   0  0  0  0  0  0  0  0  0  0  0  0
    0.3620    0.2252   -0.9328 C   0  0  2  0  0  0  0  0  0  0  0  0
    0.9491    1.2498   -0.0159 C   0  0  0  0  0  0  0  0  0  0  0  0
    2.4098    1.2548    0.0830 C   0  0  0  0  0  0  0  0  0  0  0  0
    3.0289    0.6021    1.1359 C   0  0  0  0  0  0  0  0  0  0  0  0
    4.4110    0.5530    1.2691 C   0  0  0  0  0  0  0  0  0  0  0  0
    4.9921   -0.1272    2.3621 N   0  0  0  0  0  0  0  0  0  0  0  0
    4.4945   -0.1243    3.5847 N   0  0  0  0  0  0  0  0  0  0  0  0
    5.3278   -0.8772    4.3259 C   0  0  0  0  0  0  0  0  0  0  0  0
    6.3278   -1.3238    3.5117 C   0  0  0  0  0  0  0  0  0  0  0  0
    6.1001   -0.8420    2.2799 N   0  0  0  0  0  0  0  0  0  0  0  0
    5.2149    1.1662    0.3360 C   0  0  0  0  0  0  0  0  0  0  0  0
    4.6243    1.8155   -0.7096 C   0  0  0  0  0  0  0  0  0  0  0  0
    3.2295    1.8607   -0.8363 C   0  0  0  0  0  0  0  0  0  0  0  0
    2.7313    2.5466   -1.8888 F   0  0  0  0  0  0  0  0  0  0  0  0
    0.9043    0.2284   -2.3301 C   0  0  0  0  0  0  0  0  0  0  0  0
    0.3930   -0.7923   -3.0811 O   0  0  0  0  0  0  0  0  0  0  0  0
   -2.2504   -2.6103   -3.3649 H   0  0  0  0  0  0  0  0  0  0  0  0
   -0.6778   -3.3032   -3.9046 H   0  0  0  0  0  0  0  0  0  0  0  0
   -1.2055   -1.7281   -4.5569 H   0  0  0  0  0  0  0  0  0  0  0  0
   -0.0358   -2.3603   -1.8634 H   0  0  0  0  0  0  0  0  0  0  0  0
   -2.0786   -1.5593   -1.0416 H   0  0  0  0  0  0  0  0  0  0  0  0
   -2.4193   -0.5339   -2.4809 H   0  0  0  0  0  0  0  0  0  0  0  0
   -3.5461    2.1708   -2.4140 H   0  0  0  0  0  0  0  0  0  0  0  0
   -6.0045    1.8742   -2.6766 H   0  0  0  0  0  0  0  0  0  0  0  0
   -7.2075    0.5516   -1.0346 H   0  0  0  0  0  0  0  0  0  0  0  0
   -5.9974   -0.4936    0.8861 H   0  0  0  0  0  0  0  0  0  0  0  0
   -1.2904   -0.4961    3.9012 H   0  0  0  0  0  0  0  0  0  0  0  0
   -2.6268   -2.7470    3.4671 H   0  0  0  0  0  0  0  0  0  0  0  0
    0.6422   -0.8120   -0.5281 H   0  0  0  0  0  0  0  0  0  0  0  0
    0.6175    2.2547   -0.4336 H   0  0  0  0  0  0  0  0  0  0  0  0
    0.4457    1.1398    0.9660 H   0  0  0  0  0  0  0  0  0  0  0  0
    2.4192    0.1137    1.8802 H   0  0  0  0  0  0  0  0  0  0  0  0
    5.1771   -1.0571    5.3698 H   0  0  0  0  0  0  0  0  0  0  0  0
    7.1683   -1.9497    3.7615 H   0  0  0  0  0  0  0  0  0  0  0  0
    6.3032    1.1516    0.4028 H   0  0  0  0  0  0  0  0  0  0  0  0
    5.2196    2.3091   -1.4632 H   0  0  0  0  0  0  0  0  0  0  0  0
    2.0178    0.0366   -2.2812 H   0  0  0  0  0  0  0  0  0  0  0  0
    0.6710    1.1759   -2.8696 H   0  0  0  0  0  0  0  0  0  0  0  0
  1  2  1  0
  2  3  1  0
  3  4  1  0
  4  5  1  0
  5  6  2  0
  5  7  1  0
  7  8  2  0
  8  9  1  0
  9 10  2  0
 10 11  1  0
 11 12  2  0
 12 13  1  0
 13 14  1  0
 14 15  2  0
 15 16  1  0
 16 17  2  0
  4 18  1  0
 18 19  1  0
 19 20  1  0
 20 21  2  0
 21 22  1  0
 22 23  1  0
 23 24  1  0
 24 25  2  0
 25 26  1  0
 26 27  2  0
 22 28  2  0
 28 29  1  0
 29 30  2  0
 30 31  1  0
 18 32  1  0
 32 33  1  0
 33  2  1  0
 12  7  1  0
 17 13  1  0
 30 20  1  0
 27 23  1  0
  1 34  1  0
  1 35  1  0
  1 36  1  0
  2 37  1  1
  3 38  1  0
  3 39  1  0
  8 40  1  0
  9 41  1  0
 10 42  1  0
 11 43  1  0
 15 44  1  0
 16 45  1  0
 18 46  1  1
 19 47  1  0
 19 48  1  0
 21 49  1  0
 25 50  1  0
 26 51  1  0
 28 52  1  0
 29 53  1  0
 32 54  1  0
 32 55  1  0
M  END
$$$$
