@<TRIPOS>MOLECULE
*****
 55 59 0 0 0
SMALL
GASTEIGER

@<TRIPOS>ATOM
      1 C          -1.2070   -2.3834   -3.6563 C.3     1  UNL1       -0.0372
      2 C          -0.5345   -1.6083   -2.5146 C.3     1  UNL1        0.0717
      3 C          -1.6424   -0.8726   -1.7961 C.3     1  UNL1        0.0414
      4 N          -1.0718    0.2393   -1.0072 N.am    1  UNL1       -0.2895
      5 C          -1.9701    1.1559   -0.4343 C.2     1  UNL1        0.2491
      6 O          -1.5262    2.1144    0.2473 O.2     1  UNL1       -0.2699
      7 C          -3.4343    1.0035   -0.6263 C.ar    1  UNL1        0.0640
      8 C          -4.0931    1.5842   -1.6895 C.ar    1  UNL1       -0.0475
      9 C          -5.4543    1.4347   -1.8572 C.ar    1  UNL1       -0.0609
     10 C          -6.1275    0.6809   -0.9178 C.ar    1  UNL1       -0.0597
     11 C          -5.4591    0.1037    0.1431 C.ar    1  UNL1       -0.0338
     12 C          -4.0980    0.2488    0.3173 C.ar    1  UNL1        0.0982
     13 N          -3.3972   -0.3413    1.4089 N.ar    1  UNL1       -0.1496
     14 N          -2.4821    0.1978    2.1954 N.ar    1  UNL1       -0.1556
     15 C          -2.0446   -0.6724    3.1220 C.ar    1  UNL1        0.0697
     16 C          -2.7459   -1.8367    2.8860 C.ar    1  UNL1        0.0697
     17 N          -3.5537   -1.5913    1.8395 N.ar    1  UNL1       -0.1556
     18 C           0.3620    0.2252   -0.9328 C.3     1  UNL1        0.0538
     19 C           0.9491    1.2498   -0.0159 C.3     1  UNL1       -0.0040
     20 C           2.4098    1.2548    0.0830 C.ar    1  UNL1       -0.0083
     21 C           3.0289    0.6021    1.1359 C.ar    1  UNL1       -0.0286
     22 C           4.4110    0.5530    1.2691 C.ar    1  UNL1        0.0866
     23 N           4.9921   -0.1272    2.3621 N.ar    1  UNL1       -0.1503
     24 N           4.4945   -0.1243    3.5847 N.ar    1  UNL1       -0.1556
     25 C           5.3278   -0.8772    4.3259 C.ar    1  UNL1        0.0697
     26 C           6.3278   -1.3238    3.5117 C.ar    1  UNL1        0.0697
     27 N           6.1001   -0.8420    2.2799 N.ar    1  UNL1       -0.1556
     28 C           5.2149    1.1662    0.3360 C.ar    1  UNL1       -0.0318
     29 C           4.6243    1.8155   -0.7096 C.ar    1  UNL1       -0.0241
     30 C           3.2295    1.8607   -0.8363 C.ar    1  UNL1        0.1267
     31 F           2.7313    2.5466   -1.8888 F       1  UNL1       -0.2052
     32 C           0.9043    0.2284   -2.3301 C.3     1  UNL1        0.0669
     33 O           0.3930   -0.7923   -3.0811 O.3     1  UNL1       -0.3734
     34 H          -2.2504   -2.6103   -3.3649 H       1  UNL1        0.0255
     35 H          -0.6778   -3.3032   -3.9046 H       1  UNL1        0.0255
     36 H          -1.2055   -1.7281   -4.5569 H       1  UNL1        0.0255
     37 H          -0.0358   -2.3603   -1.8634 H       1  UNL1        0.0609
     38 H          -2.0786   -1.5593   -1.0416 H       1  UNL1        0.0490
     39 H          -2.4193   -0.5339   -2.4809 H       1  UNL1        0.0490
     40 H          -3.5461    2.1708   -2.4140 H       1  UNL1        0.0626
     41 H          -6.0045    1.8742   -2.6766 H       1  UNL1        0.0618
     42 H          -7.2075    0.5516   -1.0346 H       1  UNL1        0.0618
     43 H          -5.9974   -0.4936    0.8861 H       1  UNL1        0.0639
     44 H          -1.2904   -0.4961    3.9012 H       1  UNL1        0.0864
     45 H          -2.6268   -2.7470    3.4671 H       1  UNL1        0.0864
     46 H           0.6422   -0.8120   -0.5281 H       1  UNL1        0.0526
     47 H           0.6175    2.2547   -0.4336 H       1  UNL1        0.0333
     48 H           0.4457    1.1398    0.9660 H       1  UNL1        0.0333
     49 H           2.4192    0.1137    1.8802 H       1  UNL1        0.0643
     50 H           5.1771   -1.0571    5.3698 H       1  UNL1        0.0864
     51 H           7.1683   -1.9497    3.7615 H       1  UNL1        0.0864
     52 H           6.3032    1.1516    0.4028 H       1  UNL1        0.0640
     53 H           5.2196    2.3091   -1.4632 H       1  UNL1        0.0647
     54 H           2.0178    0.0366   -2.2812 H       1  UNL1        0.0578
     55 H           0.6710    1.1759   -2.8696 H       1  UNL1        0.0578
@<TRIPOS>BOND
     1     1     2    1
     2     2     3    1
     3     3     4    1
     4     4     5   am
     5     5     6    2
     6     5     7    1
     7     7     8   ar
     8     8     9   ar
     9     9    10   ar
    10    10    11   ar
    11    11    12   ar
    12    12    13    1
    13    13    14   ar
    14    14    15   ar
    15    15    16   ar
    16    16    17   ar
    17     4    18    1
    18    18    19    1
    19    19    20    1
    20    20    21   ar
    21    21    22   ar
    22    22    23    1
    23    23    24   ar
    24    24    25   ar
    25    25    26   ar
    26    26    27   ar
    27    22    28   ar
    28    28    29   ar
    29    29    30   ar
    30    30    31    1
    31    18    32    1
    32    32    33    1
    33    33     2    1
    34    12     7   ar
    35    17    13   ar
    36    30    20   ar
    37    27    23   ar
    38     1    34    1
    39     1    35    1
    40     1    36    1
    41     2    37    1
    42     3    38    1
    43     3    39    1
    44     8    40    1
    45     9    41    1
    46    10    42    1
    47    11    43    1
    48    15    44    1
    49    16    45    1
    50    18    46    1
    51    19    47    1
    52    19    48    1
    53    21    49    1
    54    25    50    1
    55    26    51    1
    56    28    52    1
    57    29    53    1
    58    32    54    1
    59    32    55    1
