@<TRIPOS>MOLECULE
*****
 44 46 0 0 0
SMALL
GASTEIGER

@<TRIPOS>ATOM
      1 C           2.9106   -0.9283   -1.9910 C.3     1  UNL1        0.0021
      2 N           3.3060   -0.2757   -0.7442 N.pl3   1  UNL1       -0.3150
      3 C           2.2502    0.1467    0.1327 C.3     1  UNL1        0.0474
      4 C           1.5488   -1.0769    0.7308 C.3     1  UNL1        0.1052
      5 O           0.5103   -0.7031    1.5587 O.3     1  UNL1       -0.4904
      6 C          -0.6556   -0.1051    1.1622 C.ar    1  UNL1        0.1206
      7 C          -0.9369    0.1301   -0.1575 C.ar    1  UNL1       -0.0197
      8 C          -2.1323    0.7511   -0.5378 C.ar    1  UNL1       -0.0548
      9 C          -3.0505    1.1371    0.4038 C.ar    1  UNL1       -0.0422
     10 C          -4.3064    1.7731   -0.0229 C.3     1  UNL1        0.0090
     11 C          -5.4067    0.8568    0.1326 C.ar    1  UNL1        0.0584
     12 S          -6.6139    0.9158    1.4977 S.2     1  UNL1       -0.0276
     13 C          -7.5775   -0.5190    0.9539 C.ar    1  UNL1        0.2910
     14 O          -8.6179   -1.0169    1.5258 O.2     1  UNL1       -0.2596
     15 N          -6.9095   -0.9039   -0.1906 N.ar    1  UNL1       -0.2873
     16 C          -5.8751   -0.2340   -0.5667 C.ar    1  UNL1        0.2037
     17 O          -5.1269   -0.5953   -1.7718 O.3     1  UNL1       -0.4930
     18 C          -2.7546    0.8919    1.7431 C.ar    1  UNL1       -0.0548
     19 C          -1.5972    0.2888    2.1464 C.ar    1  UNL1       -0.0197
     20 C           4.6772   -0.0564   -0.4516 C.ar    1  UNL1        0.1211
     21 C           5.1941    0.3674    0.7385 C.ar    1  UNL1       -0.0217
     22 C           6.5588    0.5941    0.9500 C.ar    1  UNL1       -0.0571
     23 C           7.4091    0.3743   -0.1043 C.ar    1  UNL1       -0.0435
     24 C           6.8806   -0.0527   -1.2982 C.ar    1  UNL1        0.0297
     25 N           5.5806   -0.2561   -1.4575 N.ar    1  UNL1       -0.2403
     26 H           3.0687   -2.0126   -1.9730 H       1  UNL1        0.0428
     27 H           3.4232   -0.4526   -2.8734 H       1  UNL1        0.0428
     28 H           1.8350   -0.7366   -2.1433 H       1  UNL1        0.0428
     29 H           1.5440    0.8230   -0.3416 H       1  UNL1        0.0497
     30 H           2.7563    0.6797    1.0067 H       1  UNL1        0.0497
     31 H           1.2432   -1.7371   -0.1322 H       1  UNL1        0.0712
     32 H           2.3318   -1.6754    1.2956 H       1  UNL1        0.0712
     33 H          -0.2915   -0.1705   -0.9603 H       1  UNL1        0.0654
     34 H          -2.3071    0.9155   -1.6016 H       1  UNL1        0.0622
     35 H          -4.2386    2.0661   -1.0904 H       1  UNL1        0.0368
     36 H          -4.4728    2.6631    0.6185 H       1  UNL1        0.0368
     37 H          -7.2862   -1.7627   -0.7332 H       1  UNL1        0.1723
     38 H          -5.5941   -1.0393   -2.5237 H       1  UNL1        0.2937
     39 H          -3.4700    1.1889    2.5074 H       1  UNL1        0.0622
     40 H          -1.3325    0.0795    3.1810 H       1  UNL1        0.0654
     41 H           4.5488    0.5371    1.5863 H       1  UNL1        0.0652
     42 H           6.9260    0.9269    1.9053 H       1  UNL1        0.0619
     43 H           8.4802    0.5369    0.0076 H       1  UNL1        0.0633
     44 H           7.5701   -0.2199   -2.1177 H       1  UNL1        0.0830
@<TRIPOS>BOND
     1     1     2    1
     2     2     3    1
     3     3     4    1
     4     4     5    1
     5     5     6    1
     6     6     7   ar
     7     7     8   ar
     8     8     9   ar
     9     9    10    1
    10    10    11    1
    11    11    12   ar
    12    12    13   ar
    13    13    14    2
    14    13    15   ar
    15    15    16   ar
    16    16    17    1
    17     9    18   ar
    18    18    19   ar
    19     2    20    1
    20    20    21   ar
    21    21    22   ar
    22    22    23   ar
    23    23    24   ar
    24    24    25   ar
    25    19     6   ar
    26    25    20   ar
    27    16    11   ar
    28     1    26    1
    29     1    27    1
    30     1    28    1
    31     3    29    1
    32     3    30    1
    33     4    31    1
    34     4    32    1
    35     7    33    1
    36     8    34    1
    37    10    35    1
    38    10    36    1
    39    15    37    1
    40    17    38    1
    41    18    39    1
    42    19    40    1
    43    21    41    1
    44    22    42    1
    45    23    43    1
    46    24    44    1
