@<TRIPOS>MOLECULE
*****
 71 75 0 0 0
SMALL
GASTEIGER

@<TRIPOS>ATOM
      1 C          -4.7404   -4.7260   -0.6107 C.3     1  UNL1        0.0365
      2 O          -4.3561   -3.3780   -0.7156 O.3     1  UNL1       -0.3809
      3 C          -5.2043   -2.5961    0.0882 C.3     1  UNL1        0.0714
      4 C          -4.7933   -1.1454   -0.0079 C.3     1  UNL1        0.1112
      5 C          -3.3769   -1.0578    0.4674 C.2     1  UNL1        0.2367
      6 O          -3.1310   -0.6962    1.6530 O.2     1  UNL1       -0.2737
      7 N          -2.3550   -1.3874   -0.4470 N.am    1  UNL1       -0.2824
      8 C          -0.9853   -1.3476   -0.1131 C.ar    1  UNL1        0.0576
      9 C          -0.3227   -2.4943    0.2326 C.ar    1  UNL1       -0.0384
     10 C           1.0350   -2.5066    0.5686 C.ar    1  UNL1       -0.0593
     11 C           1.6511   -1.2653    0.5236 C.ar    1  UNL1       -0.0518
     12 C           1.0246   -0.0960    0.1845 C.ar    1  UNL1        0.0107
     13 C           1.4233    1.2205    0.0811 C.ar    1  UNL1        0.0256
     14 C           2.7696    1.7383    0.3211 C.ar    1  UNL1        0.0780
     15 C           3.0472    3.0831    0.2272 C.ar    1  UNL1       -0.0173
     16 C           4.3458    3.4883    0.4385 C.ar    1  UNL1        0.0332
     17 N           5.2803    2.5705    0.7243 N.ar    1  UNL1       -0.2226
     18 C           5.0251    1.2577    0.8195 C.ar    1  UNL1        0.2201
     19 N           6.0360    0.3048    1.0710 N.pl3   1  UNL1       -0.2782
     20 C           7.2688    0.4876    0.3431 C.ar    1  UNL1        0.1152
     21 C           7.5760    1.4518   -0.5920 C.ar    1  UNL1        0.0503
     22 N           8.8335    1.2628   -1.0581 N.ar    1  UNL1       -0.2692
     23 C           9.4600    2.1011   -2.0571 C.3     1  UNL1        0.0304
     24 N           9.3201    0.2217   -0.4508 N.ar    1  UNL1       -0.1317
     25 C           8.4068   -0.2949    0.4184 C.ar    1  UNL1        0.2552
     26 O           8.5668   -1.4030    1.2409 O.3     1  UNL1       -0.4774
     27 C           9.7797   -2.1013    1.2079 C.3     1  UNL1        0.0805
     28 N           3.7608    0.8686    0.6139 N.ar    1  UNL1       -0.2142
     29 C           0.3142    1.9379   -0.2995 C.ar    1  UNL1        0.0120
     30 N          -0.7454    1.1248   -0.4357 N.ar    1  UNL1       -0.3586
     31 C          -0.3382   -0.1255   -0.1459 C.ar    1  UNL1        0.0686
     32 N          -5.6208   -0.3473    0.8390 N.3     1  UNL1       -0.2873
     33 C          -5.2675    1.0602    0.7679 C.3     1  UNL1        0.0125
     34 C          -6.4398    1.9866    0.7440 C.3     1  UNL1        0.0114
     35 N          -7.4565    1.6719   -0.2086 N.3     1  UNL1       -0.3029
     36 C          -7.4316    2.4503   -1.4084 C.3     1  UNL1       -0.0127
     37 C          -7.6433    0.2594   -0.4443 C.3     1  UNL1        0.0114
     38 C          -7.0219   -0.5160    0.7157 C.3     1  UNL1        0.0125
     39 H          -5.7736   -4.9026   -0.9506 H       1  UNL1        0.0523
     40 H          -4.0358   -5.4156   -1.0957 H       1  UNL1        0.0523
     41 H          -4.6622   -4.9506    0.4965 H       1  UNL1        0.0523
     42 H          -5.1698   -2.9772    1.1203 H       1  UNL1        0.0580
     43 H          -6.2249   -2.7494   -0.3720 H       1  UNL1        0.0580
     44 H          -4.8022   -0.8756   -1.0666 H       1  UNL1        0.0582
     45 H          -2.6313   -1.6755   -1.4281 H       1  UNL1        0.1549
     46 H          -0.8118   -3.4595    0.2655 H       1  UNL1        0.0637
     47 H           1.5658   -3.4015    0.8406 H       1  UNL1        0.0618
     48 H           2.7072   -1.2563    0.7824 H       1  UNL1        0.0624
     49 H           2.2439    3.7589   -0.0061 H       1  UNL1        0.0654
     50 H           4.5697    4.5326    0.3683 H       1  UNL1        0.0831
     51 H           5.8945   -0.4609    1.7310 H       1  UNL1        0.1552
     52 H           6.9151    2.2464   -0.9136 H       1  UNL1        0.0846
     53 H           8.7700    2.1879   -2.9498 H       1  UNL1        0.0473
     54 H          10.3878    1.6866   -2.4511 H       1  UNL1        0.0473
     55 H           9.5303    3.1386   -1.6791 H       1  UNL1        0.0473
     56 H          10.5534   -1.6014    0.6175 H       1  UNL1        0.0660
     57 H          10.1743   -2.2648    2.2459 H       1  UNL1        0.0660
     58 H           9.6784   -3.1338    0.7777 H       1  UNL1        0.0660
     59 H           0.3713    3.0275   -0.4499 H       1  UNL1        0.0814
     60 H          -1.7118    1.3970   -0.7130 H       1  UNL1        0.1654
     61 H          -4.5674    1.2133   -0.0843 H       1  UNL1        0.0439
     62 H          -4.6676    1.2861    1.6835 H       1  UNL1        0.0439
     63 H          -6.0309    2.9958    0.4362 H       1  UNL1        0.0439
     64 H          -6.8146    2.1143    1.7944 H       1  UNL1        0.0439
     65 H          -8.0800    3.3358   -1.2517 H       1  UNL1        0.0391
     66 H          -6.4004    2.8669   -1.5908 H       1  UNL1        0.0391
     67 H          -7.7780    1.8683   -2.2945 H       1  UNL1        0.0391
     68 H          -8.7574    0.0800   -0.3502 H       1  UNL1        0.0439
     69 H          -7.2541   -0.0704   -1.4210 H       1  UNL1        0.0439
     70 H          -7.4995   -0.0654    1.6386 H       1  UNL1        0.0439
     71 H          -7.3829   -1.5389    0.6650 H       1  UNL1        0.0439
@<TRIPOS>BOND
     1     1     2    1
     2     2     3    1
     3     3     4    1
     4     4     5    1
     5     5     6    2
     6     5     7   am
     7     7     8    1
     8     8     9   ar
     9     9    10   ar
    10    10    11   ar
    11    11    12   ar
    12    12    13   ar
    13    13    14    1
    14    14    15   ar
    15    15    16   ar
    16    16    17   ar
    17    17    18   ar
    18    18    19    1
    19    19    20    1
    20    20    21   ar
    21    21    22   ar
    22    22    23    1
    23    22    24   ar
    24    24    25   ar
    25    25    26    1
    26    26    27    1
    27    18    28   ar
    28    13    29   ar
    29    29    30   ar
    30    30    31   ar
    31     4    32    1
    32    32    33    1
    33    33    34    1
    34    34    35    1
    35    35    36    1
    36    35    37    1
    37    37    38    1
    38    31     8   ar
    39    38    32    1
    40    31    12   ar
    41    28    14   ar
    42    25    20   ar
    43     1    39    1
    44     1    40    1
    45     1    41    1
    46     3    42    1
    47     3    43    1
    48     4    44    1
    49     7    45    1
    50     9    46    1
    51    10    47    1
    52    11    48    1
    53    15    49    1
    54    16    50    1
    55    19    51    1
    56    21    52    1
    57    23    53    1
    58    23    54    1
    59    23    55    1
    60    27    56    1
    61    27    57    1
    62    27    58    1
    63    29    59    1
    64    30    60    1
    65    33    61    1
    66    33    62    1
    67    34    63    1
    68    34    64    1
    69    36    65    1
    70    36    66    1
    71    36    67    1
    72    37    68    1
    73    37    69    1
    74    38    70    1
    75    38    71    1
