
     RDKit          3D

 71 75  0  0  0  0  0  0  0  0999 V2000
   -4.7404   -4.7260   -0.6107 C   0  0  0  0  0  0  0  0  0  0  0  0
   -4.3561   -3.3780   -0.7156 O   0  0  0  0  0  0  0  0  0  0  0  0
   -5.2043   -2.5961    0.0882 C   0  0  0  0  0  0  0  0  0  0  0  0
   -4.7933   -1.1454   -0.0079 C   0  0  2  0  0  0  0  0  0  0  0  0
   -3.3769   -1.0578    0.4674 C   0  0  0  0  0  0  0  0  0  0  0  0
   -3.1310   -0.6962    1.6530 O   0  0  0  0  0  0  0  0  0  0  0  0
   -2.3550   -1.3874   -0.4470 N   0  0  0  0  0  0  0  0  0  0  0  0
   -0.9853   -1.3476   -0.1131 C   0  0  0  0  0  0  0  0  0  0  0  0
   -0.3227   -2.4943    0.2326 C   0  0  0  0  0  0  0  0  0  0  0  0
    1.0350   -2.5066    0.5686 C   0  0  0  0  0  0  0  0  0  0  0  0
    1.6511   -1.2653    0.5236 C   0  0  0  0  0  0  0  0  0  0  0  0
    1.0246   -0.0960    0.1845 C   0  0  0  0  0  0  0  0  0  0  0  0
    1.4233    1.2205    0.0811 C   0  0  0  0  0  0  0  0  0  0  0  0
    2.7696    1.7383    0.3211 C   0  0  0  0  0  0  0  0  0  0  0  0
    3.0472    3.0831    0.2272 C   0  0  0  0  0  0  0  0  0  0  0  0
    4.3458    3.4883    0.4385 C   0  0  0  0  0  0  0  0  0  0  0  0
    5.2803    2.5705    0.7243 N   0  0  0  0  0  0  0  0  0  0  0  0
    5.0251    1.2577    0.8195 C   0  0  0  0  0  0  0  0  0  0  0  0
    6.0360    0.3048    1.0710 N   0  0  0  0  0  0  0  0  0  0  0  0
    7.2688    0.4876    0.3431 C   0  0  0  0  0  0  0  0  0  0  0  0
    7.5760    1.4518   -0.5920 C   0  0  0  0  0  0  0  0  0  0  0  0
    8.8335    1.2628   -1.0581 N   0  0  0  0  0  0  0  0  0  0  0  0
    9.4600    2.1011   -2.0571 C   0  0  0  0  0  0  0  0  0  0  0  0
    9.3201    0.2217   -0.4508 N   0  0  0  0  0  0  0  0  0  0  0  0
    8.4068   -0.2949    0.4184 C   0  0  0  0  0  0  0  0  0  0  0  0
    8.5668   -1.4030    1.2409 O   0  0  0  0  0  0  0  0  0  0  0  0
    9.7797   -2.1013    1.2079 C   0  0  0  0  0  0  0  0  0  0  0  0
    3.7608    0.8686    0.6139 N   0  0  0  0  0  0  0  0  0  0  0  0
    0.3142    1.9379   -0.2995 C   0  0  0  0  0  0  0  0  0  0  0  0
   -0.7454    1.1248   -0.4357 N   0  0  0  0  0  0  0  0  0  0  0  0
   -0.3382   -0.1255   -0.1459 C   0  0  0  0  0  0  0  0  0  0  0  0
   -5.6208   -0.3473    0.8390 N   0  0  0  0  0  0  0  0  0  0  0  0
   -5.2675    1.0602    0.7679 C   0  0  0  0  0  0  0  0  0  0  0  0
   -6.4398    1.9866    0.7440 C   0  0  0  0  0  0  0  0  0  0  0  0
   -7.4565    1.6719   -0.2086 N   0  0  0  0  0  0  0  0  0  0  0  0
   -7.4316    2.4503   -1.4084 C   0  0  0  0  0  0  0  0  0  0  0  0
   -7.6433    0.2594   -0.4443 C   0  0  0  0  0  0  0  0  0  0  0  0
   -7.0219   -0.5160    0.7157 C   0  0  0  0  0  0  0  0  0  0  0  0
   -5.7736   -4.9026   -0.9506 H   0  0  0  0  0  0  0  0  0  0  0  0
   -4.0358   -5.4156   -1.0957 H   0  0  0  0  0  0  0  0  0  0  0  0
   -4.6622   -4.9506    0.4965 H   0  0  0  0  0  0  0  0  0  0  0  0
   -5.1698   -2.9772    1.1203 H   0  0  0  0  0  0  0  0  0  0  0  0
   -6.2249   -2.7494   -0.3720 H   0  0  0  0  0  0  0  0  0  0  0  0
   -4.8022   -0.8756   -1.0666 H   0  0  0  0  0  0  0  0  0  0  0  0
   -2.6313   -1.6755   -1.4281 H   0  0  0  0  0  0  0  0  0  0  0  0
   -0.8118   -3.4595    0.2655 H   0  0  0  0  0  0  0  0  0  0  0  0
    1.5658   -3.4015    0.8406 H   0  0  0  0  0  0  0  0  0  0  0  0
    2.7072   -1.2563    0.7824 H   0  0  0  0  0  0  0  0  0  0  0  0
    2.2439    3.7589   -0.0061 H   0  0  0  0  0  0  0  0  0  0  0  0
    4.5697    4.5326    0.3683 H   0  0  0  0  0  0  0  0  0  0  0  0
    5.8945   -0.4609    1.7310 H   0  0  0  0  0  0  0  0  0  0  0  0
    6.9151    2.2464   -0.9136 H   0  0  0  0  0  0  0  0  0  0  0  0
    8.7700    2.1879   -2.9498 H   0  0  0  0  0  0  0  0  0  0  0  0
   10.3878    1.6866   -2.4511 H   0  0  0  0  0  0  0  0  0  0  0  0
    9.5303    3.1386   -1.6791 H   0  0  0  0  0  0  0  0  0  0  0  0
   10.5534   -1.6014    0.6175 H   0  0  0  0  0  0  0  0  0  0  0  0
   10.1743   -2.2648    2.2459 H   0  0  0  0  0  0  0  0  0  0  0  0
    9.6784   -3.1338    0.7777 H   0  0  0  0  0  0  0  0  0  0  0  0
    0.3713    3.0275   -0.4499 H   0  0  0  0  0  0  0  0  0  0  0  0
   -1.7118    1.3970   -0.7130 H   0  0  0  0  0  0  0  0  0  0  0  0
   -4.5674    1.2133   -0.0843 H   0  0  0  0  0  0  0  0  0  0  0  0
   -4.6676    1.2861    1.6835 H   0  0  0  0  0  0  0  0  0  0  0  0
   -6.0309    2.9958    0.4362 H   0  0  0  0  0  0  0  0  0  0  0  0
   -6.8146    2.1143    1.7944 H   0  0  0  0  0  0  0  0  0  0  0  0
   -8.0800    3.3358   -1.2517 H   0  0  0  0  0  0  0  0  0  0  0  0
   -6.4004    2.8669   -1.5908 H   0  0  0  0  0  0  0  0  0  0  0  0
   -7.7780    1.8683   -2.2945 H   0  0  0  0  0  0  0  0  0  0  0  0
   -8.7574    0.0800   -0.3502 H   0  0  0  0  0  0  0  0  0  0  0  0
   -7.2541   -0.0704   -1.4210 H   0  0  0  0  0  0  0  0  0  0  0  0
   -7.4995   -0.0654    1.6386 H   0  0  0  0  0  0  0  0  0  0  0  0
   -7.3829   -1.5389    0.6650 H   0  0  0  0  0  0  0  0  0  0  0  0
  1  2  1  0
  2  3  1  0
  3  4  1  0
  4  5  1  0
  5  6  2  0
  5  7  1  0
  7  8  1  0
  8  9  2  0
  9 10  1  0
 10 11  2  0
 11 12  1  0
 12 13  1  0
 13 14  1  0
 14 15  2  0
 15 16  1  0
 16 17  2  0
 17 18  1  0
 18 19  1  0
 19 20  1  0
 20 21  2  0
 21 22  1  0
 22 23  1  0
 22 24  1  0
 24 25  2  0
 25 26  1  0
 26 27  1  0
 18 28  2  0
 13 29  2  0
 29 30  1  0
 30 31  1  0
  4 32  1  0
 32 33  1  0
 33 34  1  0
 34 35  1  0
 35 36  1  0
 35 37  1  0
 37 38  1  0
 31  8  1  0
 38 32  1  0
 31 12  2  0
 28 14  1  0
 25 20  1  0
  1 39  1  0
  1 40  1  0
  1 41  1  0
  3 42  1  0
  3 43  1  0
  4 44  1  6
  7 45  1  0
  9 46  1  0
 10 47  1  0
 11 48  1  0
 15 49  1  0
 16 50  1  0
 19 51  1  0
 21 52  1  0
 23 53  1  0
 23 54  1  0
 23 55  1  0
 27 56  1  0
 27 57  1  0
 27 58  1  0
 29 59  1  0
 30 60  1  0
 33 61  1  0
 33 62  1  0
 34 63  1  0
 34 64  1  0
 36 65  1  0
 36 66  1  0
 36 67  1  0
 37 68  1  0
 37 69  1  0
 38 70  1  0
 38 71  1  0
M  END
$$$$
