@<TRIPOS>MOLECULE
*****
 43 45 0 0 0
SMALL
GASTEIGER

@<TRIPOS>ATOM
      1 C          -5.4211   -2.0682    0.1802 C.3     1  UNL1        0.0115
      2 N          -4.3714   -1.0742    0.1644 N.am    1  UNL1       -0.2400
      3 C          -3.0290   -1.5233    0.0838 C.2     1  UNL1        0.4123
      4 O          -2.7025   -2.7280    0.0258 O.2     1  UNL1       -0.2254
      5 O          -2.0118   -0.5868    0.0676 O.3     1  UNL1       -0.4112
      6 C          -0.6743   -0.9222   -0.0087 C.ar    1  UNL1        0.1335
      7 C           0.0157   -1.0692   -1.1844 C.ar    1  UNL1       -0.0157
      8 C           1.3542   -1.4069   -1.1727 C.ar    1  UNL1       -0.0158
      9 C           2.0496   -1.6095    0.0169 C.ar    1  UNL1        0.1306
     10 O           3.4007   -1.9495   -0.0084 O.3     1  UNL1       -0.4380
     11 C           4.4100   -1.0146    0.0037 C.ar    1  UNL1        0.2205
     12 C           4.0959    0.3327    0.0426 C.ar    1  UNL1        0.0009
     13 C           5.1824    1.2115    0.0523 C.ar    1  UNL1       -0.0436
     14 C           6.4706    0.7765    0.0253 C.ar    1  UNL1        0.0731
     15 C           7.6224    1.6985    0.0354 C.3     1  UNL1        0.4188
     16 F           8.8086    1.0237    0.0100 F       1  UNL1       -0.1658
     17 F           7.5878    2.4876    1.1766 F       1  UNL1       -0.1658
     18 F           7.5800    2.5829   -1.0468 F       1  UNL1       -0.1658
     19 C           6.7187   -0.5781   -0.0130 C.ar    1  UNL1        0.0430
     20 N           5.6754   -1.4456   -0.0229 N.ar    1  UNL1       -0.2204
     21 C           1.3581   -1.4623    1.2020 C.ar    1  UNL1       -0.0158
     22 C           0.0210   -1.1244    1.1662 C.ar    1  UNL1       -0.0157
     23 C          -4.6884    0.2889    0.2275 C.ar    1  UNL1        0.0391
     24 C          -4.7891    0.9258    1.4389 C.ar    1  UNL1       -0.0402
     25 C          -5.1022    2.2765    1.5281 C.ar    1  UNL1       -0.0600
     26 C          -5.3171    2.9965    0.3777 C.ar    1  UNL1       -0.0616
     27 C          -5.2212    2.3753   -0.8646 C.ar    1  UNL1       -0.0600
     28 C          -4.9031    1.0097   -0.9153 C.ar    1  UNL1       -0.0402
     29 H          -6.3650   -1.6795   -0.2747 H       1  UNL1        0.0434
     30 H          -5.5983   -2.3782    1.2412 H       1  UNL1        0.0434
     31 H          -5.0786   -2.9911   -0.3405 H       1  UNL1        0.0434
     32 H          -0.5343   -0.9094   -2.1089 H       1  UNL1        0.0655
     33 H           1.8668   -1.5145   -2.1171 H       1  UNL1        0.0655
     34 H           3.0830    0.6518    0.0633 H       1  UNL1        0.0671
     35 H           4.9879    2.2816    0.0826 H       1  UNL1        0.0625
     36 H           7.7234   -0.9796   -0.0357 H       1  UNL1        0.0836
     37 H           1.9081   -1.6219    2.1169 H       1  UNL1        0.0655
     38 H          -0.5148   -1.0110    2.1098 H       1  UNL1        0.0655
     39 H          -4.6248    0.3849    2.3759 H       1  UNL1        0.0636
     40 H          -5.1779    2.7621    2.4805 H       1  UNL1        0.0618
     41 H          -5.5576    4.0342    0.4444 H       1  UNL1        0.0618
     42 H          -5.3951    2.9661   -1.7486 H       1  UNL1        0.0618
     43 H          -4.8424    0.5813   -1.9067 H       1  UNL1        0.0636
@<TRIPOS>BOND
     1     1     2    1
     2     2     3   am
     3     3     4    2
     4     3     5    1
     5     5     6    1
     6     6     7   ar
     7     7     8   ar
     8     8     9   ar
     9     9    10    1
    10    10    11    1
    11    11    12   ar
    12    12    13   ar
    13    13    14   ar
    14    14    15    1
    15    15    16    1
    16    15    17    1
    17    15    18    1
    18    14    19   ar
    19    19    20   ar
    20     9    21   ar
    21    21    22   ar
    22     2    23    1
    23    23    24   ar
    24    24    25   ar
    25    25    26   ar
    26    26    27   ar
    27    27    28   ar
    28    22     6   ar
    29    28    23   ar
    30    20    11   ar
    31     1    29    1
    32     1    30    1
    33     1    31    1
    34     7    32    1
    35     8    33    1
    36    12    34    1
    37    13    35    1
    38    19    36    1
    39    21    37    1
    40    22    38    1
    41    24    39    1
    42    25    40    1
    43    26    41    1
    44    27    42    1
    45    28    43    1
