
     RDKit          3D

 59 62  0  0  0  0  0  0  0  0999 V2000
   -5.5555   -3.4929   -3.0367 N   0  0  0  0  0  0  0  0  0  0  0  0
   -5.1220   -2.2030   -2.5863 C   0  0  0  0  0  0  0  0  0  0  0  0
   -6.0938   -1.6432   -1.5642 C   0  0  0  0  0  0  0  0  0  0  0  0
   -5.6398   -0.2387   -1.2406 C   0  0  0  0  0  0  0  0  0  0  0  0
   -4.2875   -0.1715   -0.7993 N   0  0  0  0  0  0  0  0  0  0  0  0
   -4.2236    0.4576    0.4951 C   0  0  0  0  0  0  0  0  0  0  0  0
   -2.8242    0.5739    1.0102 C   0  0  0  0  0  0  0  0  0  0  0  0
   -2.2203   -0.3874    1.7821 C   0  0  0  0  0  0  0  0  0  0  0  0
   -0.9252   -0.1963    2.2123 C   0  0  0  0  0  0  0  0  0  0  0  0
   -0.1826    0.9173    1.9128 C   0  0  0  0  0  0  0  0  0  0  0  0
    1.1905    1.0518    2.4049 C   0  0  0  0  0  0  0  0  0  0  0  0
    1.6731    0.1199    3.1094 O   0  0  0  0  0  0  0  0  0  0  0  0
    2.0032    2.1696    2.1326 N   0  0  0  0  0  0  0  0  0  0  0  0
    3.3206    2.2009    2.6575 C   0  0  0  0  0  0  0  0  0  0  0  0
    3.5749    2.7458    3.8927 C   0  0  0  0  0  0  0  0  0  0  0  0
    4.8787    2.7741    4.4037 C   0  0  0  0  0  0  0  0  0  0  0  0
    5.9129    2.2515    3.6615 C   0  0  0  0  0  0  0  0  0  0  0  0
    7.5631    2.2560    4.2424 Cl  0  0  0  0  0  0  0  0  0  0  0  0
    5.6117    1.7136    2.4251 C   0  0  0  0  0  0  0  0  0  0  0  0
    4.3363    1.6704    1.8925 C   0  0  0  0  0  0  0  0  0  0  0  0
    4.0963    1.0850    0.5805 C   0  0  0  0  0  0  0  0  0  0  0  0
    2.9030    1.0758    0.1604 O   0  0  0  0  0  0  0  0  0  0  0  0
    5.0760    0.5301   -0.2579 N   0  0  0  0  0  0  0  0  0  0  0  0
    4.7784   -0.0328   -1.5407 C   0  0  0  0  0  0  0  0  0  0  0  0
    4.4698   -1.3732   -1.6397 C   0  0  0  0  0  0  0  0  0  0  0  0
    4.1737   -1.9619   -2.8619 C   0  0  0  0  0  0  0  0  0  0  0  0
    4.1974   -1.1632   -3.9785 C   0  0  0  0  0  0  0  0  0  0  0  0
    3.8386   -1.8114   -5.5664 Cl  0  0  0  0  0  0  0  0  0  0  0  0
    4.5101    0.1759   -3.8474 C   0  0  0  0  0  0  0  0  0  0  0  0
    4.7985    0.7391   -2.6411 N   0  0  0  0  0  0  0  0  0  0  0  0
   -0.7855    1.8782    1.1415 C   0  0  0  0  0  0  0  0  0  0  0  0
   -2.0792    1.7102    0.6994 C   0  0  0  0  0  0  0  0  0  0  0  0
   -3.6103   -1.4261   -0.7496 C   0  0  0  0  0  0  0  0  0  0  0  0
   -3.7088   -2.2040   -2.0436 C   0  0  0  0  0  0  0  0  0  0  0  0
   -6.5780   -3.5944   -2.7855 H   0  0  0  0  0  0  0  0  0  0  0  0
   -5.0700   -4.2540   -2.4788 H   0  0  0  0  0  0  0  0  0  0  0  0
   -5.1327   -1.5102   -3.4537 H   0  0  0  0  0  0  0  0  0  0  0  0
   -7.0984   -1.6061   -2.0209 H   0  0  0  0  0  0  0  0  0  0  0  0
   -6.1652   -2.2776   -0.6610 H   0  0  0  0  0  0  0  0  0  0  0  0
   -6.3051    0.1380   -0.4389 H   0  0  0  0  0  0  0  0  0  0  0  0
   -5.8500    0.3898   -2.1322 H   0  0  0  0  0  0  0  0  0  0  0  0
   -4.6457    1.4706    0.5031 H   0  0  0  0  0  0  0  0  0  0  0  0
   -4.7828   -0.1213    1.2828 H   0  0  0  0  0  0  0  0  0  0  0  0
   -2.7867   -1.2707    2.0303 H   0  0  0  0  0  0  0  0  0  0  0  0
   -0.4331   -0.9619    2.8316 H   0  0  0  0  0  0  0  0  0  0  0  0
    1.6296    2.9632    1.5483 H   0  0  0  0  0  0  0  0  0  0  0  0
    2.8148    3.1660    4.5142 H   0  0  0  0  0  0  0  0  0  0  0  0
    5.1086    3.1948    5.3688 H   0  0  0  0  0  0  0  0  0  0  0  0
    6.4292    1.3131    1.8645 H   0  0  0  0  0  0  0  0  0  0  0  0
    6.0539    0.5182    0.0442 H   0  0  0  0  0  0  0  0  0  0  0  0
    4.4643   -1.9561   -0.7371 H   0  0  0  0  0  0  0  0  0  0  0  0
    3.9346   -3.0117   -2.9207 H   0  0  0  0  0  0  0  0  0  0  0  0
    4.5252    0.7909   -4.7296 H   0  0  0  0  0  0  0  0  0  0  0  0
   -0.2709    2.7799    0.8635 H   0  0  0  0  0  0  0  0  0  0  0  0
   -2.5685    2.4769    0.0806 H   0  0  0  0  0  0  0  0  0  0  0  0
   -2.5345   -1.2427   -0.5594 H   0  0  0  0  0  0  0  0  0  0  0  0
   -3.9639   -2.0655    0.1084 H   0  0  0  0  0  0  0  0  0  0  0  0
   -3.4629   -3.2591   -1.8045 H   0  0  0  0  0  0  0  0  0  0  0  0
   -2.9604   -1.8611   -2.7804 H   0  0  0  0  0  0  0  0  0  0  0  0
  1  2  1  0
  2  3  1  0
  3  4  1  0
  4  5  1  0
  5  6  1  0
  6  7  1  0
  7  8  2  0
  8  9  1  0
  9 10  2  0
 10 11  1  0
 11 12  2  0
 11 13  1  0
 13 14  1  0
 14 15  2  0
 15 16  1  0
 16 17  2  0
 17 18  1  0
 17 19  1  0
 19 20  2  0
 20 21  1  0
 21 22  2  0
 21 23  1  0
 23 24  1  0
 24 25  2  0
 25 26  1  0
 26 27  2  0
 27 28  1  0
 27 29  1  0
 29 30  2  0
 10 31  1  0
 31 32  2  0
  5 33  1  0
 33 34  1  0
 34  2  1  0
 32  7  1  0
 20 14  1  0
 30 24  1  0
  1 35  1  0
  1 36  1  0
  2 37  1  0
  3 38  1  0
  3 39  1  0
  4 40  1  0
  4 41  1  0
  6 42  1  0
  6 43  1  0
  8 44  1  0
  9 45  1  0
 13 46  1  0
 15 47  1  0
 16 48  1  0
 19 49  1  0
 23 50  1  0
 25 51  1  0
 26 52  1  0
 29 53  1  0
 31 54  1  0
 32 55  1  0
 33 56  1  0
 33 57  1  0
 34 58  1  0
 34 59  1  0
M  END
$$$$
