@<TRIPOS>MOLECULE
*****
 59 62 0 0 0
SMALL
GASTEIGER

@<TRIPOS>ATOM
      1 N          -5.5555   -3.4929   -3.0367 N.3     1  UNL1       -0.3272
      2 C          -5.1220   -2.2030   -2.5863 C.3     1  UNL1        0.0072
      3 C          -6.0938   -1.6432   -1.5642 C.3     1  UNL1       -0.0249
      4 C          -5.6398   -0.2387   -1.2406 C.3     1  UNL1        0.0006
      5 N          -4.2875   -0.1715   -0.7993 N.3     1  UNL1       -0.2981
      6 C          -4.2236    0.4576    0.4951 C.3     1  UNL1        0.0240
      7 C          -2.8242    0.5739    1.0102 C.ar    1  UNL1       -0.0333
      8 C          -2.2203   -0.3874    1.7821 C.ar    1  UNL1       -0.0566
      9 C          -0.9252   -0.1963    2.2123 C.ar    1  UNL1       -0.0493
     10 C          -0.1826    0.9173    1.9128 C.ar    1  UNL1        0.0370
     11 C           1.1905    1.0518    2.4049 C.2     1  UNL1        0.2483
     12 O           1.6731    0.1199    3.1094 O.2     1  UNL1       -0.2699
     13 N           2.0032    2.1696    2.1326 N.am    1  UNL1       -0.2808
     14 C           3.3206    2.2009    2.6575 C.ar    1  UNL1        0.0459
     15 C           3.5749    2.7458    3.8927 C.ar    1  UNL1       -0.0384
     16 C           4.8787    2.7741    4.4037 C.ar    1  UNL1       -0.0416
     17 C           5.9129    2.2515    3.6615 C.ar    1  UNL1        0.0418
     18 CL          7.5631    2.2560    4.2424 Cl      1  UNL1       -0.0835
     19 C           5.6117    1.7136    2.4251 C.ar    1  UNL1       -0.0295
     20 C           4.3363    1.6704    1.8925 C.ar    1  UNL1        0.0596
     21 C           4.0963    1.0850    0.5805 C.2     1  UNL1        0.2511
     22 O           2.9030    1.0758    0.1604 O.2     1  UNL1       -0.2697
     23 N           5.0760    0.5301   -0.2579 N.am    1  UNL1       -0.2663
     24 C           4.7784   -0.0328   -1.5407 C.ar    1  UNL1        0.1252
     25 C           4.4698   -1.3732   -1.6397 C.ar    1  UNL1       -0.0201
     26 C           4.1737   -1.9619   -2.8619 C.ar    1  UNL1       -0.0387
     27 C           4.1974   -1.1632   -3.9785 C.ar    1  UNL1        0.0592
     28 CL          3.8386   -1.8114   -5.5664 Cl      1  UNL1       -0.0820
     29 C           4.5101    0.1759   -3.8474 C.ar    1  UNL1        0.0480
     30 N           4.7985    0.7391   -2.6411 N.ar    1  UNL1       -0.2387
     31 C          -0.7855    1.8782    1.1415 C.ar    1  UNL1       -0.0493
     32 C          -2.0792    1.7102    0.6994 C.ar    1  UNL1       -0.0566
     33 C          -3.6103   -1.4261   -0.7496 C.3     1  UNL1        0.0006
     34 C          -3.7088   -2.2040   -2.0436 C.3     1  UNL1       -0.0249
     35 H          -6.5780   -3.5944   -2.7855 H       1  UNL1        0.1185
     36 H          -5.0700   -4.2540   -2.4788 H       1  UNL1        0.1185
     37 H          -5.1327   -1.5102   -3.4537 H       1  UNL1        0.0459
     38 H          -7.0984   -1.6061   -2.0209 H       1  UNL1        0.0293
     39 H          -6.1652   -2.2776   -0.6610 H       1  UNL1        0.0293
     40 H          -6.3051    0.1380   -0.4389 H       1  UNL1        0.0427
     41 H          -5.8500    0.3898   -2.1322 H       1  UNL1        0.0427
     42 H          -4.6457    1.4706    0.5031 H       1  UNL1        0.0476
     43 H          -4.7828   -0.1213    1.2828 H       1  UNL1        0.0476
     44 H          -2.7867   -1.2707    2.0303 H       1  UNL1        0.0621
     45 H          -0.4331   -0.9619    2.8316 H       1  UNL1        0.0625
     46 H           1.6296    2.9632    1.5483 H       1  UNL1        0.1552
     47 H           2.8148    3.1660    4.5142 H       1  UNL1        0.0637
     48 H           5.1086    3.1948    5.3688 H       1  UNL1        0.0633
     49 H           6.4292    1.3131    1.8645 H       1  UNL1        0.0640
     50 H           6.0539    0.5182    0.0442 H       1  UNL1        0.1566
     51 H           4.4643   -1.9561   -0.7371 H       1  UNL1        0.0652
     52 H           3.9346   -3.0117   -2.9207 H       1  UNL1        0.0634
     53 H           4.5252    0.7909   -4.7296 H       1  UNL1        0.0845
     54 H          -0.2709    2.7799    0.8635 H       1  UNL1        0.0625
     55 H          -2.5685    2.4769    0.0806 H       1  UNL1        0.0621
     56 H          -2.5345   -1.2427   -0.5594 H       1  UNL1        0.0427
     57 H          -3.9639   -2.0655    0.1084 H       1  UNL1        0.0427
     58 H          -3.4629   -3.2591   -1.8045 H       1  UNL1        0.0293
     59 H          -2.9604   -1.8611   -2.7804 H       1  UNL1        0.0293
@<TRIPOS>BOND
     1     1     2    1
     2     2     3    1
     3     3     4    1
     4     4     5    1
     5     5     6    1
     6     6     7    1
     7     7     8   ar
     8     8     9   ar
     9     9    10   ar
    10    10    11    1
    11    11    12    2
    12    11    13   am
    13    13    14    1
    14    14    15   ar
    15    15    16   ar
    16    16    17   ar
    17    17    18    1
    18    17    19   ar
    19    19    20   ar
    20    20    21    1
    21    21    22    2
    22    21    23   am
    23    23    24    1
    24    24    25   ar
    25    25    26   ar
    26    26    27   ar
    27    27    28    1
    28    27    29   ar
    29    29    30   ar
    30    10    31   ar
    31    31    32   ar
    32     5    33    1
    33    33    34    1
    34    34     2    1
    35    32     7   ar
    36    20    14   ar
    37    30    24   ar
    38     1    35    1
    39     1    36    1
    40     2    37    1
    41     3    38    1
    42     3    39    1
    43     4    40    1
    44     4    41    1
    45     6    42    1
    46     6    43    1
    47     8    44    1
    48     9    45    1
    49    13    46    1
    50    15    47    1
    51    16    48    1
    52    19    49    1
    53    23    50    1
    54    25    51    1
    55    26    52    1
    56    29    53    1
    57    31    54    1
    58    32    55    1
    59    33    56    1
    60    33    57    1
    61    34    58    1
    62    34    59    1
