@<TRIPOS>MOLECULE
*****
 66 69 0 0 0
SMALL
GASTEIGER

@<TRIPOS>ATOM
      1 C           1.9007    6.2905    2.5130 C.3     1  UNL1       -0.0468
      2 C           0.5868    5.6661    2.1736 C.3     1  UNL1        0.0189
      3 C          -0.2183    6.7051    1.3897 C.3     1  UNL1       -0.0468
      4 N           0.7150    4.4823    1.3311 N.am    1  UNL1       -0.2969
      5 C           0.0802    3.2831    1.6981 C.2     1  UNL1        0.3030
      6 O          -0.6032    3.3024    2.7842 O.2     1  UNL1       -0.2526
      7 N           0.1266    2.0381    0.9596 N.am    1  UNL1       -0.2770
      8 C           0.9462    1.9304   -0.1749 C.3     1  UNL1        0.0416
      9 C           2.2771    1.3478    0.1451 C.ar    1  UNL1       -0.0289
     10 C           3.2009    2.0842    0.8490 C.ar    1  UNL1       -0.0570
     11 C           4.4522    1.5518    1.0505 C.ar    1  UNL1       -0.0603
     12 C           4.7829    0.3253    0.5680 C.ar    1  UNL1       -0.0463
     13 C           3.8663   -0.4625   -0.1606 C.ar    1  UNL1        0.0256
     14 C           4.3402   -1.7112   -0.6969 C.1     1  UNL1       -0.0610
     15 C           4.7298   -2.7594   -1.1611 C.1     1  UNL1       -0.0610
     16 C           5.1949   -3.9877   -1.7320 C.ar    1  UNL1        0.0254
     17 C           6.0241   -3.9580   -2.8457 C.ar    1  UNL1       -0.0449
     18 C           6.4812   -5.1266   -3.4164 C.ar    1  UNL1       -0.0422
     19 C           6.1378   -6.3879   -2.9104 C.ar    1  UNL1        0.0410
     20 CL          6.6996   -7.8756   -3.6152 Cl      1  UNL1       -0.0835
     21 C           5.3059   -6.4180   -1.7938 C.ar    1  UNL1       -0.0422
     22 C           4.8673   -5.2332   -1.2473 C.ar    1  UNL1       -0.0449
     23 C           2.6299    0.0843   -0.3459 C.ar    1  UNL1       -0.0416
     24 C          -0.7681    1.0212    1.4894 C.3     1  UNL1        0.0416
     25 C          -2.0694    1.1018    0.7489 C.ar    1  UNL1       -0.0289
     26 C          -2.5996    2.3141    0.4118 C.ar    1  UNL1       -0.0570
     27 C          -3.8573    2.4317   -0.1584 C.ar    1  UNL1       -0.0603
     28 C          -4.5496    1.2652   -0.3673 C.ar    1  UNL1       -0.0463
     29 C          -4.0033    0.0217   -0.0180 C.ar    1  UNL1        0.0256
     30 C          -4.8567   -1.1508   -0.1391 C.1     1  UNL1       -0.0595
     31 C          -5.5769   -2.1068   -0.2463 C.1     1  UNL1       -0.0412
     32 C          -6.4694   -3.2529   -0.3869 C.ar    1  UNL1        0.1137
     33 C          -6.6922   -3.7386   -1.6716 C.ar    1  UNL1       -0.0278
     34 C          -7.5107   -4.8242   -1.8646 C.ar    1  UNL1       -0.0577
     35 C          -8.0987   -5.4095   -0.7351 C.ar    1  UNL1       -0.0435
     36 C          -7.8731   -4.9244    0.5187 C.ar    1  UNL1        0.0290
     37 N          -7.0621   -3.8609    0.6279 N.ar    1  UNL1       -0.2467
     38 C          -2.7709   -0.0822    0.5344 C.ar    1  UNL1       -0.0416
     39 H           2.2934    6.9005    1.6942 H       1  UNL1        0.0247
     40 H           2.6466    5.5388    2.8662 H       1  UNL1        0.0247
     41 H           1.7056    6.9802    3.3872 H       1  UNL1        0.0247
     42 H           0.0236    5.3624    3.0853 H       1  UNL1        0.0493
     43 H           0.0704    6.6196    0.3392 H       1  UNL1        0.0247
     44 H          -0.0829    7.7162    1.7966 H       1  UNL1        0.0247
     45 H          -1.3063    6.4308    1.5335 H       1  UNL1        0.0247
     46 H           1.2727    4.5238    0.4570 H       1  UNL1        0.1505
     47 H           0.4710    1.3322   -1.0068 H       1  UNL1        0.0514
     48 H           1.1640    2.9165   -0.6669 H       1  UNL1        0.0514
     49 H           2.9684    3.0838    1.2563 H       1  UNL1        0.0621
     50 H           5.1747    2.1256    1.6031 H       1  UNL1        0.0618
     51 H           5.7654   -0.1281    0.7090 H       1  UNL1        0.0630
     52 H           6.3141   -3.0054   -3.2685 H       1  UNL1        0.0630
     53 H           7.1349   -5.1459   -4.2920 H       1  UNL1        0.0632
     54 H           5.0497   -7.3968   -1.4168 H       1  UNL1        0.0632
     55 H           4.2278   -5.2971   -0.3885 H       1  UNL1        0.0630
     56 H           1.9059   -0.4830   -0.8908 H       1  UNL1        0.0633
     57 H          -0.3237    0.0086    1.3680 H       1  UNL1        0.0514
     58 H          -0.9965    1.1523    2.5527 H       1  UNL1        0.0514
     59 H          -2.0885    3.2649    0.5525 H       1  UNL1        0.0621
     60 H          -4.2773    3.3920   -0.4256 H       1  UNL1        0.0618
     61 H          -5.5361    1.2894   -0.8085 H       1  UNL1        0.0630
     62 H          -6.2053   -3.2344   -2.4905 H       1  UNL1        0.0645
     63 H          -7.6926   -5.2109   -2.8664 H       1  UNL1        0.0619
     64 H          -8.7283   -6.2534   -0.9338 H       1  UNL1        0.0633
     65 H          -8.3482   -5.4077    1.3581 H       1  UNL1        0.0830
     66 H          -2.3684   -1.0514    0.7906 H       1  UNL1        0.0633
@<TRIPOS>BOND
     1     1     2    1
     2     2     3    1
     3     2     4    1
     4     4     5   am
     5     5     6    2
     6     5     7   am
     7     7     8    1
     8     8     9    1
     9     9    10   ar
    10    10    11   ar
    11    11    12   ar
    12    12    13   ar
    13    13    14    1
    14    14    15    3
    15    15    16    1
    16    16    17   ar
    17    17    18   ar
    18    18    19   ar
    19    19    20    1
    20    19    21   ar
    21    21    22   ar
    22    13    23   ar
    23     7    24    1
    24    24    25    1
    25    25    26   ar
    26    26    27   ar
    27    27    28   ar
    28    28    29   ar
    29    29    30    1
    30    30    31    3
    31    31    32    1
    32    32    33   ar
    33    33    34   ar
    34    34    35   ar
    35    35    36   ar
    36    36    37   ar
    37    29    38   ar
    38    23     9   ar
    39    38    25   ar
    40    22    16   ar
    41    37    32   ar
    42     1    39    1
    43     1    40    1
    44     1    41    1
    45     2    42    1
    46     3    43    1
    47     3    44    1
    48     3    45    1
    49     4    46    1
    50     8    47    1
    51     8    48    1
    52    10    49    1
    53    11    50    1
    54    12    51    1
    55    17    52    1
    56    18    53    1
    57    21    54    1
    58    22    55    1
    59    23    56    1
    60    24    57    1
    61    24    58    1
    62    26    59    1
    63    27    60    1
    64    28    61    1
    65    33    62    1
    66    34    63    1
    67    35    64    1
    68    36    65    1
    69    38    66    1
