
     RDKit          3D

 43 44  0  0  0  0  0  0  0  0999 V2000
    0.6651    0.3537   -0.0833 C   0  0  2  0  0  0  0  0  0  0  0  0
   -0.2444   -0.0454   -1.2298 C   0  0  0  0  0  0  0  0  0  0  0  0
   -1.5723    0.1430   -0.7459 N   0  0  0  0  0  0  0  0  0  0  0  0
   -2.2895   -1.0159   -0.3603 C   0  0  0  0  0  0  0  0  0  0  0  0
   -3.6513   -0.8000    0.1366 C   0  0  0  0  0  0  0  0  0  0  0  0
   -4.0583   -0.5849    1.4367 C   0  0  0  0  0  0  0  0  0  0  0  0
   -5.3742   -0.3917    1.7881 C   0  0  0  0  0  0  0  0  0  0  0  0
   -6.3526   -0.4090    0.8155 C   0  0  0  0  0  0  0  0  0  0  0  0
   -7.6542   -0.2143    1.1913 F   0  0  0  0  0  0  0  0  0  0  0  0
   -6.0122   -0.6193   -0.5047 C   0  0  0  0  0  0  0  0  0  0  0  0
   -4.6789   -0.8088   -0.8133 C   0  0  0  0  0  0  0  0  0  0  0  0
   -1.8374    1.3567   -0.0827 C   0  0  0  0  0  0  0  0  0  0  0  0
   -0.7067    2.3337   -0.0324 C   0  0  0  0  0  0  0  0  0  0  0  0
    0.6053    1.7897   -0.0070 N   0  0  0  0  0  0  0  0  0  0  0  0
    2.0389   -0.1146   -0.2136 C   0  0  0  0  0  0  0  0  0  0  0  0
    2.1428   -1.3820   -0.2850 O   0  0  0  0  0  0  0  0  0  0  0  0
    3.2324    0.6440   -0.2686 N   0  0  0  0  0  0  0  0  0  0  0  0
    4.5490    0.0528   -0.4006 C   0  0  0  0  0  0  0  0  0  0  0  0
    4.9038   -0.8790    0.7229 C   0  0  0  0  0  0  0  0  0  0  0  0
    6.3032   -1.4070    0.4319 C   0  0  0  0  0  0  0  0  0  0  0  0
    7.4215    0.0241    0.3660 S   0  0  0  0  0  0  0  0  0  0  0  0
    0.2188   -0.0664    0.8337 H   0  0  0  0  0  0  0  0  0  0  0  0
   -0.1077   -1.1088   -1.5173 H   0  0  0  0  0  0  0  0  0  0  0  0
    0.0285    0.6267   -2.0902 H   0  0  0  0  0  0  0  0  0  0  0  0
   -1.6523   -1.5409    0.4115 H   0  0  0  0  0  0  0  0  0  0  0  0
   -2.3413   -1.7522   -1.1956 H   0  0  0  0  0  0  0  0  0  0  0  0
   -3.2703   -0.5783    2.1709 H   0  0  0  0  0  0  0  0  0  0  0  0
   -5.6103   -0.2282    2.8393 H   0  0  0  0  0  0  0  0  0  0  0  0
   -6.7730   -0.6344   -1.2732 H   0  0  0  0  0  0  0  0  0  0  0  0
   -4.4701   -0.9691   -1.8630 H   0  0  0  0  0  0  0  0  0  0  0  0
   -2.1681    1.1656    0.9554 H   0  0  0  0  0  0  0  0  0  0  0  0
   -2.6917    1.8637   -0.6148 H   0  0  0  0  0  0  0  0  0  0  0  0
   -0.8253    2.9789    0.8671 H   0  0  0  0  0  0  0  0  0  0  0  0
   -0.7841    3.0419   -0.8975 H   0  0  0  0  0  0  0  0  0  0  0  0
    1.2038    2.1769   -0.7840 H   0  0  0  0  0  0  0  0  0  0  0  0
    3.0969    1.6829   -0.2061 H   0  0  0  0  0  0  0  0  0  0  0  0
    5.2849    0.8635   -0.4432 H   0  0  0  0  0  0  0  0  0  0  0  0
    4.5942   -0.4880   -1.3680 H   0  0  0  0  0  0  0  0  0  0  0  0
    4.8776   -0.3276    1.6857 H   0  0  0  0  0  0  0  0  0  0  0  0
    4.2265   -1.7594    0.7098 H   0  0  0  0  0  0  0  0  0  0  0  0
    6.6150   -2.1118    1.2117 H   0  0  0  0  0  0  0  0  0  0  0  0
    6.2276   -1.9058   -0.5586 H   0  0  0  0  0  0  0  0  0  0  0  0
    6.8903    1.0451    1.1519 H   0  0  0  0  0  0  0  0  0  0  0  0
  1  2  1  0
  2  3  1  0
  3  4  1  0
  4  5  1  0
  5  6  2  0
  6  7  1  0
  7  8  2  0
  8  9  1  0
  8 10  1  0
 10 11  2  0
  3 12  1  0
 12 13  1  0
 13 14  1  0
  1 15  1  0
 15 16  2  0
 15 17  1  0
 17 18  1  0
 18 19  1  0
 19 20  1  0
 20 21  1  0
 14  1  1  0
 11  5  1  0
  1 22  1  1
  2 23  1  0
  2 24  1  0
  4 25  1  0
  4 26  1  0
  6 27  1  0
  7 28  1  0
 10 29  1  0
 11 30  1  0
 12 31  1  0
 12 32  1  0
 13 33  1  0
 13 34  1  0
 14 35  1  0
 17 36  1  0
 18 37  1  0
 18 38  1  0
 19 39  1  0
 19 40  1  0
 20 41  1  0
 20 42  1  0
 21 43  1  0
M  END
$$$$
