@<TRIPOS>MOLECULE
*****
 43 44 0 0 0
SMALL
GASTEIGER

@<TRIPOS>ATOM
      1 C           0.6651    0.3537   -0.0833 C.3     1  UNL1        0.0976
      2 C          -0.2444   -0.0454   -1.2298 C.3     1  UNL1        0.0232
      3 N          -1.5723    0.1430   -0.7459 N.3     1  UNL1       -0.2950
      4 C          -2.2895   -1.0159   -0.3603 C.3     1  UNL1        0.0242
      5 C          -3.6513   -0.8000    0.1366 C.ar    1  UNL1       -0.0332
      6 C          -4.0583   -0.5849    1.4367 C.ar    1  UNL1       -0.0546
      7 C          -5.3742   -0.3917    1.7881 C.ar    1  UNL1       -0.0262
      8 C          -6.3526   -0.4090    0.8155 C.ar    1  UNL1        0.1234
      9 F          -7.6542   -0.2143    1.1913 F       1  UNL1       -0.2055
     10 C          -6.0122   -0.6193   -0.5047 C.ar    1  UNL1       -0.0262
     11 C          -4.6789   -0.8088   -0.8133 C.ar    1  UNL1       -0.0546
     12 C          -1.8374    1.3567   -0.0827 C.3     1  UNL1        0.0118
     13 C          -0.7067    2.3337   -0.0324 C.3     1  UNL1        0.0094
     14 N           0.6053    1.7897   -0.0070 N.3     1  UNL1       -0.3034
     15 C           2.0389   -0.1146   -0.2136 C.2     1  UNL1        0.2313
     16 O           2.1428   -1.3820   -0.2850 O.2     1  UNL1       -0.2741
     17 N           3.2324    0.6440   -0.2686 N.am    1  UNL1       -0.3140
     18 C           4.5490    0.0528   -0.4006 C.3     1  UNL1        0.0124
     19 C           4.9038   -0.8790    0.7229 C.3     1  UNL1       -0.0286
     20 C           6.3032   -1.4070    0.4319 C.3     1  UNL1       -0.0079
     21 S           7.4215    0.0241    0.3660 S.3     1  UNL1       -0.1782
     22 H           0.2188   -0.0664    0.8337 H       1  UNL1        0.0569
     23 H          -0.1077   -1.1088   -1.5173 H       1  UNL1        0.0447
     24 H           0.0285    0.6267   -2.0902 H       1  UNL1        0.0447
     25 H          -1.6523   -1.5409    0.4115 H       1  UNL1        0.0476
     26 H          -2.3413   -1.7522   -1.1956 H       1  UNL1        0.0476
     27 H          -3.2703   -0.5783    2.1709 H       1  UNL1        0.0622
     28 H          -5.6103   -0.2282    2.8393 H       1  UNL1        0.0646
     29 H          -6.7730   -0.6344   -1.2732 H       1  UNL1        0.0646
     30 H          -4.4701   -0.9691   -1.8630 H       1  UNL1        0.0622
     31 H          -2.1681    1.1656    0.9554 H       1  UNL1        0.0439
     32 H          -2.6917    1.8637   -0.6148 H       1  UNL1        0.0439
     33 H          -0.8253    2.9789    0.8671 H       1  UNL1        0.0437
     34 H          -0.7841    3.0419   -0.8975 H       1  UNL1        0.0437
     35 H           1.2038    2.1769   -0.7840 H       1  UNL1        0.1227
     36 H           3.0969    1.6829   -0.2061 H       1  UNL1        0.1487
     37 H           5.2849    0.8635   -0.4432 H       1  UNL1        0.0462
     38 H           4.5942   -0.4880   -1.3680 H       1  UNL1        0.0462
     39 H           4.8776   -0.3276    1.6857 H       1  UNL1        0.0288
     40 H           4.2265   -1.7594    0.7098 H       1  UNL1        0.0288
     41 H           6.6150   -2.1118    1.2117 H       1  UNL1        0.0374
     42 H           6.2276   -1.9058   -0.5586 H       1  UNL1        0.0374
     43 H           6.8903    1.0451    1.1519 H       1  UNL1        0.1016
@<TRIPOS>BOND
     1     1     2    1
     2     2     3    1
     3     3     4    1
     4     4     5    1
     5     5     6   ar
     6     6     7   ar
     7     7     8   ar
     8     8     9    1
     9     8    10   ar
    10    10    11   ar
    11     3    12    1
    12    12    13    1
    13    13    14    1
    14     1    15    1
    15    15    16    2
    16    15    17   am
    17    17    18    1
    18    18    19    1
    19    19    20    1
    20    20    21    1
    21    14     1    1
    22    11     5   ar
    23     1    22    1
    24     2    23    1
    25     2    24    1
    26     4    25    1
    27     4    26    1
    28     6    27    1
    29     7    28    1
    30    10    29    1
    31    11    30    1
    32    12    31    1
    33    12    32    1
    34    13    33    1
    35    13    34    1
    36    14    35    1
    37    17    36    1
    38    18    37    1
    39    18    38    1
    40    19    39    1
    41    19    40    1
    42    20    41    1
    43    20    42    1
    44    21    43    1
