@<TRIPOS>MOLECULE
*****
 31 32 0 0 0
SMALL
GASTEIGER

@<TRIPOS>ATOM
      1 N           3.6573    0.4608   -0.2801 N.3     1  UNL1       -0.3181
      2 CA          2.2220    0.4349    0.0447 C.3     1  UNL1        0.1072
      3 C           1.4820   -0.4332   -0.9358 C.3     1  UNL1       -0.0015
      4 C           0.0127   -0.5013   -0.6729 C.2     1  UNL1       -0.0336
      5 C          -0.5421   -1.6686   -0.3122 C.2     1  UNL1       -0.0799
      6 C          -1.9989   -1.7864   -0.0377 C.3     1  UNL1       -0.0338
      7 C          -2.4226   -0.8471    1.0718 C.3     1  UNL1       -0.0426
      8 C          -2.8708    0.4861    0.5893 C.3     1  UNL1        0.0091
      9 C          -1.8649    1.0973   -0.2930 C.ar    1  UNL1        0.1457
     10 C          -0.6361    0.8090   -0.8907 C.ar    1  UNL1        0.0852
     11 C          -0.1924    1.8856   -1.6571 C.ar    1  UNL1        0.2878
     12 O           0.8898    1.8624   -2.2933 O.2     1  UNL1       -0.2645
     13 N          -1.1818    2.7673   -1.4776 N.ar    1  UNL1       -0.1839
     14 O          -2.1243    2.3179   -0.7065 O.2     1  UNL1       -0.3809
     15 C           2.1865   -0.1941    1.4228 C.2     1  UNL1        0.3220
     16 O           3.2111   -0.6674    2.2634 O.3     1  UNL1       -0.4795
     17 OXT         1.1187   -0.3973    2.0656 O.2     1  UNL1       -0.2492
     18 H1          3.8723   -0.4745   -0.6778 H       1  UNL1        0.1190
     19 H2          4.2244    0.5776    0.5876 H       1  UNL1        0.1190
     20 HA          1.7992    1.4374    0.1977 H       1  UNL1        0.0577
     21 H           1.7516   -0.2751   -1.9754 H       1  UNL1        0.0334
     22 H           1.8461   -1.4808   -0.7087 H       1  UNL1        0.0334
     23 H           0.1985   -2.4774   -0.2534 H       1  UNL1        0.0575
     24 H          -2.1792   -2.8211    0.3191 H       1  UNL1        0.0308
     25 H          -2.6377   -1.5907   -0.9089 H       1  UNL1        0.0308
     26 H          -1.6431   -0.7880    1.8760 H       1  UNL1        0.0272
     27 H          -3.3034   -1.3239    1.5750 H       1  UNL1        0.0272
     28 H          -3.1083    1.1995    1.3929 H       1  UNL1        0.0345
     29 H          -3.8263    0.3084    0.0117 H       1  UNL1        0.0345
     30 H          -1.1355    3.7187   -1.9480 H       1  UNL1        0.2107
     31 H           3.1954   -1.6364    2.6115 H       1  UNL1        0.2951
@<TRIPOS>BOND
     1     1     2    1
     2     2     3    1
     3     3     4    1
     4     4     5    2
     5     5     6    1
     6     6     7    1
     7     7     8    1
     8     8     9    1
     9     9    10   ar
    10    10    11   ar
    11    11    12    2
    12    11    13   ar
    13    13    14   ar
    14     2    15    1
    15    15    16    1
    16    15    17    2
    17    10     4    1
    18    14     9   ar
    19     1    18    1
    20     1    19    1
    21     2    20    1
    22     3    21    1
    23     3    22    1
    24     5    23    1
    25     6    24    1
    26     6    25    1
    27     7    26    1
    28     7    27    1
    29     8    28    1
    30     8    29    1
    31    13    30    1
    32    16    31    1
