
     RDKit          3D

 31 32  0  0  0  0  0  0  0  0999 V2000
    3.6573    0.4608   -0.2801 N   0  0  0  0  0  0  0  0  0  0  0  0
    2.2220    0.4349    0.0447 C   0  0  1  0  0  0  0  0  0  0  0  0
    1.4820   -0.4332   -0.9358 C   0  0  0  0  0  0  0  0  0  0  0  0
    0.0127   -0.5013   -0.6729 C   0  0  0  0  0  0  0  0  0  0  0  0
   -0.5421   -1.6686   -0.3122 C   0  0  0  0  0  0  0  0  0  0  0  0
   -1.9989   -1.7864   -0.0377 C   0  0  0  0  0  0  0  0  0  0  0  0
   -2.4226   -0.8471    1.0718 C   0  0  0  0  0  0  0  0  0  0  0  0
   -2.8708    0.4861    0.5893 C   0  0  0  0  0  0  0  0  0  0  0  0
   -1.8649    1.0973   -0.2930 C   0  0  0  0  0  0  0  0  0  0  0  0
   -0.6361    0.8090   -0.8907 C   0  0  0  0  0  0  0  0  0  0  0  0
   -0.1924    1.8856   -1.6571 C   0  0  0  0  0  0  0  0  0  0  0  0
    0.8898    1.8624   -2.2933 O   0  0  0  0  0  0  0  0  0  0  0  0
   -1.1818    2.7673   -1.4776 N   0  0  0  0  0  0  0  0  0  0  0  0
   -2.1243    2.3179   -0.7065 O   0  0  0  0  0  0  0  0  0  0  0  0
    2.1865   -0.1941    1.4228 C   0  0  0  0  0  0  0  0  0  0  0  0
    3.2111   -0.6674    2.2634 O   0  0  0  0  0  0  0  0  0  0  0  0
    1.1187   -0.3973    2.0656 O   0  0  0  0  0  0  0  0  0  0  0  0
    3.8723   -0.4745   -0.6778 H   0  0  0  0  0  0  0  0  0  0  0  0
    4.2244    0.5776    0.5876 H   0  0  0  0  0  0  0  0  0  0  0  0
    1.7992    1.4374    0.1977 H   0  0  0  0  0  0  0  0  0  0  0  0
    1.7516   -0.2751   -1.9754 H   0  0  0  0  0  0  0  0  0  0  0  0
    1.8461   -1.4808   -0.7087 H   0  0  0  0  0  0  0  0  0  0  0  0
    0.1985   -2.4774   -0.2534 H   0  0  0  0  0  0  0  0  0  0  0  0
   -2.1792   -2.8211    0.3191 H   0  0  0  0  0  0  0  0  0  0  0  0
   -2.6377   -1.5907   -0.9089 H   0  0  0  0  0  0  0  0  0  0  0  0
   -1.6431   -0.7880    1.8760 H   0  0  0  0  0  0  0  0  0  0  0  0
   -3.3034   -1.3239    1.5750 H   0  0  0  0  0  0  0  0  0  0  0  0
   -3.1083    1.1995    1.3929 H   0  0  0  0  0  0  0  0  0  0  0  0
   -3.8263    0.3084    0.0117 H   0  0  0  0  0  0  0  0  0  0  0  0
   -1.1355    3.7187   -1.9480 H   0  0  0  0  0  0  0  0  0  0  0  0
    3.1954   -1.6364    2.6115 H   0  0  0  0  0  0  0  0  0  0  0  0
  1  2  1  0
  2  3  1  0
  3  4  1  0
  4  5  2  0
  5  6  1  0
  6  7  1  0
  7  8  1  0
  8  9  1  0
  9 10  2  0
 10 11  1  0
 11 12  2  0
 11 13  1  0
 13 14  1  0
  2 15  1  0
 15 16  1  0
 15 17  2  0
 10  4  1  0
 14  9  1  0
  1 18  1  0
  1 19  1  0
  2 20  1  1
  3 21  1  0
  3 22  1  0
  5 23  1  0
  6 24  1  0
  6 25  1  0
  7 26  1  0
  7 27  1  0
  8 28  1  0
  8 29  1  0
 13 30  1  0
 16 31  1  0
M  END
$$$$
