@<TRIPOS>MOLECULE
*****
 55 57 0 0 0
SMALL
GASTEIGER

@<TRIPOS>ATOM
      1 N           8.7961   -0.0761   -0.9504 N.pl3   1  UNL1       -0.1313
      2 C           8.3040    0.8160   -0.1855 C.2     1  UNL1        0.3751
      3 N           9.1289    1.8187    0.4180 N.pl3   1  UNL1       -0.2906
      4 N           6.8831    0.7730    0.0382 N.am    1  UNL1       -0.1709
      5 C           6.0818   -0.2201   -0.5820 C.2     1  UNL1        0.3066
      6 O           6.6786   -1.0508   -1.3259 O.2     1  UNL1       -0.2516
      7 C           4.6544   -0.3422   -0.4226 C.ar    1  UNL1        0.0536
      8 C           3.9670   -1.3222   -1.0518 C.ar    1  UNL1       -0.0479
      9 C           2.6271   -1.4285   -0.8971 C.ar    1  UNL1       -0.0570
     10 C           1.8354   -0.5626   -0.0948 C.ar    1  UNL1       -0.0325
     11 C           0.4199   -0.7858    0.0428 C.3     1  UNL1       -0.0125
     12 C           0.0624   -1.7522    1.1877 C.3     1  UNL1       -0.0302
     13 C          -1.2110   -2.4403    0.7362 C.3     1  UNL1        0.0155
     14 N          -2.2289   -1.4945    0.2940 N.am    1  UNL1       -0.2975
     15 C          -3.5108   -1.6330    0.8631 C.2     1  UNL1        0.2466
     16 O          -3.7286   -2.5300    1.7092 O.2     1  UNL1       -0.2700
     17 C          -4.5956   -0.7595    0.4918 C.ar    1  UNL1        0.0369
     18 C          -5.0075   -0.6543   -0.8281 C.ar    1  UNL1       -0.0489
     19 C          -6.0564    0.1613   -1.2102 C.ar    1  UNL1       -0.0489
     20 C          -6.7275    0.9036   -0.2487 C.ar    1  UNL1        0.0365
     21 C          -7.8401    1.7797   -0.5686 C.2     1  UNL1        0.2415
     22 N          -8.5060    2.4912    0.4396 N.am    1  UNL1       -0.3253
     23 O          -8.1967    1.8910   -1.7550 O.2     1  UNL1       -0.2704
     24 C          -6.3300    0.8072    1.0533 C.ar    1  UNL1       -0.0489
     25 C          -5.2874   -0.0018    1.4364 C.ar    1  UNL1       -0.0489
     26 C          -1.8959   -0.4901   -0.6855 C.3     1  UNL1        0.0155
     27 C          -0.6159    0.2287   -0.1627 C.3     1  UNL1       -0.0302
     28 C           2.5376    0.4262    0.5374 C.ar    1  UNL1        0.0590
     29 C           1.8707    1.4148    1.3729 C.3     1  UNL1        0.4177
     30 F           0.9932    2.2586    0.7737 F       1  UNL1       -0.1659
     31 F           2.8556    2.3165    1.8322 F       1  UNL1       -0.1659
     32 F           1.4088    0.9128    2.5794 F       1  UNL1       -0.1659
     33 C           3.9525    0.5257    0.3650 C.ar    1  UNL1       -0.0363
     34 H           9.8070   -0.1100   -1.1640 H       1  UNL1        0.3060
     35 H          10.1318    1.8631    0.1228 H       1  UNL1        0.2545
     36 H           8.7035    2.4479    1.1115 H       1  UNL1        0.2545
     37 H           6.4648    1.4878    0.6635 H       1  UNL1        0.2545
     38 H           4.4839   -2.0389   -1.6916 H       1  UNL1        0.0626
     39 H           2.1167   -2.2232   -1.4140 H       1  UNL1        0.0621
     40 H           0.1860   -1.5004   -0.8484 H       1  UNL1        0.0350
     41 H           0.8499   -2.5310    1.1616 H       1  UNL1        0.0286
     42 H          -0.0424   -1.2844    2.1529 H       1  UNL1        0.0286
     43 H          -0.9269   -3.0889   -0.1488 H       1  UNL1        0.0465
     44 H          -1.5471   -3.0936    1.5346 H       1  UNL1        0.0465
     45 H          -4.5177   -1.2131   -1.6180 H       1  UNL1        0.0625
     46 H          -6.3777    0.2411   -2.2550 H       1  UNL1        0.0625
     47 H          -8.5327    3.5252    0.4711 H       1  UNL1        0.1453
     48 H          -8.9911    1.9526    1.1801 H       1  UNL1        0.1453
     49 H          -6.8242    1.3699    1.8363 H       1  UNL1        0.0625
     50 H          -4.9577   -0.0913    2.4718 H       1  UNL1        0.0625
     51 H          -2.6962    0.2863   -0.6901 H       1  UNL1        0.0465
     52 H          -1.7134   -0.8843   -1.6989 H       1  UNL1        0.0465
     53 H          -1.0366    0.6905    0.7517 H       1  UNL1        0.0286
     54 H          -0.3698    0.8920   -0.9851 H       1  UNL1        0.0286
     55 H           4.4711    1.3214    0.8849 H       1  UNL1        0.0631
@<TRIPOS>BOND
     1     1     2    2
     2     2     3    1
     3     2     4    1
     4     4     5   am
     5     5     6    2
     6     5     7    1
     7     7     8   ar
     8     8     9   ar
     9     9    10   ar
    10    10    11    1
    11    11    12    1
    12    12    13    1
    13    13    14    1
    14    14    15   am
    15    15    16    2
    16    15    17    1
    17    17    18   ar
    18    18    19   ar
    19    19    20   ar
    20    20    21    1
    21    21    22   am
    22    21    23    2
    23    20    24   ar
    24    24    25   ar
    25    14    26    1
    26    26    27    1
    27    10    28   ar
    28    28    29    1
    29    29    30    1
    30    29    31    1
    31    29    32    1
    32    28    33   ar
    33    33     7   ar
    34    27    11    1
    35    25    17   ar
    36     1    34    1
    37     3    35    1
    38     3    36    1
    39     4    37    1
    40     8    38    1
    41     9    39    1
    42    11    40    1
    43    12    41    1
    44    12    42    1
    45    13    43    1
    46    13    44    1
    47    18    45    1
    48    19    46    1
    49    22    47    1
    50    22    48    1
    51    24    49    1
    52    25    50    1
    53    26    51    1
    54    26    52    1
    55    27    53    1
    56    27    54    1
    57    33    55    1
