
     RDKit          3D

 55 57  0  0  0  0  0  0  0  0999 V2000
    8.7961   -0.0761   -0.9504 N   0  0  0  0  0  0  0  0  0  0  0  0
    8.3040    0.8160   -0.1855 C   0  0  0  0  0  0  0  0  0  0  0  0
    9.1289    1.8187    0.4180 N   0  0  0  0  0  0  0  0  0  0  0  0
    6.8831    0.7730    0.0382 N   0  0  0  0  0  0  0  0  0  0  0  0
    6.0818   -0.2201   -0.5820 C   0  0  0  0  0  0  0  0  0  0  0  0
    6.6786   -1.0508   -1.3259 O   0  0  0  0  0  0  0  0  0  0  0  0
    4.6544   -0.3422   -0.4226 C   0  0  0  0  0  0  0  0  0  0  0  0
    3.9670   -1.3222   -1.0518 C   0  0  0  0  0  0  0  0  0  0  0  0
    2.6271   -1.4285   -0.8971 C   0  0  0  0  0  0  0  0  0  0  0  0
    1.8354   -0.5626   -0.0948 C   0  0  0  0  0  0  0  0  0  0  0  0
    0.4199   -0.7858    0.0428 C   0  0  0  0  0  0  0  0  0  0  0  0
    0.0624   -1.7522    1.1877 C   0  0  0  0  0  0  0  0  0  0  0  0
   -1.2110   -2.4403    0.7362 C   0  0  0  0  0  0  0  0  0  0  0  0
   -2.2289   -1.4945    0.2940 N   0  0  0  0  0  0  0  0  0  0  0  0
   -3.5108   -1.6330    0.8631 C   0  0  0  0  0  0  0  0  0  0  0  0
   -3.7286   -2.5300    1.7092 O   0  0  0  0  0  0  0  0  0  0  0  0
   -4.5956   -0.7595    0.4918 C   0  0  0  0  0  0  0  0  0  0  0  0
   -5.0075   -0.6543   -0.8281 C   0  0  0  0  0  0  0  0  0  0  0  0
   -6.0564    0.1613   -1.2102 C   0  0  0  0  0  0  0  0  0  0  0  0
   -6.7275    0.9036   -0.2487 C   0  0  0  0  0  0  0  0  0  0  0  0
   -7.8401    1.7797   -0.5686 C   0  0  0  0  0  0  0  0  0  0  0  0
   -8.5060    2.4912    0.4396 N   0  0  0  0  0  0  0  0  0  0  0  0
   -8.1967    1.8910   -1.7550 O   0  0  0  0  0  0  0  0  0  0  0  0
   -6.3300    0.8072    1.0533 C   0  0  0  0  0  0  0  0  0  0  0  0
   -5.2874   -0.0018    1.4364 C   0  0  0  0  0  0  0  0  0  0  0  0
   -1.8959   -0.4901   -0.6855 C   0  0  0  0  0  0  0  0  0  0  0  0
   -0.6159    0.2287   -0.1627 C   0  0  0  0  0  0  0  0  0  0  0  0
    2.5376    0.4262    0.5374 C   0  0  0  0  0  0  0  0  0  0  0  0
    1.8707    1.4148    1.3729 C   0  0  0  0  0  0  0  0  0  0  0  0
    0.9932    2.2586    0.7737 F   0  0  0  0  0  0  0  0  0  0  0  0
    2.8556    2.3165    1.8322 F   0  0  0  0  0  0  0  0  0  0  0  0
    1.4088    0.9128    2.5794 F   0  0  0  0  0  0  0  0  0  0  0  0
    3.9525    0.5257    0.3650 C   0  0  0  0  0  0  0  0  0  0  0  0
    9.8070   -0.1100   -1.1640 H   0  0  0  0  0  0  0  0  0  0  0  0
   10.1318    1.8631    0.1228 H   0  0  0  0  0  0  0  0  0  0  0  0
    8.7035    2.4479    1.1115 H   0  0  0  0  0  0  0  0  0  0  0  0
    6.4648    1.4878    0.6635 H   0  0  0  0  0  0  0  0  0  0  0  0
    4.4839   -2.0389   -1.6916 H   0  0  0  0  0  0  0  0  0  0  0  0
    2.1167   -2.2232   -1.4140 H   0  0  0  0  0  0  0  0  0  0  0  0
    0.1860   -1.5004   -0.8484 H   0  0  0  0  0  0  0  0  0  0  0  0
    0.8499   -2.5310    1.1616 H   0  0  0  0  0  0  0  0  0  0  0  0
   -0.0424   -1.2844    2.1529 H   0  0  0  0  0  0  0  0  0  0  0  0
   -0.9269   -3.0889   -0.1488 H   0  0  0  0  0  0  0  0  0  0  0  0
   -1.5471   -3.0936    1.5346 H   0  0  0  0  0  0  0  0  0  0  0  0
   -4.5177   -1.2131   -1.6180 H   0  0  0  0  0  0  0  0  0  0  0  0
   -6.3777    0.2411   -2.2550 H   0  0  0  0  0  0  0  0  0  0  0  0
   -8.5327    3.5252    0.4711 H   0  0  0  0  0  0  0  0  0  0  0  0
   -8.9911    1.9526    1.1801 H   0  0  0  0  0  0  0  0  0  0  0  0
   -6.8242    1.3699    1.8363 H   0  0  0  0  0  0  0  0  0  0  0  0
   -4.9577   -0.0913    2.4718 H   0  0  0  0  0  0  0  0  0  0  0  0
   -2.6962    0.2863   -0.6901 H   0  0  0  0  0  0  0  0  0  0  0  0
   -1.7134   -0.8843   -1.6989 H   0  0  0  0  0  0  0  0  0  0  0  0
   -1.0366    0.6905    0.7517 H   0  0  0  0  0  0  0  0  0  0  0  0
   -0.3698    0.8920   -0.9851 H   0  0  0  0  0  0  0  0  0  0  0  0
    4.4711    1.3214    0.8849 H   0  0  0  0  0  0  0  0  0  0  0  0
  1  2  2  3
  2  3  1  0
  2  4  1  0
  4  5  1  0
  5  6  2  0
  5  7  1  0
  7  8  2  0
  8  9  1  0
  9 10  2  0
 10 11  1  0
 11 12  1  0
 12 13  1  0
 13 14  1  0
 14 15  1  0
 15 16  2  0
 15 17  1  0
 17 18  2  0
 18 19  1  0
 19 20  2  0
 20 21  1  0
 21 22  1  0
 21 23  2  0
 20 24  1  0
 24 25  2  0
 14 26  1  0
 26 27  1  0
 10 28  1  0
 28 29  1  0
 29 30  1  0
 29 31  1  0
 29 32  1  0
 28 33  2  0
 33  7  1  0
 27 11  1  0
 25 17  1  0
  1 34  1  0
  3 35  1  0
  3 36  1  0
  4 37  1  0
  8 38  1  0
  9 39  1  0
 11 40  1  0
 12 41  1  0
 12 42  1  0
 13 43  1  0
 13 44  1  0
 18 45  1  0
 19 46  1  0
 22 47  1  0
 22 48  1  0
 24 49  1  0
 25 50  1  0
 26 51  1  0
 26 52  1  0
 27 53  1  0
 27 54  1  0
 33 55  1  0
M  END
$$$$
