@<TRIPOS>MOLECULE
*****
 52 52 0 0 0
SMALL
GASTEIGER

@<TRIPOS>ATOM
      1 C           7.0038    1.6309    1.0741 C.3     1  UNL1       -0.0306
      2 C           6.1505    1.8862   -0.1424 C.3     1  UNL1        0.0900
      3 O           5.1616    0.8768   -0.3109 O.3     1  UNL1       -0.4614
      4 C           5.4806   -0.4446   -0.4770 C.2     1  UNL1        0.3393
      5 O           6.7121   -0.7798   -0.4801 O.2     1  UNL1       -0.2450
      6 C           4.4775   -1.4843   -0.6507 C.ar    1  UNL1        0.0622
      7 C           4.8645   -2.8023   -0.8131 C.ar    1  UNL1       -0.0296
      8 C           3.9477   -3.8054   -0.9815 C.ar    1  UNL1        0.0287
      9 N           2.6523   -3.4826   -0.9866 N.ar    1  UNL1       -0.2586
     10 C           2.1927   -2.2174   -0.8338 C.ar    1  UNL1        0.0558
     11 C           0.7174   -1.9837   -0.8594 C.3     1  UNL1        0.0389
     12 N           0.1545   -2.0960    0.4756 N.3     1  UNL1       -0.3027
     13 C          -1.2687   -2.0047    0.4784 C.3     1  UNL1        0.0737
     14 C          -1.7444   -0.6574    0.1371 C.2     1  UNL1        0.2295
     15 O          -0.9348    0.2751   -0.0905 O.2     1  UNL1       -0.2742
     16 N          -3.1392   -0.3596    0.0497 N.am    1  UNL1       -0.2995
     17 C          -4.0345   -1.4708    0.2976 C.3     1  UNL1        0.0119
     18 C          -4.3635   -2.2504   -0.9418 C.3     1  UNL1       -0.0493
     19 C          -3.5481    0.9717   -0.2558 C.3     1  UNL1        0.0274
     20 C          -3.7086    1.7191    1.0754 C.3     1  UNL1        0.0141
     21 N          -4.1170    3.0717    0.9293 N.3     1  UNL1       -0.3069
     22 C          -5.4417    3.2918    0.4507 C.3     1  UNL1       -0.0130
     23 C          -3.1235    3.9646    0.3978 C.3     1  UNL1       -0.0130
     24 C           3.1164   -1.2148   -0.6646 C.ar    1  UNL1       -0.0252
     25 H           7.7808    0.8972    0.8058 H       1  UNL1        0.0262
     26 H           7.4472    2.5846    1.4169 H       1  UNL1        0.0262
     27 H           6.4270    1.1932    1.9201 H       1  UNL1        0.0262
     28 H           6.8228    1.9596   -1.0218 H       1  UNL1        0.0695
     29 H           5.6263    2.8401   -0.0169 H       1  UNL1        0.0695
     30 H           5.9425   -3.0247   -0.8034 H       1  UNL1        0.0641
     31 H           4.2251   -4.8387   -1.1084 H       1  UNL1        0.0830
     32 H           0.5502   -0.9973   -1.3216 H       1  UNL1        0.0489
     33 H           0.1918   -2.7326   -1.4932 H       1  UNL1        0.0489
     34 H           0.5223   -1.2763    1.0374 H       1  UNL1        0.1228
     35 H          -1.6354   -2.6943   -0.3205 H       1  UNL1        0.0520
     36 H          -1.6231   -2.3237    1.4817 H       1  UNL1        0.0520
     37 H          -3.6188   -2.0995    1.1118 H       1  UNL1        0.0462
     38 H          -4.9849   -1.0577    0.6930 H       1  UNL1        0.0462
     39 H          -3.5692   -1.9585   -1.6934 H       1  UNL1        0.0245
     40 H          -5.3140   -2.0340   -1.4122 H       1  UNL1        0.0245
     41 H          -4.2045   -3.3395   -0.7986 H       1  UNL1        0.0245
     42 H          -2.7837    1.4743   -0.8811 H       1  UNL1        0.0477
     43 H          -4.5483    1.0491   -0.7487 H       1  UNL1        0.0477
     44 H          -2.7424    1.7065    1.6118 H       1  UNL1        0.0442
     45 H          -4.4339    1.2024    1.7202 H       1  UNL1        0.0442
     46 H          -5.9510    3.9826    1.1855 H       1  UNL1        0.0391
     47 H          -5.4281    3.8757   -0.4942 H       1  UNL1        0.0391
     48 H          -6.0732    2.3947    0.4169 H       1  UNL1        0.0391
     49 H          -3.2010    4.9438    0.9562 H       1  UNL1        0.0391
     50 H          -3.3017    4.2205   -0.6657 H       1  UNL1        0.0391
     51 H          -2.1024    3.6069    0.5434 H       1  UNL1        0.0391
     52 H           2.7717   -0.1881   -0.5393 H       1  UNL1        0.0644
@<TRIPOS>BOND
     1     1     2    1
     2     2     3    1
     3     3     4    1
     4     4     5    2
     5     4     6    1
     6     6     7   ar
     7     7     8   ar
     8     8     9   ar
     9     9    10   ar
    10    10    11    1
    11    11    12    1
    12    12    13    1
    13    13    14    1
    14    14    15    2
    15    14    16   am
    16    16    17    1
    17    17    18    1
    18    16    19    1
    19    19    20    1
    20    20    21    1
    21    21    22    1
    22    21    23    1
    23    10    24   ar
    24    24     6   ar
    25     1    25    1
    26     1    26    1
    27     1    27    1
    28     2    28    1
    29     2    29    1
    30     7    30    1
    31     8    31    1
    32    11    32    1
    33    11    33    1
    34    12    34    1
    35    13    35    1
    36    13    36    1
    37    17    37    1
    38    17    38    1
    39    18    39    1
    40    18    40    1
    41    18    41    1
    42    19    42    1
    43    19    43    1
    44    20    44    1
    45    20    45    1
    46    22    46    1
    47    22    47    1
    48    22    48    1
    49    23    49    1
    50    23    50    1
    51    23    51    1
    52    24    52    1
