
     RDKit          3D

 52 52  0  0  0  0  0  0  0  0999 V2000
    7.0038    1.6309    1.0741 C   0  0  0  0  0  0  0  0  0  0  0  0
    6.1505    1.8862   -0.1424 C   0  0  0  0  0  0  0  0  0  0  0  0
    5.1616    0.8768   -0.3109 O   0  0  0  0  0  0  0  0  0  0  0  0
    5.4806   -0.4446   -0.4770 C   0  0  0  0  0  0  0  0  0  0  0  0
    6.7121   -0.7798   -0.4801 O   0  0  0  0  0  0  0  0  0  0  0  0
    4.4775   -1.4843   -0.6507 C   0  0  0  0  0  0  0  0  0  0  0  0
    4.8645   -2.8023   -0.8131 C   0  0  0  0  0  0  0  0  0  0  0  0
    3.9477   -3.8054   -0.9815 C   0  0  0  0  0  0  0  0  0  0  0  0
    2.6523   -3.4826   -0.9866 N   0  0  0  0  0  0  0  0  0  0  0  0
    2.1927   -2.2174   -0.8338 C   0  0  0  0  0  0  0  0  0  0  0  0
    0.7174   -1.9837   -0.8594 C   0  0  0  0  0  0  0  0  0  0  0  0
    0.1545   -2.0960    0.4756 N   0  0  0  0  0  0  0  0  0  0  0  0
   -1.2687   -2.0047    0.4784 C   0  0  0  0  0  0  0  0  0  0  0  0
   -1.7444   -0.6574    0.1371 C   0  0  0  0  0  0  0  0  0  0  0  0
   -0.9348    0.2751   -0.0905 O   0  0  0  0  0  0  0  0  0  0  0  0
   -3.1392   -0.3596    0.0497 N   0  0  0  0  0  0  0  0  0  0  0  0
   -4.0345   -1.4708    0.2976 C   0  0  0  0  0  0  0  0  0  0  0  0
   -4.3635   -2.2504   -0.9418 C   0  0  0  0  0  0  0  0  0  0  0  0
   -3.5481    0.9717   -0.2558 C   0  0  0  0  0  0  0  0  0  0  0  0
   -3.7086    1.7191    1.0754 C   0  0  0  0  0  0  0  0  0  0  0  0
   -4.1170    3.0717    0.9293 N   0  0  0  0  0  0  0  0  0  0  0  0
   -5.4417    3.2918    0.4507 C   0  0  0  0  0  0  0  0  0  0  0  0
   -3.1235    3.9646    0.3978 C   0  0  0  0  0  0  0  0  0  0  0  0
    3.1164   -1.2148   -0.6646 C   0  0  0  0  0  0  0  0  0  0  0  0
    7.7808    0.8972    0.8058 H   0  0  0  0  0  0  0  0  0  0  0  0
    7.4472    2.5846    1.4169 H   0  0  0  0  0  0  0  0  0  0  0  0
    6.4270    1.1932    1.9201 H   0  0  0  0  0  0  0  0  0  0  0  0
    6.8228    1.9596   -1.0218 H   0  0  0  0  0  0  0  0  0  0  0  0
    5.6263    2.8401   -0.0169 H   0  0  0  0  0  0  0  0  0  0  0  0
    5.9425   -3.0247   -0.8034 H   0  0  0  0  0  0  0  0  0  0  0  0
    4.2251   -4.8387   -1.1084 H   0  0  0  0  0  0  0  0  0  0  0  0
    0.5502   -0.9973   -1.3216 H   0  0  0  0  0  0  0  0  0  0  0  0
    0.1918   -2.7326   -1.4932 H   0  0  0  0  0  0  0  0  0  0  0  0
    0.5223   -1.2763    1.0374 H   0  0  0  0  0  0  0  0  0  0  0  0
   -1.6354   -2.6943   -0.3205 H   0  0  0  0  0  0  0  0  0  0  0  0
   -1.6231   -2.3237    1.4817 H   0  0  0  0  0  0  0  0  0  0  0  0
   -3.6188   -2.0995    1.1118 H   0  0  0  0  0  0  0  0  0  0  0  0
   -4.9849   -1.0577    0.6930 H   0  0  0  0  0  0  0  0  0  0  0  0
   -3.5692   -1.9585   -1.6934 H   0  0  0  0  0  0  0  0  0  0  0  0
   -5.3140   -2.0340   -1.4122 H   0  0  0  0  0  0  0  0  0  0  0  0
   -4.2045   -3.3395   -0.7986 H   0  0  0  0  0  0  0  0  0  0  0  0
   -2.7837    1.4743   -0.8811 H   0  0  0  0  0  0  0  0  0  0  0  0
   -4.5483    1.0491   -0.7487 H   0  0  0  0  0  0  0  0  0  0  0  0
   -2.7424    1.7065    1.6118 H   0  0  0  0  0  0  0  0  0  0  0  0
   -4.4339    1.2024    1.7202 H   0  0  0  0  0  0  0  0  0  0  0  0
   -5.9510    3.9826    1.1855 H   0  0  0  0  0  0  0  0  0  0  0  0
   -5.4281    3.8757   -0.4942 H   0  0  0  0  0  0  0  0  0  0  0  0
   -6.0732    2.3947    0.4169 H   0  0  0  0  0  0  0  0  0  0  0  0
   -3.2010    4.9438    0.9562 H   0  0  0  0  0  0  0  0  0  0  0  0
   -3.3017    4.2205   -0.6657 H   0  0  0  0  0  0  0  0  0  0  0  0
   -2.1024    3.6069    0.5434 H   0  0  0  0  0  0  0  0  0  0  0  0
    2.7717   -0.1881   -0.5393 H   0  0  0  0  0  0  0  0  0  0  0  0
  1  2  1  0
  2  3  1  0
  3  4  1  0
  4  5  2  0
  4  6  1  0
  6  7  2  0
  7  8  1  0
  8  9  2  0
  9 10  1  0
 10 11  1  0
 11 12  1  0
 12 13  1  0
 13 14  1  0
 14 15  2  0
 14 16  1  0
 16 17  1  0
 17 18  1  0
 16 19  1  0
 19 20  1  0
 20 21  1  0
 21 22  1  0
 21 23  1  0
 10 24  2  0
 24  6  1  0
  1 25  1  0
  1 26  1  0
  1 27  1  0
  2 28  1  0
  2 29  1  0
  7 30  1  0
  8 31  1  0
 11 32  1  0
 11 33  1  0
 12 34  1  0
 13 35  1  0
 13 36  1  0
 17 37  1  0
 17 38  1  0
 18 39  1  0
 18 40  1  0
 18 41  1  0
 19 42  1  0
 19 43  1  0
 20 44  1  0
 20 45  1  0
 22 46  1  0
 22 47  1  0
 22 48  1  0
 23 49  1  0
 23 50  1  0
 23 51  1  0
 24 52  1  0
M  END
$$$$
