@<TRIPOS>MOLECULE
*****
 52 55 0 0 0
SMALL
GASTEIGER

@<TRIPOS>ATOM
      1 C           6.1979   -1.6320    0.5006 C.3     1  UNL1       -0.0429
      2 C           5.7504   -0.7395    1.6409 C.3     1  UNL1        0.0471
      3 C           6.4759    0.5718    1.5637 C.3     1  UNL1       -0.0429
      4 N           4.3036   -0.5756    1.5295 N.ar    1  UNL1       -0.2683
      5 C           3.6625   -0.0929    0.4653 C.ar    1  UNL1        0.0335
      6 C           2.3186   -0.0981    0.7512 C.ar    1  UNL1        0.0198
      7 C           1.2229    0.3418   -0.1143 C.ar    1  UNL1       -0.0094
      8 C          -0.0054   -0.3091    0.0274 C.ar    1  UNL1       -0.0113
      9 C          -1.0723    0.0498   -0.7476 C.ar    1  UNL1        0.1350
     10 O          -2.3053   -0.5252   -0.6816 O.3     1  UNL1       -0.4879
     11 C          -2.6591   -1.5414    0.1643 C.3     1  UNL1        0.1021
     12 C          -3.1023   -2.8062   -0.5877 C.3     1  UNL1       -0.0275
     13 C          -3.8258   -1.1981    1.0748 C.3     1  UNL1        0.0195
     14 C          -3.5142   -0.0068    1.9548 C.3     1  UNL1        0.0182
     15 N          -4.8668    0.4163    2.3519 N.am    1  UNL1       -0.3149
     16 C          -5.7836    0.0034    1.3529 C.2     1  UNL1        0.2135
     17 O          -7.0119    0.2170    1.3761 O.2     1  UNL1       -0.2758
     18 C          -5.0301   -0.7129    0.2994 C.3     1  UNL1        0.0315
     19 C          -0.9191    1.0832   -1.6906 C.ar    1  UNL1        0.0975
     20 C          -1.7774    1.6565   -2.5906 C.ar    1  UNL1        0.2228
     21 F          -3.0703    1.3259   -2.7860 F       1  UNL1       -0.1834
     22 N          -1.1325    2.6203   -3.2695 N.ar    1  UNL1       -0.2408
     23 C          -1.6073    3.4967   -4.3105 C.3     1  UNL1        0.0331
     24 N           0.1313    2.6736   -2.8163 N.ar    1  UNL1       -0.1689
     25 C           0.2789    1.7342   -1.8445 C.ar    1  UNL1        0.0998
     26 C           1.3405    1.3497   -1.0467 C.ar    1  UNL1       -0.0258
     27 C           2.2082   -0.6093    2.0387 C.ar    1  UNL1        0.0571
     28 N           3.4317   -0.8813    2.4632 N.ar    1  UNL1       -0.1788
     29 H           5.8090   -1.1945   -0.4311 H       1  UNL1        0.0250
     30 H           7.3025   -1.6846    0.4315 H       1  UNL1        0.0250
     31 H           5.7324   -2.6145    0.6434 H       1  UNL1        0.0250
     32 H           5.9898   -1.2112    2.6058 H       1  UNL1        0.0539
     33 H           5.9066    1.3066    0.9690 H       1  UNL1        0.0250
     34 H           7.4498    0.4230    1.0540 H       1  UNL1        0.0250
     35 H           6.6533    1.0277    2.5783 H       1  UNL1        0.0250
     36 H           4.1150    0.2450   -0.4630 H       1  UNL1        0.0832
     37 H          -0.0913   -1.0836    0.7456 H       1  UNL1        0.0660
     38 H          -1.8480   -1.8881    0.8252 H       1  UNL1        0.0733
     39 H          -3.5801   -3.4511    0.1784 H       1  UNL1        0.0265
     40 H          -3.8722   -2.5497   -1.3319 H       1  UNL1        0.0265
     41 H          -2.2392   -3.3509   -0.9865 H       1  UNL1        0.0265
     42 H          -4.0938   -2.0548    1.7047 H       1  UNL1        0.0356
     43 H          -2.8953   -0.2499    2.8223 H       1  UNL1        0.0466
     44 H          -3.0489    0.7709    1.2882 H       1  UNL1        0.0466
     45 H          -5.0344    0.9353    3.2465 H       1  UNL1        0.1487
     46 H          -4.6658    0.0276   -0.4445 H       1  UNL1        0.0363
     47 H          -5.6056   -1.5412   -0.1521 H       1  UNL1        0.0363
     48 H          -1.9018    4.4623   -3.8198 H       1  UNL1        0.0474
     49 H          -2.4551    3.0664   -4.8859 H       1  UNL1        0.0474
     50 H          -0.7926    3.6877   -5.0345 H       1  UNL1        0.0474
     51 H           2.2892    1.8378   -1.1418 H       1  UNL1        0.0646
     52 H           1.2374   -0.7280    2.5298 H       1  UNL1        0.0854
@<TRIPOS>BOND
     1     1     2    1
     2     2     3    1
     3     2     4    1
     4     4     5   ar
     5     5     6   ar
     6     6     7    1
     7     7     8   ar
     8     8     9   ar
     9     9    10    1
    10    10    11    1
    11    11    12    1
    12    11    13    1
    13    13    14    1
    14    14    15    1
    15    15    16   am
    16    16    17    2
    17    16    18    1
    18     9    19   ar
    19    19    20   ar
    20    20    21    1
    21    20    22   ar
    22    22    23    1
    23    22    24   ar
    24    24    25   ar
    25    25    26   ar
    26     6    27   ar
    27    27    28   ar
    28    28     4   ar
    29    26     7   ar
    30    18    13    1
    31    25    19   ar
    32     1    29    1
    33     1    30    1
    34     1    31    1
    35     2    32    1
    36     3    33    1
    37     3    34    1
    38     3    35    1
    39     5    36    1
    40     8    37    1
    41    11    38    1
    42    12    39    1
    43    12    40    1
    44    12    41    1
    45    13    42    1
    46    14    43    1
    47    14    44    1
    48    15    45    1
    49    18    46    1
    50    18    47    1
    51    23    48    1
    52    23    49    1
    53    23    50    1
    54    26    51    1
    55    27    52    1
