
     RDKit          3D

 53 53  0  0  0  0  0  0  0  0999 V2000
   -0.9288   -0.2715   -1.3015 C   0  0  1  0  0  0  0  0  0  0  0  0
   -1.2906    0.5484   -2.5029 C   0  0  0  0  0  0  0  0  0  0  0  0
    0.1448    0.3154   -0.4634 C   0  0  0  0  0  0  0  0  0  0  0  0
    1.2945   -0.3094   -0.2287 C   0  0  0  0  0  0  0  0  0  0  0  0
    1.3452   -1.6122   -0.8928 C   0  0  0  0  0  0  0  0  0  0  0  0
    2.3228    0.3054    0.6019 C   0  0  0  0  0  0  0  0  0  0  0  0
    3.4868   -0.2200    0.8961 C   0  0  0  0  0  0  0  0  0  0  0  0
    4.5521    0.3794    1.7367 C   0  0  2  0  0  0  0  0  0  0  0  0
    4.1012    1.5820    2.4038 N   0  0  0  0  0  0  0  0  0  0  0  0
    5.6958    0.7747    0.7985 C   0  0  2  0  0  0  0  0  0  0  0  0
    6.8317    1.4008    1.6025 C   0  0  0  0  0  0  0  0  0  0  0  0
    5.2297    1.7389   -0.2190 C   0  0  0  0  0  0  0  0  0  0  0  0
    4.2260    1.4334   -1.1040 O   0  0  0  0  0  0  0  0  0  0  0  0
    5.7450    2.8840   -0.3068 O   0  0  0  0  0  0  0  0  0  0  0  0
   -2.1850   -0.4057   -0.4281 C   0  0  2  0  0  0  0  0  0  0  0  0
   -3.2511   -1.0778   -1.2160 C   0  0  0  0  0  0  0  0  0  0  0  0
   -4.5101   -1.2656   -0.4864 C   0  0  0  0  0  0  0  0  0  0  0  0
   -4.8890   -2.3383    0.2873 C   0  0  0  0  0  0  0  0  0  0  0  0
   -6.1109   -2.3930    0.9255 C   0  0  0  0  0  0  0  0  0  0  0  0
   -6.9602   -1.3220    0.7640 C   0  0  0  0  0  0  0  0  0  0  0  0
   -6.6369   -0.2146   -0.0009 C   0  0  0  0  0  0  0  0  0  0  0  0
   -5.3912   -0.1899   -0.6345 C   0  0  0  0  0  0  0  0  0  0  0  0
   -2.5344    0.7591    0.1909 O   0  0  0  0  0  0  0  0  0  0  0  0
   -2.4149    0.7913    1.5511 C   0  0  0  0  0  0  0  0  0  0  0  0
   -0.6929   -1.2840   -1.6527 H   0  0  0  0  0  0  0  0  0  0  0  0
   -1.4857   -0.0769   -3.4167 H   0  0  0  0  0  0  0  0  0  0  0  0
   -2.2386    1.0974   -2.3254 H   0  0  0  0  0  0  0  0  0  0  0  0
   -0.5371    1.3523   -2.7341 H   0  0  0  0  0  0  0  0  0  0  0  0
   -0.0738    1.3115   -0.0441 H   0  0  0  0  0  0  0  0  0  0  0  0
    2.3242   -2.0856   -0.6724 H   0  0  0  0  0  0  0  0  0  0  0  0
    1.2964   -1.5684   -1.9990 H   0  0  0  0  0  0  0  0  0  0  0  0
    0.5953   -2.2837   -0.4281 H   0  0  0  0  0  0  0  0  0  0  0  0
    2.1245    1.2807    1.0204 H   0  0  0  0  0  0  0  0  0  0  0  0
    3.7213   -1.1883    0.4991 H   0  0  0  0  0  0  0  0  0  0  0  0
    4.9076   -0.3575    2.4591 H   0  0  0  0  0  0  0  0  0  0  0  0
    3.8239    2.2903    1.6911 H   0  0  0  0  0  0  0  0  0  0  0  0
    3.3115    1.2986    3.0215 H   0  0  0  0  0  0  0  0  0  0  0  0
    6.1133   -0.1065    0.2795 H   0  0  0  0  0  0  0  0  0  0  0  0
    7.7201    0.7087    1.6347 H   0  0  0  0  0  0  0  0  0  0  0  0
    6.4958    1.5996    2.6410 H   0  0  0  0  0  0  0  0  0  0  0  0
    7.2000    2.3339    1.1529 H   0  0  0  0  0  0  0  0  0  0  0  0
    3.7028    2.1980   -1.5265 H   0  0  0  0  0  0  0  0  0  0  0  0
   -1.8575   -1.1204    0.3674 H   0  0  0  0  0  0  0  0  0  0  0  0
   -2.8734   -2.1113   -1.4463 H   0  0  0  0  0  0  0  0  0  0  0  0
   -3.4100   -0.6397   -2.2385 H   0  0  0  0  0  0  0  0  0  0  0  0
   -4.1694   -3.1148    0.3527 H   0  0  0  0  0  0  0  0  0  0  0  0
   -6.3177   -3.2748    1.5094 H   0  0  0  0  0  0  0  0  0  0  0  0
   -7.9304   -1.3642    1.2701 H   0  0  0  0  0  0  0  0  0  0  0  0
   -7.3281    0.6133   -0.1084 H   0  0  0  0  0  0  0  0  0  0  0  0
   -5.1883    0.6990   -1.2202 H   0  0  0  0  0  0  0  0  0  0  0  0
   -3.0138    0.0538    2.1040 H   0  0  0  0  0  0  0  0  0  0  0  0
   -2.7273    1.7988    1.8935 H   0  0  0  0  0  0  0  0  0  0  0  0
   -1.3651    0.6475    1.8728 H   0  0  0  0  0  0  0  0  0  0  0  0
  1  2  1  0
  1  3  1  0
  3  4  2  0
  4  5  1  0
  4  6  1  0
  6  7  2  0
  7  8  1  0
  8  9  1  0
  8 10  1  0
 10 11  1  0
 10 12  1  0
 12 13  1  0
 12 14  2  0
  1 15  1  0
 15 16  1  0
 16 17  1  0
 17 18  2  0
 18 19  1  0
 19 20  2  0
 20 21  1  0
 21 22  2  0
 15 23  1  0
 23 24  1  0
 22 17  1  0
  1 25  1  6
  2 26  1  0
  2 27  1  0
  2 28  1  0
  3 29  1  0
  5 30  1  0
  5 31  1  0
  5 32  1  0
  6 33  1  0
  7 34  1  0
  8 35  1  1
  9 36  1  0
  9 37  1  0
 10 38  1  6
 11 39  1  0
 11 40  1  0
 11 41  1  0
 13 42  1  0
 15 43  1  1
 16 44  1  0
 16 45  1  0
 18 46  1  0
 19 47  1  0
 20 48  1  0
 21 49  1  0
 22 50  1  0
 24 51  1  0
 24 52  1  0
 24 53  1  0
M  END
$$$$
