@<TRIPOS>MOLECULE
*****
 53 53 0 0 0
SMALL
GASTEIGER

@<TRIPOS>ATOM
      1 C          -0.9288   -0.2715   -1.3015 C.3     1  UNL1        0.0014
      2 C          -1.2906    0.5484   -2.5029 C.3     1  UNL1       -0.0566
      3 C           0.1448    0.3154   -0.4634 C.2     1  UNL1       -0.0758
      4 C           1.2945   -0.3094   -0.2287 C.2     1  UNL1       -0.0543
      5 C           1.3452   -1.6122   -0.8928 C.3     1  UNL1       -0.0400
      6 C           2.3228    0.3054    0.6019 C.2     1  UNL1       -0.0616
      7 C           3.4868   -0.2200    0.8961 C.2     1  UNL1       -0.0664
      8 C           4.5521    0.3794    1.7367 C.3     1  UNL1        0.0364
      9 N           4.1012    1.5820    2.4038 N.3     1  UNL1       -0.3234
     10 C           5.6958    0.7747    0.7985 C.3     1  UNL1        0.0721
     11 C           6.8317    1.4008    1.6025 C.3     1  UNL1       -0.0505
     12 C           5.2297    1.7389   -0.2190 C.2     1  UNL1        0.3094
     13 O           4.2260    1.4334   -1.1040 O.3     1  UNL1       -0.4804
     14 O           5.7450    2.8840   -0.3068 O.2     1  UNL1       -0.2506
     15 C          -2.1850   -0.4057   -0.4281 C.3     1  UNL1        0.0683
     16 C          -3.2511   -1.0778   -1.2160 C.3     1  UNL1       -0.0008
     17 C          -4.5101   -1.2656   -0.4864 C.ar    1  UNL1       -0.0449
     18 C          -4.8890   -2.3383    0.2873 C.ar    1  UNL1       -0.0585
     19 C          -6.1109   -2.3930    0.9255 C.ar    1  UNL1       -0.0615
     20 C          -6.9602   -1.3220    0.7640 C.ar    1  UNL1       -0.0617
     21 C          -6.6369   -0.2146   -0.0009 C.ar    1  UNL1       -0.0615
     22 C          -5.3912   -0.1899   -0.6345 C.ar    1  UNL1       -0.0585
     23 O          -2.5344    0.7591    0.1909 O.3     1  UNL1       -0.3789
     24 C          -2.4149    0.7913    1.5511 C.3     1  UNL1        0.0368
     25 H          -0.6929   -1.2840   -1.6527 H       1  UNL1        0.0366
     26 H          -1.4857   -0.0769   -3.4167 H       1  UNL1        0.0236
     27 H          -2.2386    1.0974   -2.3254 H       1  UNL1        0.0236
     28 H          -0.5371    1.3523   -2.7341 H       1  UNL1        0.0236
     29 H          -0.0738    1.3115   -0.0441 H       1  UNL1        0.0578
     30 H           2.3242   -2.0856   -0.6724 H       1  UNL1        0.0277
     31 H           1.2964   -1.5684   -1.9990 H       1  UNL1        0.0277
     32 H           0.5953   -2.2837   -0.4281 H       1  UNL1        0.0277
     33 H           2.1245    1.2807    1.0204 H       1  UNL1        0.0617
     34 H           3.7213   -1.1883    0.4991 H       1  UNL1        0.0588
     35 H           4.9076   -0.3575    2.4591 H       1  UNL1        0.0510
     36 H           3.8239    2.2903    1.6911 H       1  UNL1        0.1188
     37 H           3.3115    1.2986    3.0215 H       1  UNL1        0.1188
     38 H           6.1133   -0.1065    0.2795 H       1  UNL1        0.0429
     39 H           7.7201    0.7087    1.6347 H       1  UNL1        0.0238
     40 H           6.4958    1.5996    2.6410 H       1  UNL1        0.0238
     41 H           7.2000    2.3339    1.1529 H       1  UNL1        0.0238
     42 H           3.7028    2.1980   -1.5265 H       1  UNL1        0.2951
     43 H          -1.8575   -1.1204    0.3674 H       1  UNL1        0.0605
     44 H          -2.8734   -2.1113   -1.4463 H       1  UNL1        0.0338
     45 H          -3.4100   -0.6397   -2.2385 H       1  UNL1        0.0338
     46 H          -4.1694   -3.1148    0.3527 H       1  UNL1        0.0620
     47 H          -6.3177   -3.2748    1.5094 H       1  UNL1        0.0618
     48 H          -7.9304   -1.3642    1.2701 H       1  UNL1        0.0618
     49 H          -7.3281    0.6133   -0.1084 H       1  UNL1        0.0618
     50 H          -5.1883    0.6990   -1.2202 H       1  UNL1        0.0620
     51 H          -3.0138    0.0538    2.1040 H       1  UNL1        0.0524
     52 H          -2.7273    1.7988    1.8935 H       1  UNL1        0.0524
     53 H          -1.3651    0.6475    1.8728 H       1  UNL1        0.0524
@<TRIPOS>BOND
     1     1     2    1
     2     1     3    1
     3     3     4    2
     4     4     5    1
     5     4     6    1
     6     6     7    2
     7     7     8    1
     8     8     9    1
     9     8    10    1
    10    10    11    1
    11    10    12    1
    12    12    13    1
    13    12    14    2
    14     1    15    1
    15    15    16    1
    16    16    17    1
    17    17    18   ar
    18    18    19   ar
    19    19    20   ar
    20    20    21   ar
    21    21    22   ar
    22    15    23    1
    23    23    24    1
    24    22    17   ar
    25     1    25    1
    26     2    26    1
    27     2    27    1
    28     2    28    1
    29     3    29    1
    30     5    30    1
    31     5    31    1
    32     5    32    1
    33     6    33    1
    34     7    34    1
    35     8    35    1
    36     9    36    1
    37     9    37    1
    38    10    38    1
    39    11    39    1
    40    11    40    1
    41    11    41    1
    42    13    42    1
    43    15    43    1
    44    16    44    1
    45    16    45    1
    46    18    46    1
    47    19    47    1
    48    20    48    1
    49    21    49    1
    50    22    50    1
    51    24    51    1
    52    24    52    1
    53    24    53    1
