@<TRIPOS>MOLECULE
*****
 50 53 0 0 0
SMALL
GASTEIGER

@<TRIPOS>ATOM
      1 C          -3.5792    3.1147    1.2069 C.3     1  UNL1        0.0000
      2 C          -4.0271    1.7775    0.7338 C.ar    1  UNL1        0.0000
      3 N          -4.8730    0.9646    1.3517 N.ar    1  UNL1        0.0000
      4 C          -5.0238   -0.1462    0.6045 C.ar    1  UNL1        0.0000
      5 C          -5.7956   -1.2756    0.8206 C.ar    1  UNL1        0.0000
      6 N          -6.6092   -1.4054    1.9943 N.pl3   1  UNL1        1.0000
      7 O          -6.5977   -0.4734    2.8070 O.2     1  UNL1        0.0000
      8 O          -7.3467   -2.5381    2.1530 O.co2   1  UNL1       -1.0000
      9 C          -5.7604   -2.2653   -0.1176 C.ar    1  UNL1        0.0000
     10 CL         -6.7409   -3.7017    0.1557 Cl      1  UNL1        0.0000
     11 C          -5.0089   -2.2200   -1.2683 C.ar    1  UNL1        0.0000
     12 CL         -5.0053   -3.5184   -2.4319 Cl      1  UNL1        0.0000
     13 C          -4.2463   -1.0647   -1.4466 C.ar    1  UNL1        0.0000
     14 C          -4.2540   -0.0408   -0.5211 C.ar    1  UNL1        0.0000
     15 N          -3.6393    1.1666   -0.4221 N.ar    1  UNL1        0.0000
     16 C          -2.7158    1.6947   -1.4054 C.3     1  UNL1        0.0000
     17 C          -1.3129    1.3289   -1.1175 C.ar    1  UNL1        0.0000
     18 C          -0.5236    2.1454   -0.3269 C.ar    1  UNL1        0.0000
     19 C           0.7971    1.7920   -0.0622 C.ar    1  UNL1        0.0000
     20 C           1.3648    0.6454   -0.5607 C.ar    1  UNL1        0.0000
     21 B           2.8529    0.2635   -0.2524 B       1  UNL1        0.0000
     22 O           3.7746    0.5205   -1.4100 O.3     1  UNL1        0.0000
     23 C           4.9680   -0.0535   -1.8353 C.2     1  UNL1        0.0000
     24 O           5.2641    0.1946   -3.0209 O.2     1  UNL1        0.0000
     25 C           5.9588   -0.9211   -1.1070 C.3     1  UNL1        0.0000
     26 N           6.0646   -0.4963    0.2854 N.3     1  UNL1        0.0000
     27 C           7.4720   -0.3025    0.5598 C.3     1  UNL1        0.0000
     28 C           5.5493   -1.4623    1.2052 C.3     1  UNL1        0.0000
     29 C           4.1108   -1.2750    1.5191 C.2     1  UNL1        0.0000
     30 O           3.8157   -1.8823    2.5812 O.2     1  UNL1        0.0000
     31 O           3.0084   -0.6090    0.9523 O.3     1  UNL1        0.0000
     32 C           0.5712   -0.1534   -1.3421 C.ar    1  UNL1        0.0000
     33 C          -0.7451    0.1800   -1.6174 C.ar    1  UNL1        0.0000
     34 H          -4.4165    3.6969    1.6471 H       1  UNL1        0.0000
     35 H          -3.2429    3.6792    0.3190 H       1  UNL1        0.0000
     36 H          -2.7550    3.0504    1.9198 H       1  UNL1        0.0000
     37 H          -3.6458   -0.9809   -2.3302 H       1  UNL1        0.0000
     38 H          -2.8020    2.8102   -1.4829 H       1  UNL1        0.0000
     39 H          -3.0443    1.3132   -2.3969 H       1  UNL1        0.0000
     40 H          -0.9170    3.0599    0.0905 H       1  UNL1        0.0000
     41 H           1.3667    2.4618    0.5580 H       1  UNL1        0.0000
     42 H           6.9347   -0.9066   -1.6235 H       1  UNL1        0.0000
     43 H           5.5609   -1.9567   -1.0921 H       1  UNL1        0.0000
     44 H           7.7995   -0.8052    1.4996 H       1  UNL1        0.0000
     45 H           7.7566    0.7585    0.6352 H       1  UNL1        0.0000
     46 H           8.1197   -0.7334   -0.2518 H       1  UNL1        0.0000
     47 H           6.1299   -1.3461    2.1661 H       1  UNL1        0.0000
     48 H           5.7396   -2.5158    0.8842 H       1  UNL1        0.0000
     49 H           0.9655   -1.0614   -1.7570 H       1  UNL1        0.0000
     50 H          -1.3171   -0.5075   -2.2515 H       1  UNL1        0.0000
@<TRIPOS>UNITY_ATOM_ATTR
6 1
charge 1
8 1
charge -1
@<TRIPOS>BOND
     1     1     2    1
     2     2     3   ar
     3     3     4   ar
     4     4     5   ar
     5     5     6    1
     6     6     7    2
     7     6     8    1
     8     5     9   ar
     9     9    10    1
    10     9    11   ar
    11    11    12    1
    12    11    13   ar
    13    13    14   ar
    14    14    15   ar
    15    15    16    1
    16    16    17    1
    17    17    18   ar
    18    18    19   ar
    19    19    20   ar
    20    20    21    1
    21    21    22    1
    22    22    23    1
    23    23    24    2
    24    23    25    1
    25    25    26    1
    26    26    27    1
    27    26    28    1
    28    28    29    1
    29    29    30    2
    30    29    31    1
    31    20    32   ar
    32    32    33   ar
    33    15     2   ar
    34    33    17   ar
    35    14     4   ar
    36    31    21    1
    37     1    34    1
    38     1    35    1
    39     1    36    1
    40    13    37    1
    41    16    38    1
    42    16    39    1
    43    18    40    1
    44    19    41    1
    45    25    42    1
    46    25    43    1
    47    27    44    1
    48    27    45    1
    49    27    46    1
    50    28    47    1
    51    28    48    1
    52    32    49    1
    53    33    50    1
