@<TRIPOS>MOLECULE
*****
 24 24 0 0 0
SMALL
GASTEIGER

@<TRIPOS>ATOM
      1 CA         -2.1708   -0.0329   -0.2474 C.3     1  UNL1        0.1072
      2 N          -1.8867    0.9559   -1.2601 N.3     1  UNL1       -0.3181
      3 C          -1.2350   -1.2062   -0.4409 C.3     1  UNL1       -0.0020
      4 C           0.1910   -0.8055   -0.3262 C.ar    1  UNL1       -0.0430
      5 C           0.8048   -0.8459    0.9141 C.ar    1  UNL1       -0.0409
      6 C           2.1168   -0.4881    1.0804 C.ar    1  UNL1        0.0606
      7 BR          2.9279   -0.5550    2.7944 Br      1  UNL1       -0.0465
      8 C           2.7909   -0.0878   -0.0448 C.ar    1  UNL1        0.1447
      9 O           4.1281    0.2905    0.0491 O.3     1  UNL1       -0.5045
     10 C           2.2378   -0.0244   -1.3126 C.ar    1  UNL1        0.0606
     11 BR          3.2687    0.5484   -2.8128 Br      1  UNL1       -0.0465
     12 C           0.9001   -0.3996   -1.4246 C.ar    1  UNL1       -0.0409
     13 C          -2.0411    0.5786    1.0783 C.2     1  UNL1        0.3220
     14 O          -2.0010    0.8523    2.4386 O.3     1  UNL1       -0.4795
     15 OXT        -1.7248    1.7790    1.0597 O.2     1  UNL1       -0.2492
     16 HA         -3.1965   -0.4162   -0.4276 H       1  UNL1        0.0577
     17 H1         -2.6809    1.0653   -1.9309 H       1  UNL1        0.1190
     18 H2         -1.6895    1.9040   -0.8666 H       1  UNL1        0.1190
     19 H          -1.4311   -1.6375   -1.4445 H       1  UNL1        0.0334
     20 H          -1.5195   -1.9720    0.3031 H       1  UNL1        0.0334
     21 H           0.2416   -1.1701    1.7963 H       1  UNL1        0.0632
     22 H           4.3469    1.2110    0.3961 H       1  UNL1        0.2922
     23 H           0.4429   -0.3557   -2.4248 H       1  UNL1        0.0632
     24 H          -2.8207    0.8120    3.0538 H       1  UNL1        0.2951
@<TRIPOS>BOND
     1     1     2    1
     2     1     3    1
     3     3     4    1
     4     4     5   ar
     5     5     6   ar
     6     6     7    1
     7     6     8   ar
     8     8     9    1
     9     8    10   ar
    10    10    11    1
    11    10    12   ar
    12     1    13    1
    13    13    14    1
    14    13    15    2
    15    12     4   ar
    16     1    16    1
    17     2    17    1
    18     2    18    1
    19     3    19    1
    20     3    20    1
    21     5    21    1
    22     9    22    1
    23    12    23    1
    24    14    24    1
