@<TRIPOS>MOLECULE
*****
 40 41 0 0 0
SMALL
GASTEIGER

@<TRIPOS>ATOM
      1 O           6.0316    1.7599    0.3609 O.2     1  UNL1       -0.2510
      2 C           5.7423    0.5481    0.1581 C.2     1  UNL1        0.3047
      3 O           6.6410   -0.4075    0.6376 O.3     1  UNL1       -0.4806
      4 C           4.5207    0.1351   -0.5464 C.3     1  UNL1        0.0448
      5 C           3.3011    0.8136    0.0373 C.3     1  UNL1       -0.0427
      6 C           2.0421    0.4223   -0.6917 C.3     1  UNL1       -0.0491
      7 C           0.8189    1.1089    0.0072 C.3     1  UNL1       -0.0339
      8 C          -0.3416    0.6987   -0.7673 C.2     1  UNL1       -0.0757
      9 C          -1.4395    0.1783   -0.3366 C.2     1  UNL1       -0.0132
     10 C          -1.6915   -0.0741    1.0539 C.ar    1  UNL1       -0.0176
     11 C          -1.2905    0.6701    2.1266 C.ar    1  UNL1       -0.0540
     12 C          -1.4442    0.2891    3.4505 C.ar    1  UNL1       -0.0612
     13 C          -2.0336   -0.9002    3.7451 C.ar    1  UNL1       -0.0617
     14 C          -2.4750   -1.7177    2.6988 C.ar    1  UNL1       -0.0612
     15 C          -2.3005   -1.3028    1.4024 C.ar    1  UNL1       -0.0540
     16 C          -2.5049   -0.2003   -1.3018 C.ar    1  UNL1        0.0005
     17 C          -2.2829   -0.3167   -2.6501 C.ar    1  UNL1       -0.0511
     18 C          -3.2745   -0.5994   -3.5703 C.ar    1  UNL1       -0.0430
     19 C          -4.5537   -0.7724   -3.1000 C.ar    1  UNL1        0.0276
     20 N          -4.7846   -0.6603   -1.7792 N.ar    1  UNL1       -0.2627
     21 C          -3.8227   -0.3848   -0.8823 C.ar    1  UNL1        0.0353
     22 H           7.5102   -0.1637    1.0824 H       1  UNL1        0.2951
     23 H           4.3817   -0.9753   -0.3942 H       1  UNL1        0.0377
     24 H           4.6049    0.2813   -1.6306 H       1  UNL1        0.0377
     25 H           3.1982    0.5310    1.1101 H       1  UNL1        0.0270
     26 H           3.4152    1.9348   -0.0801 H       1  UNL1        0.0270
     27 H           1.8440   -0.6509   -0.7285 H       1  UNL1        0.0268
     28 H           2.0683    0.8270   -1.7173 H       1  UNL1        0.0268
     29 H           0.9995    2.1834   -0.0826 H       1  UNL1        0.0308
     30 H           0.8418    0.7188    1.0607 H       1  UNL1        0.0308
     31 H          -0.2396    0.8805   -1.8674 H       1  UNL1        0.0578
     32 H          -0.8559    1.6674    1.9338 H       1  UNL1        0.0624
     33 H          -1.1066    0.9185    4.2779 H       1  UNL1        0.0618
     34 H          -2.2031   -1.2874    4.7594 H       1  UNL1        0.0618
     35 H          -2.9519   -2.6686    2.8795 H       1  UNL1        0.0618
     36 H          -2.6044   -1.9304    0.5864 H       1  UNL1        0.0624
     37 H          -1.2564   -0.1916   -3.0200 H       1  UNL1        0.0625
     38 H          -3.0936   -0.6896   -4.6158 H       1  UNL1        0.0633
     39 H          -5.3555   -0.9923   -3.7691 H       1  UNL1        0.0829
     40 H          -4.0550   -0.2671    0.1627 H       1  UNL1        0.0836
@<TRIPOS>BOND
     1     1     2    2
     2     2     3    1
     3     2     4    1
     4     4     5    1
     5     5     6    1
     6     6     7    1
     7     7     8    1
     8     8     9    2
     9     9    10    1
    10    10    11   ar
    11    11    12   ar
    12    12    13   ar
    13    13    14   ar
    14    14    15   ar
    15     9    16    1
    16    16    17   ar
    17    17    18   ar
    18    18    19   ar
    19    19    20   ar
    20    20    21   ar
    21    15    10   ar
    22    21    16   ar
    23     3    22    1
    24     4    23    1
    25     4    24    1
    26     5    25    1
    27     5    26    1
    28     6    27    1
    29     6    28    1
    30     7    29    1
    31     7    30    1
    32     8    31    1
    33    11    32    1
    34    12    33    1
    35    13    34    1
    36    14    35    1
    37    15    36    1
    38    17    37    1
    39    18    38    1
    40    19    39    1
    41    21    40    1
