@<TRIPOS>MOLECULE
*****
 38 40 0 0 0
SMALL
GASTEIGER

@<TRIPOS>ATOM
      1 C           5.6199    0.4126   -0.0396 C.3     1  UNL1        0.0596
      2 S           4.2240    1.4905   -0.2625 S.O2    1  UNL1       -0.0059
      3 O           4.3220    2.5796    0.7892 O.2     1  UNL1       -0.1696
      4 O           4.3183    2.1728   -1.6002 O.2     1  UNL1       -0.1696
      5 C           2.7076    0.6460   -0.1287 C.ar    1  UNL1        0.0879
      6 C           2.0936    0.0997   -1.2322 C.ar    1  UNL1       -0.0363
      7 C           0.8881   -0.5744   -1.1421 C.ar    1  UNL1       -0.0508
      8 C           0.3014   -0.6927    0.0930 C.ar    1  UNL1       -0.0010
      9 C          -0.9838   -1.4035    0.2175 C.ar    1  UNL1        0.0551
     10 N          -1.1818   -2.7130    0.4514 N.ar    1  UNL1       -0.3482
     11 C          -2.4888   -2.9920    0.4945 C.ar    1  UNL1        0.0888
     12 S          -3.2062   -4.5922    0.7778 S.3     1  UNL1        0.0075
     13 C          -1.9453   -5.7947    1.0067 C.1     1  UNL1        0.1394
     14 N          -1.0968   -6.5793    1.1584 N.1     1  UNL1       -0.1834
     15 C          -3.1481   -1.8054    0.2782 C.ar    1  UNL1       -0.0212
     16 C          -2.2147   -0.7844    0.1001 C.ar    1  UNL1        0.0085
     17 C          -2.4493    0.6320   -0.1538 C.ar    1  UNL1       -0.0157
     18 C          -3.1120    1.3811    0.7962 C.ar    1  UNL1       -0.0513
     19 C          -3.3728    2.7200    0.6330 C.ar    1  UNL1       -0.0259
     20 C          -2.9613    3.3478   -0.5194 C.ar    1  UNL1        0.1234
     21 F          -3.2302    4.6846   -0.6674 F       1  UNL1       -0.2055
     22 C          -2.2978    2.6329   -1.4883 C.ar    1  UNL1       -0.0259
     23 C          -2.0440    1.2770   -1.3022 C.ar    1  UNL1       -0.0513
     24 C           0.9076   -0.1501    1.2022 C.ar    1  UNL1       -0.0508
     25 C           2.0899    0.5074    1.0916 C.ar    1  UNL1       -0.0363
     26 H           5.4895   -0.2939    0.7802 H       1  UNL1        0.0468
     27 H           6.5165    1.0376    0.2140 H       1  UNL1        0.0468
     28 H           5.7712   -0.1600   -0.9760 H       1  UNL1        0.0468
     29 H           2.5864    0.2132   -2.1827 H       1  UNL1        0.0637
     30 H           0.4517   -0.9812   -2.0338 H       1  UNL1        0.0625
     31 H          -0.4236   -3.4153    0.5813 H       1  UNL1        0.1664
     32 H          -4.2111   -1.6135    0.2379 H       1  UNL1        0.0650
     33 H          -3.4539    0.9224    1.7237 H       1  UNL1        0.0624
     34 H          -3.9040    3.2601    1.4265 H       1  UNL1        0.0646
     35 H          -1.9904    3.1609   -2.3780 H       1  UNL1        0.0646
     36 H          -1.5181    0.7160   -2.0732 H       1  UNL1        0.0624
     37 H           0.3881   -0.2775    2.1644 H       1  UNL1        0.0625
     38 H           2.5584    0.9286    1.9622 H       1  UNL1        0.0637
@<TRIPOS>BOND
     1     1     2    1
     2     2     3    2
     3     2     4    2
     4     2     5    1
     5     5     6   ar
     6     6     7   ar
     7     7     8   ar
     8     8     9    1
     9     9    10   ar
    10    10    11   ar
    11    11    12    1
    12    12    13    1
    13    13    14    3
    14    11    15   ar
    15    15    16   ar
    16    16    17    1
    17    17    18   ar
    18    18    19   ar
    19    19    20   ar
    20    20    21    1
    21    20    22   ar
    22    22    23   ar
    23     8    24   ar
    24    24    25   ar
    25    25     5   ar
    26    16     9   ar
    27    23    17   ar
    28     1    26    1
    29     1    27    1
    30     1    28    1
    31     6    29    1
    32     7    30    1
    33    10    31    1
    34    15    32    1
    35    18    33    1
    36    19    34    1
    37    22    35    1
    38    23    36    1
    39    24    37    1
    40    25    38    1
