
     RDKit          3D

 38 40  0  0  0  0  0  0  0  0999 V2000
    5.6199    0.4126   -0.0396 C   0  0  0  0  0  0  0  0  0  0  0  0
    4.2240    1.4905   -0.2625 S   0  0  0  0  0  6  0  0  0  0  0  0
    4.3220    2.5796    0.7892 O   0  0  0  0  0  0  0  0  0  0  0  0
    4.3183    2.1728   -1.6002 O   0  0  0  0  0  0  0  0  0  0  0  0
    2.7076    0.6460   -0.1287 C   0  0  0  0  0  0  0  0  0  0  0  0
    2.0936    0.0997   -1.2322 C   0  0  0  0  0  0  0  0  0  0  0  0
    0.8881   -0.5744   -1.1421 C   0  0  0  0  0  0  0  0  0  0  0  0
    0.3014   -0.6927    0.0930 C   0  0  0  0  0  0  0  0  0  0  0  0
   -0.9838   -1.4035    0.2175 C   0  0  0  0  0  0  0  0  0  0  0  0
   -1.1818   -2.7130    0.4514 N   0  0  0  0  0  0  0  0  0  0  0  0
   -2.4888   -2.9920    0.4945 C   0  0  0  0  0  0  0  0  0  0  0  0
   -3.2062   -4.5922    0.7778 S   0  0  0  0  0  0  0  0  0  0  0  0
   -1.9453   -5.7947    1.0067 C   0  0  0  0  0  0  0  0  0  0  0  0
   -1.0968   -6.5793    1.1584 N   0  0  0  0  0  0  0  0  0  0  0  0
   -3.1481   -1.8054    0.2782 C   0  0  0  0  0  0  0  0  0  0  0  0
   -2.2147   -0.7844    0.1001 C   0  0  0  0  0  0  0  0  0  0  0  0
   -2.4493    0.6320   -0.1538 C   0  0  0  0  0  0  0  0  0  0  0  0
   -3.1120    1.3811    0.7962 C   0  0  0  0  0  0  0  0  0  0  0  0
   -3.3728    2.7200    0.6330 C   0  0  0  0  0  0  0  0  0  0  0  0
   -2.9613    3.3478   -0.5194 C   0  0  0  0  0  0  0  0  0  0  0  0
   -3.2302    4.6846   -0.6674 F   0  0  0  0  0  0  0  0  0  0  0  0
   -2.2978    2.6329   -1.4883 C   0  0  0  0  0  0  0  0  0  0  0  0
   -2.0440    1.2770   -1.3022 C   0  0  0  0  0  0  0  0  0  0  0  0
    0.9076   -0.1501    1.2022 C   0  0  0  0  0  0  0  0  0  0  0  0
    2.0899    0.5074    1.0916 C   0  0  0  0  0  0  0  0  0  0  0  0
    5.4895   -0.2939    0.7802 H   0  0  0  0  0  0  0  0  0  0  0  0
    6.5165    1.0376    0.2140 H   0  0  0  0  0  0  0  0  0  0  0  0
    5.7712   -0.1600   -0.9760 H   0  0  0  0  0  0  0  0  0  0  0  0
    2.5864    0.2132   -2.1827 H   0  0  0  0  0  0  0  0  0  0  0  0
    0.4517   -0.9812   -2.0338 H   0  0  0  0  0  0  0  0  0  0  0  0
   -0.4236   -3.4153    0.5813 H   0  0  0  0  0  0  0  0  0  0  0  0
   -4.2111   -1.6135    0.2379 H   0  0  0  0  0  0  0  0  0  0  0  0
   -3.4539    0.9224    1.7237 H   0  0  0  0  0  0  0  0  0  0  0  0
   -3.9040    3.2601    1.4265 H   0  0  0  0  0  0  0  0  0  0  0  0
   -1.9904    3.1609   -2.3780 H   0  0  0  0  0  0  0  0  0  0  0  0
   -1.5181    0.7160   -2.0732 H   0  0  0  0  0  0  0  0  0  0  0  0
    0.3881   -0.2775    2.1644 H   0  0  0  0  0  0  0  0  0  0  0  0
    2.5584    0.9286    1.9622 H   0  0  0  0  0  0  0  0  0  0  0  0
  1  2  1  0
  2  3  2  0
  2  4  2  0
  2  5  1  0
  5  6  2  0
  6  7  1  0
  7  8  2  0
  8  9  1  0
  9 10  1  0
 10 11  1  0
 11 12  1  0
 12 13  1  0
 13 14  3  0
 11 15  2  0
 15 16  1  0
 16 17  1  0
 17 18  2  0
 18 19  1  0
 19 20  2  0
 20 21  1  0
 20 22  1  0
 22 23  2  0
  8 24  1  0
 24 25  2  0
 25  5  1  0
 16  9  2  0
 23 17  1  0
  1 26  1  0
  1 27  1  0
  1 28  1  0
  6 29  1  0
  7 30  1  0
 10 31  1  0
 15 32  1  0
 18 33  1  0
 19 34  1  0
 22 35  1  0
 23 36  1  0
 24 37  1  0
 25 38  1  0
M  END
$$$$
