@<TRIPOS>MOLECULE
*****
 377 381 0 0 0
SMALL
GASTEIGER

@<TRIPOS>ATOM
      1 CE         -3.0853    9.9119    0.9047 C.3    13  MET13      -0.0181
      2 SD         -1.8614   10.4180   -0.3458 S.3    13  MET13      -0.1641
      3 CG         -0.6545    9.0496   -0.4351 C.3    13  MET13      -0.0044
      4 CB         -1.4147    7.8741   -1.0088 C.3    13  MET13      -0.0169
      5 CA         -0.5242    6.6493   -1.0966 C.3    13  MET13       0.1002
      6 N          -0.0573    6.3003    0.2664 N.am   13  MET13      -0.3024
      7 C          -0.3816    5.0724    0.8724 C.2    12  ARG12       0.2339
      8 O          -1.1180    4.3006    0.1299 O.2    12  ARG12      -0.2738
      9 CA          0.0157    4.5745    2.1900 C.3    12  ARG12       0.0995
     10 CB          0.7874    5.4619    3.0708 C.3    12  ARG12      -0.0230
     11 CG          0.1627    6.7283    3.5505 C.3    12  ARG12      -0.0165
     12 CD         -1.0776    6.3987    4.3669 C.3    12  ARG12       0.1048
     13 NE         -1.7134    7.5965    4.8682 N.pl3  12  ARG12      -0.1138
     14 CZ         -2.4852    7.4730    5.8860 C.cat  12  ARG12       0.3765
     15 NH1        -2.7517    6.2397    6.5497 N.pl3  12  ARG12      -0.2893
     16 NH2        -3.1154    8.6353    6.3965 N.pl3  12  ARG12      -0.2893
     17 N           0.5448    3.2354    1.9992 N.am   12  ARG12      -0.3025
     18 C           0.3852    2.1387    2.8627 C.2    11  ARG11       0.2339
     19 O          -0.2480    2.2758    3.9014 O.2    11  ARG11      -0.2738
     20 CA          1.0050    0.7995    2.5018 C.3    11  ARG11       0.0995
     21 CB         -0.0850   -0.0957    2.0586 C.3    11  ARG11      -0.0230
     22 CG         -0.8339    0.3940    0.8609 C.3    11  ARG11      -0.0165
     23 CD         -0.0021    0.5377   -0.3941 C.3    11  ARG11       0.1048
     24 NE         -0.8846    0.9928   -1.4210 N.pl3  11  ARG11      -0.1138
     25 CZ         -0.7510    1.9911   -2.1873 C.cat  11  ARG11       0.3765
     26 NH1         0.3194    2.8837   -2.1937 N.pl3  11  ARG11      -0.2893
     27 NH2        -1.8258    2.2071   -3.1268 N.pl3  11  ARG11      -0.2893
     28 N           1.6492    0.2902    3.7111 N.am   11  ARG11      -0.3025
     29 C           2.8696    0.8302    4.1621 C.2    10  LEU10       0.2340
     30 O           3.3413    1.7869    3.4746 O.2    10  LEU10      -0.2738
     31 CA          3.6598    0.4099    5.3201 C.3    10  LEU10       0.0996
     32 CB          3.0174    0.5233    6.6512 C.3    10  LEU10      -0.0236
     33 CG          1.7684   -0.2413    6.8920 C.3    10  LEU10      -0.0446
     34 CD1         1.2970    0.0129    8.3565 C.3    10  LEU10      -0.0626
     35 CD2         1.8480   -1.7181    6.7311 C.3    10  LEU10      -0.0626
     36 N           4.9209    1.1750    5.3519 N.am   10  LEU10      -0.3025
     37 C           6.1018    0.5705    4.8795 C.2     9  GLU9        0.2340
     38 O           6.0380   -0.6256    4.4334 O.2     9  GLU9       -0.2738
     39 CA          7.3887    1.2544    4.8791 C.3     9  GLU9        0.0999
     40 CB          7.2659    2.5564    4.0783 C.3     9  GLU9       -0.0159
     41 CG          8.5485    3.3330    4.1227 C.3     9  GLU9        0.0469
     42 CD          8.3882    4.5787    3.3305 C.2     9  GLU9        0.3048
     43 OE1         7.3282    4.8580    2.7361 O.2     9  GLU9       -0.2510
     44 OE2         9.4485    5.4903    3.2314 O.3     9  GLU9       -0.4806
     45 N           8.3958    0.3724    4.3442 N.am    9  GLU9       -0.3025
     46 C           8.8684    0.3251    3.0283 C.2     8  ARG8        0.2339
     47 O           8.4730    1.0408    2.1274 O.2     8  ARG8       -0.2738
     48 CA          9.9513   -0.7037    2.7194 C.3     8  ARG8        0.0995
     49 CB         11.2367   -0.0759    3.0837 C.3     8  ARG8       -0.0230
     50 CG         12.4368   -0.9551    2.8420 C.3     8  ARG8       -0.0165
     51 CD         13.6923   -0.1769    3.2493 C.3     8  ARG8        0.1048
     52 NE         14.8369   -1.0090    3.0050 N.pl3   8  ARG8       -0.1138
     53 CZ         15.3346   -1.1931    1.8261 C.cat   8  ARG8        0.3765
     54 NH1        14.7582   -0.5675    0.7003 N.pl3   8  ARG8       -0.2893
     55 NH2        16.4663   -2.0133    1.6833 N.pl3   8  ARG8       -0.2893
     56 N           9.8530   -1.1843    1.3628 N.am    8  ARG8       -0.3027
     57 C           8.5992   -1.5634    0.8533 C.2     7  GLY7        0.2308
     58 O           7.5938   -1.3755    1.6379 O.2     7  GLY7       -0.2741
     59 CA          8.3004   -2.1552   -0.4662 C.3     7  GLY7        0.0882
     60 N           6.8877   -2.2645   -0.6269 N.am    7  GLY7       -0.3052
     61 C           6.2709   -3.0263   -1.6508 C.2     6  TYR6        0.2341
     62 O           6.9266   -3.6772   -2.4495 O.2     6  TYR6       -0.2738
     63 CA          4.7668   -2.9993   -1.6829 C.3     6  TYR6        0.1034
     64 CB          4.2538   -1.7253   -2.1532 C.3     6  TYR6       -0.0007
     65 CG          4.6691   -0.4937   -1.4998 C.ar    6  TYR6       -0.0449
     66 CD1         5.7944    0.1427   -2.0778 C.ar    6  TYR6       -0.0551
     67 CE1         6.2830    1.3166   -1.5771 C.ar    6  TYR6       -0.0199
     68 CZ          5.6736    1.8976   -0.4943 C.ar    6  TYR6        0.1169
     69 OH          6.1248    3.0977    0.0778 O.3     6  TYR6       -0.5068
     70 CE2         4.5714    1.2794    0.0697 C.ar    6  TYR6       -0.0199
     71 CD2         4.0675    0.0748   -0.4335 C.ar    6  TYR6       -0.0551
     72 N           4.1357   -3.6995   -0.6362 N.am    6  TYR6       -0.3022
     73 C           3.6443   -5.0212   -0.6659 C.2     5  ARG5        0.2340
     74 O           3.7129   -5.7116   -1.7288 O.2     5  ARG5       -0.2738
     75 CA          3.0460   -5.5837    0.5862 C.3     5  ARG5        0.0995
     76 CB          4.1173   -5.8787    1.5975 C.3     5  ARG5       -0.0230
     77 CG          4.9471   -4.7461    2.0604 C.3     5  ARG5       -0.0165
     78 CD          5.9606   -5.3345    3.0748 C.3     5  ARG5        0.1048
     79 NE          6.7829   -6.2893    2.3278 N.pl3   5  ARG5       -0.1138
     80 CZ          7.8322   -6.7859    2.8776 C.cat   5  ARG5        0.3765
     81 NH1         8.2422   -6.4611    4.1888 N.pl3   5  ARG5       -0.2893
     82 NH2         8.6604   -7.7083    2.1572 N.pl3   5  ARG5       -0.2893
     83 N           2.4023   -6.8723    0.2566 N.am    5  ARG5       -0.3025
     84 C           1.0287   -7.0032   -0.0290 C.2     4  GLN4        0.2340
     85 O           0.2839   -5.9954   -0.0405 O.2     4  GLN4       -0.2738
     86 CA          0.3781   -8.3386   -0.3344 C.3     4  GLN4        0.0999
     87 CB          1.2451   -9.1911   -1.1896 C.3     4  GLN4       -0.0177
     88 CG          0.6318  -10.5225   -1.5098 C.3     4  GLN4        0.0259
     89 CD          1.5636  -11.2859   -2.3829 C.2     4  GLN4        0.2106
     90 NE2         1.2110  -12.5806   -2.8408 N.am    4  GLN4       -0.3293
     91 OE1         2.6488  -10.7831   -2.7091 O.2     4  GLN4       -0.2760
     92 N          -0.9619   -8.1633   -0.7847 N.am    4  GLN4       -0.3025
     93 C          -2.1159   -7.9136   -0.0063 C.2     3  ALA3        0.2337
     94 O          -1.9628   -7.8143    1.2368 O.2     3  ALA3       -0.2738
     95 CA         -3.4380   -7.7699   -0.6471 C.3     3  ALA3        0.0966
     96 CB         -3.2572   -7.5150   -2.1550 C.3     3  ALA3       -0.0381
     97 N          -4.2361   -6.6777   -0.1645 N.am    3  ALA3       -0.3028
     98 C          -5.6241   -6.7597    0.1081 C.2     2  ALA2        0.2337
     99 O          -6.2473   -7.8146   -0.0518 O.2     2  ALA2       -0.2738
    100 CA         -6.2672   -5.4719    0.5962 C.3     2  ALA2        0.0966
    101 CB         -5.5190   -5.0622    1.8218 C.3     2  ALA2       -0.0381
    102 N          -7.6807   -5.6502    0.7556 N.am    2  ALA2       -0.3030
    103 C          -8.6171   -5.4010   -0.3224 C.2     1  TRP1        0.2308
    104 O          -8.0608   -5.0255   -1.3840 O.2     1  TRP1       -0.2741
    105 CA        -10.0368   -5.5930   -0.1526 C.3     1  TRP1        0.0863
    106 N         -10.4097   -5.7375    1.2653 N.3     1  TRP1       -0.3197
    107 CB        -10.9171   -4.5676   -0.7567 C.3     1  TRP1       -0.0019
    108 CG        -10.8067   -4.4051   -2.2232 C.ar    1  TRP1       -0.0204
    109 CD1       -11.4596   -5.2370   -3.1589 C.ar    1  TRP1        0.0060
    110 NE1       -11.0919   -4.8926   -4.3951 N.ar    1  TRP1       -0.3604
    111 CE2       -10.2324   -3.8779   -4.3392 C.ar    1  TRP1        0.0467
    112 CZ2        -9.5892   -3.1496   -5.3257 C.ar    1  TRP1       -0.0378
    113 CH2        -8.7504   -2.1012   -5.0299 C.ar    1  TRP1       -0.0598
    114 CZ3        -8.5778   -1.8030   -3.6796 C.ar    1  TRP1       -0.0611
    115 CE3        -9.2093   -2.5174   -2.7056 C.ar    1  TRP1       -0.0523
    116 CD2       -10.0536   -3.5743   -3.0050 C.ar    1  TRP1        0.0029
    117 C           0.6896    6.9014   -1.9178 C.2    13  MET13       0.2340
    118 O           1.6699    7.5528   -1.4272 O.2    13  MET13      -0.2738
    119 N           0.8686    6.4551   -3.2548 N.am   14  SER14      -0.3006
    120 CA          2.0609    6.6984   -4.0536 C.3    14  SER14       0.1226
    121 CB          3.1653    5.7112   -3.6151 C.3    14  SER14       0.0711
    122 OG          2.7571    4.4273   -3.8134 O.3    14  SER14      -0.3927
    123 C           1.7714    6.4131   -5.4704 C.2    14  SER14       0.2362
    124 O           0.6779    6.8140   -5.9603 O.2    14  SER14      -0.2737
    125 N           2.6574    5.6995   -6.3045 N.am   15  ASP15      -0.3019
    126 CA          2.3576    5.3792   -7.7062 C.3    15  ASP15       0.1094
    127 CB          3.5535    4.9457   -8.4744 C.3    15  ASP15       0.0716
    128 CG          4.6412    5.9290   -8.5165 C.2    15  ASP15       0.3070
    129 OD1         5.4231    6.0224   -7.5205 O.2    15  ASP15      -0.2509
    130 OD2         4.8284    6.7460   -9.5988 O.3    15  ASP15      -0.4806
    131 C           1.3055    4.2936   -7.6821 C.2    15  ASP15       0.2345
    132 O           0.5039    4.3025   -6.6836 O.2    15  ASP15      -0.2737
    133 N           1.1259    3.2787   -8.6463 N.am   16  GLU16      -0.3025
    134 CA          0.0292    2.3300   -8.4271 C.3    16  GLU16       0.0999
    135 CB         -0.6311    1.9482   -9.7202 C.3    16  GLU16      -0.0159
    136 CG         -1.7349    0.9771   -9.4243 C.3    16  GLU16       0.0469
    137 CD         -2.4322    0.5372  -10.6572 C.2    16  GLU16       0.3048
    138 OE1        -3.3940   -0.2663  -10.5138 O.2    16  GLU16      -0.2510
    139 OE2        -2.0986    0.9472  -11.9311 O.3    16  GLU16      -0.4806
    140 C           0.5227    1.0718   -7.7810 C.2    16  GLU16       0.2340
    141 O           1.5297    0.4711   -8.1920 O.2    16  GLU16      -0.2738
    142 N          -0.2053    0.6053   -6.6718 N.am   17  PHE17      -0.3022
    143 CA          0.0666   -0.5607   -5.8838 C.3    17  PHE17       0.1034
    144 CB          1.0569   -0.2875   -4.7806 C.3    17  PHE17      -0.0007
    145 CG          2.3589    0.1987   -5.3277 C.ar   17  PHE17      -0.0451
    146 CD1         2.5738    1.5600   -5.4041 C.ar   17  PHE17      -0.0585
    147 CE1         3.7410    2.0374   -5.9102 C.ar   17  PHE17      -0.0615
    148 CZ          4.7511    1.1904   -6.3659 C.ar   17  PHE17      -0.0617
    149 CE2         4.5084   -0.1603   -6.2757 C.ar   17  PHE17      -0.0615
    150 CD2         3.3295   -0.6426   -5.7621 C.ar   17  PHE17      -0.0585
    151 C          -1.1864   -1.1731   -5.3908 C.2    17  PHE17       0.2343
    152 O          -2.1401   -1.3634   -6.2131 O.2    17  PHE17      -0.2738
    153 N          -1.3599   -1.5493   -4.0294 N.am   18  VAL18      -0.3022
    154 CA         -2.5194   -2.1555   -3.4573 C.3    18  VAL18       0.1017
    155 C          -3.6235   -1.2704   -3.0527 C.2    18  VAL18       0.2342
    156 O          -4.0288   -0.3236   -3.8051 O.2    18  VAL18      -0.2738
    157 N          -4.3410   -1.3874   -1.8154 N.am   19  ASP19      -0.3019
    158 CA         -5.4478   -0.5623   -1.5014 C.3    19  ASP19       0.1094
    159 CB         -6.4707   -1.1998   -0.6220 C.3    19  ASP19       0.0716
    160 CG         -5.9186   -1.5938    0.7104 C.2    19  ASP19       0.3070
    161 OD1        -4.6952   -1.4635    0.9428 O.2    19  ASP19      -0.2509
    162 OD2        -6.7244   -2.1037    1.7037 O.3    19  ASP19      -0.4806
    163 C          -5.0729    0.7303   -0.8567 C.2    19  ASP19       0.2345
    164 O          -3.8927    1.0338   -0.6493 O.2    19  ASP19      -0.2737
    165 N          -6.1061    1.6170   -0.4800 N.am   20  SER20      -0.3006
    166 CA         -5.9779    2.8991    0.1358 C.3    20  SER20       0.1226
    167 CB         -6.7843    3.9800   -0.5023 C.3    20  SER20       0.0711
    168 OG         -8.1440    3.7652   -0.5121 O.3    20  SER20      -0.3927
    169 C          -6.2272    2.8713    1.6113 C.2    20  SER20       0.2362
    170 O          -5.6749    2.0000    2.3134 O.2    20  SER20      -0.2737
    171 N          -7.0883    3.8130    2.2433 N.am   21  PHE21      -0.3021
    172 CA         -7.2711    3.7418    3.6724 C.3    21  PHE21       0.1034
    173 CB         -8.1003    4.8119    4.2754 C.3    21  PHE21      -0.0007
    174 CG         -7.6404    6.1991    4.0745 C.ar   21  PHE21      -0.0451
    175 CD1        -6.7820    6.8691    4.9087 C.ar   21  PHE21      -0.0585
    176 CE1        -6.4033    8.1772    4.6849 C.ar   21  PHE21      -0.0615
    177 CZ         -6.8806    8.8794    3.5965 C.ar   21  PHE21      -0.0617
    178 CE2        -7.7434    8.2066    2.7538 C.ar   21  PHE21      -0.0615
    179 CD2        -8.1266    6.9099    2.9631 C.ar   21  PHE21      -0.0585
    180 C          -8.0071    2.3993    3.9108 C.2    21  PHE21       0.2343
    181 O          -8.2776    1.7135    2.9360 O.2    21  PHE21      -0.2738
    182 N          -8.3462    1.9974    5.2142 N.am   22  LYS22      -0.3008
    183 CA         -9.0476    0.7163    5.4282 C.3    22  LYS22       0.1202
    184 CB         -8.1636   -0.1131    6.3061 C.3    22  LYS22      -0.0241
    185 CG         -8.7115   -1.4605    6.6259 C.3    22  LYS22      -0.0497
    186 CD         -7.7836   -2.2736    7.5091 C.3    22  LYS22      -0.0406
    187 CE         -6.4565   -2.4842    6.8319 C.3    22  LYS22      -0.0069
    188 NZ         -6.7093   -3.1721    5.5663 N.3    22  LYS22      -0.3300
    189 C         -10.3633    0.9578    6.0475 C.2    22  LYS22       0.3253
    190 O         -10.7026    2.1340    6.3516 O.2    22  LYS22      -0.2489
    191 OXT       -11.2513   -0.0663    6.3007 O.3    22  LYS22      -0.4793
    192 CB         -2.2833   -3.3468   -2.6039 C.3    18  VAL18      -0.0197
    193 CG1        -1.5852   -4.3878   -3.4903 C.3    18  VAL18      -0.0605
    194 CG2        -1.4285   -3.1481   -1.3972 C.3    18  VAL18      -0.0605
    195 HE1        -4.0881    9.7849    0.4569 H      13  MET13       0.0340
    196 HE2        -2.8326    8.9328    1.3793 H      13  MET13       0.0340
    197 HE3        -3.0664   10.6922    1.6808 H      13  MET13       0.0340
    198 HG1        -0.2521    8.8492    0.5775 H      13  MET13       0.0377
    199 HG2         0.1165    9.3399   -1.1842 H      13  MET13       0.0377
    200 HB1        -1.6965    8.1315   -2.0387 H      13  MET13       0.0296
    201 HB2        -2.3158    7.6156   -0.4578 H      13  MET13       0.0296
    202 HA         -1.0829    5.8329   -1.5065 H      13  MET13       0.0595
    203 H           0.5431    6.9534    0.7995 H      13  MET13       0.1495
    204 HA         -0.9846    4.4359    2.7929 H      12  ARG12       0.0594
    205 HB1         1.7052    5.8021    2.4774 H      12  ARG12       0.0289
    206 HB2         1.2716    4.9147    3.9308 H      12  ARG12       0.0289
    207 HG1        -0.1014    7.4591    2.7945 H      12  ARG12       0.0298
    208 HG2         0.8802    7.1831    4.3179 H      12  ARG12       0.0298
    209 HD1        -0.7571    5.8045    5.2339 H      12  ARG12       0.0693
    210 HD2        -1.8372    5.9150    3.7190 H      12  ARG12       0.0693
    211 HH11       -3.3249    5.4711    6.1494 H      12  ARG12       0.2546
    212 HH12       -2.3494    6.1008    7.5052 H      12  ARG12       0.2546
    213 HH21       -2.8595    9.5666    6.0072 H      12  ARG12       0.2546
    214 HH22       -3.8332    8.6091    7.1434 H      12  ARG12       0.2546
    215 H           1.1206    3.0469    1.1175 H      12  ARG12       0.1495
    216 HA          1.7814    1.0321    1.7742 H      11  ARG11       0.0594
    217 HB1        -0.8592   -0.1621    2.8805 H      11  ARG11       0.0289
    218 HB2         0.2793   -1.1229    1.8108 H      11  ARG11       0.0289
    219 HG1        -1.6153   -0.3755    0.6340 H      11  ARG11       0.0298
    220 HG2        -1.4142    1.3290    1.0708 H      11  ARG11       0.0298
    221 HD1         0.8748    1.1602   -0.2660 H      11  ARG11       0.0693
    222 HD2         0.2910   -0.5326   -0.6778 H      11  ARG11       0.0693
    223 HH11        1.1246    2.7216   -1.5561 H      11  ARG11       0.2546
    224 HH12        0.3209    3.7080   -2.8126 H      11  ARG11       0.2546
    225 HH21       -2.5603    2.8779   -2.8389 H      11  ARG11       0.2546
    226 HH22       -1.8960    1.7425   -4.0461 H      11  ARG11       0.2546
    227 H           1.2052   -0.4882    4.2085 H      11  ARG11       0.1495
    228 HA          3.9493   -0.6531    5.1322 H      10  LEU10       0.0594
    229 HB1         3.7479    0.1977    7.4619 H      10  LEU10       0.0290
    230 HB2         2.8097    1.5956    6.9358 H      10  LEU10       0.0290
    231 HG          0.8814    0.1572    6.3119 H      10  LEU10       0.0296
    232 HD11        0.4814   -0.6897    8.5744 H      10  LEU10       0.0232
    233 HD12        0.9682    1.0625    8.3793 H      10  LEU10       0.0232
    234 HD13        2.1678   -0.2029    8.9967 H      10  LEU10       0.0232
    235 HD21        2.8100   -2.0524    6.2424 H      10  LEU10       0.0232
    236 HD22        1.0317   -2.1792    6.1505 H      10  LEU10       0.0232
    237 HD23        1.8402   -2.2591    7.7145 H      10  LEU10       0.0232
    238 H           4.8917    2.1278    5.7129 H      10  LEU10       0.1495
    239 HA          7.6701    1.6273    5.8970 H       9  GLU9        0.0595
    240 HB1         6.8551    2.3483    3.0939 H       9  GLU9        0.0293
    241 HB2         6.5176    3.1755    4.6285 H       9  GLU9        0.0293
    242 HG1         9.4077    2.7394    3.8403 H       9  GLU9        0.0378
    243 HG2         8.6502    3.6943    5.1932 H       9  GLU9        0.0378
    244 HE2         9.2305    6.4676    3.0807 H       9  GLU9        0.2951
    245 H           8.8267   -0.3241    5.0466 H       9  GLU9        0.1495
    246 HA          9.6282   -1.5615    3.3590 H       8  ARG8        0.0594
    247 HB1        11.2021    0.1747    4.1707 H       8  ARG8        0.0289
    248 HB2        11.3411    0.8898    2.5172 H       8  ARG8        0.0289
    249 HG1        12.4817   -1.2734    1.7985 H       8  ARG8        0.0298
    250 HG2        12.4101   -1.8463    3.4992 H       8  ARG8        0.0298
    251 HD1        13.5932    0.0417    4.3532 H       8  ARG8        0.0693
    252 HD2        13.7596    0.8022    2.7478 H       8  ARG8        0.0693
    253 HH11       14.6732    0.4589    0.6660 H       8  ARG8        0.2546
    254 HH12       14.4036   -1.1055   -0.1173 H       8  ARG8        0.2546
    255 HH21       17.2349   -1.9511    2.3874 H       8  ARG8        0.2546
    256 HH22       16.5731   -2.6886    0.9023 H       8  ARG8        0.2546
    257 H          10.6855   -1.2491    0.7432 H       8  ARG8        0.1495
    258 HA1         8.7929   -1.5740   -1.2651 H       7  GLY7        0.0558
    259 HA2         8.7110   -3.1870   -0.5292 H       7  GLY7        0.0558
    260 H           6.2119   -1.7655    0.0364 H       7  GLY7        0.1492
    261 HA          4.6112   -3.7603   -2.6249 H       6  TYR6        0.0598
    262 HB1         3.0998   -1.7039   -2.1355 H       6  TYR6        0.0336
    263 HB2         4.4604   -1.6481   -3.2735 H       6  TYR6        0.0336
    264 HD1         6.2999   -0.2833   -2.9352 H       6  TYR6        0.0621
    265 HE1         7.1643    1.8131   -2.0185 H       6  TYR6        0.0654
    266 HH          5.7468    3.9699   -0.2825 H       6  TYR6        0.2921
    267 HE2         4.0848    1.7345    0.9025 H       6  TYR6        0.0654
    268 HD2         3.2016   -0.3693    0.0610 H       6  TYR6        0.0621
    269 H           3.9863   -3.1522    0.2703 H       6  TYR6        0.1495
    270 HA          2.2504   -4.9117    0.9114 H       5  ARG5        0.0594
    271 HB1         4.8078   -6.6315    1.1163 H       5  ARG5        0.0289
    272 HB2         3.7243   -6.4232    2.4929 H       5  ARG5        0.0289
    273 HG1         5.6319   -4.3505    1.2616 H       5  ARG5        0.0298
    274 HG2         4.4073   -3.9283    2.5418 H       5  ARG5        0.0298
    275 HD1         6.5821   -4.4966    3.4307 H       5  ARG5        0.0693
    276 HD2         5.3958   -5.8523    3.8484 H       5  ARG5        0.0693
    277 HH11        8.2121   -7.1833    4.9355 H       5  ARG5        0.2546
    278 HH12        8.5913   -5.5258    4.4387 H       5  ARG5        0.2546
    279 HH21        9.6961   -7.5202    2.1775 H       5  ARG5        0.2546
    280 HH22        8.2780   -8.5119    1.6447 H       5  ARG5        0.2546
    281 H           2.9936   -7.7417    0.2233 H       5  ARG5        0.1495
    282 HA          0.2943   -8.8512    0.6862 H       4  GLN4        0.0595
    283 HB1         1.4268   -8.6695   -2.1719 H       4  GLN4        0.0292
    284 HB2         2.2559   -9.3475   -0.7388 H       4  GLN4        0.0292
    285 HG1         0.4329  -11.1058   -0.5810 H       4  GLN4        0.0359
    286 HG2        -0.3153  -10.3931   -2.0513 H       4  GLN4        0.0359
    287 HE21        0.2677  -12.9586   -2.6659 H       4  GLN4        0.1449
    288 HE22        1.8955  -13.1722   -3.3652 H       4  GLN4        0.1449
    289 H          -1.1462   -8.2208   -1.8352 H       4  GLN4        0.1495
    290 HA         -3.9844   -8.7404   -0.6027 H       3  ALA3        0.0592
    291 HB1        -4.2437   -7.1364   -2.5002 H       3  ALA3        0.0252
    292 HB2        -2.9641   -8.4500   -2.6573 H       3  ALA3        0.0252
    293 HB3        -2.4455   -6.7820   -2.2636 H       3  ALA3        0.0252
    294 H          -3.7145   -5.7744   -0.0095 H       3  ALA3        0.1495
    295 HA         -6.0373   -4.7628   -0.2589 H       2  ALA2        0.0592
    296 HB1        -6.1738   -4.7142    2.6590 H       2  ALA2        0.0252
    297 HB2        -4.9179   -5.9043    2.2377 H       2  ALA2        0.0252
    298 HB3        -4.7818   -4.2440    1.6390 H       2  ALA2        0.0252
    299 H          -8.0655   -5.9584    1.6523 H       2  ALA2        0.1495
    300 HA        -10.3691   -6.5849   -0.6351 H       1  TRP1        0.0557
    301 H1         -9.9774   -4.9749    1.8382 H       1  TRP1        0.1189
    302 H2        -11.4517   -5.7143    1.3748 H       1  TRP1        0.1189
    303 HB1       -12.0011   -4.7647   -0.5122 H       1  TRP1        0.0334
    304 HB2       -10.6448   -3.5616   -0.3099 H       1  TRP1        0.0334
    305 HD1       -12.1499   -6.0376   -2.8820 H       1  TRP1        0.0810
    306 HE1       -11.4203   -5.3577   -5.2957 H       1  TRP1        0.1653
    307 HZ2        -9.7285   -3.4070   -6.3570 H       1  TRP1        0.0638
    308 HH2        -8.2612   -1.5417   -5.8097 H       1  TRP1        0.0618
    309 HZ3        -7.9172   -0.9730   -3.4724 H       1  TRP1        0.0618
    310 HE3        -9.0792   -2.2909   -1.6597 H       1  TRP1        0.0624
    311 H           0.1035    5.9339   -3.7021 H      14  SER14       0.1496
    312 HA          2.4999    7.6696   -3.8768 H      14  SER14       0.0618
    313 HB1         3.3559    5.8438   -2.5240 H      14  SER14       0.0580
    314 HB2         4.1131    5.9638   -4.1048 H      14  SER14       0.0580
    315 H           3.0172    3.7884   -3.1041 H      14  SER14       0.2095
    316 H           3.5581    5.3934   -5.9123 H      15  ASP15       0.1495
    317 HA          1.8408    6.2099   -8.2082 H      15  ASP15       0.0600
    318 HB1         3.9270    3.9297   -8.1749 H      15  ASP15       0.0401
    319 HB2         3.2133    4.7856   -9.5282 H      15  ASP15       0.0401
    320 HD2         5.5188    7.5124   -9.5198 H      15  ASP15       0.2951
    321 H           1.7201    3.1952   -9.4752 H      16  GLU16       0.1495
    322 HA         -0.6955    2.8333   -7.7744 H      16  GLU16       0.0595
    323 HB1         0.1302    1.4132  -10.3464 H      16  GLU16       0.0293
    324 HB2        -1.0681    2.8319  -10.2432 H      16  GLU16       0.0293
    325 HG1        -1.3668    0.0680   -8.9119 H      16  GLU16       0.0378
    326 HG2        -2.5105    1.4479   -8.7716 H      16  GLU16       0.0378
    327 HE2        -2.0700    0.2694  -12.6898 H      16  GLU16       0.2951
    328 H          -1.0564    1.1766   -6.3665 H      17  PHE17       0.1495
    329 HA          0.6058   -1.2776   -6.5649 H      17  PHE17       0.0598
    330 HB1         1.2675   -1.2047   -4.1735 H      17  PHE17       0.0336
    331 HB2         0.6483    0.4741   -4.1277 H      17  PHE17       0.0336
    332 HD1         1.7831    2.2340   -5.0603 H      17  PHE17       0.0620
    333 HE1         3.9455    3.0730   -5.9761 H      17  PHE17       0.0618
    334 HZ          5.6684    1.5341   -6.7782 H      17  PHE17       0.0618
    335 HE2         5.2986   -0.8196   -6.6210 H      17  PHE17       0.0618
    336 HD2         3.2004   -1.7204   -5.7179 H      17  PHE17       0.0620
    337 H          -0.5276   -1.3454   -3.4061 H      18  VAL18       0.1495
    338 HA         -3.0039   -2.6479   -4.4295 H      18  VAL18       0.0597
    339 H          -3.9787   -2.1329   -1.1437 H      19  ASP19       0.1495
    340 HA         -5.9135   -0.2335   -2.4635 H      19  ASP19       0.0600
    341 HB1        -7.3846   -0.6335   -0.4615 H      19  ASP19       0.0401
    342 HB2        -6.7973   -2.1757   -1.0753 H      19  ASP19       0.0401
    343 HD2        -6.5113   -1.8494    2.6644 H      19  ASP19       0.2951
    344 H          -7.1138    1.3232   -0.6904 H      20  SER20       0.1496
    345 HA         -4.8840    3.1993    0.0626 H      20  SER20       0.0618
    346 HB1        -6.5346    4.9598   -0.0216 H      20  SER20       0.0580
    347 HB2        -6.4772    4.1319   -1.5797 H      20  SER20       0.0580
    348 H          -8.3339    3.1258   -1.2676 H      20  SER20       0.2095
    349 H          -7.5663    4.5292    1.6419 H      21  PHE21       0.1495
    350 HA         -6.3014    3.6300    4.1669 H      21  PHE21       0.0598
    351 HB1        -9.1461    4.7134    3.9065 H      21  PHE21       0.0336
    352 HB2        -8.0799    4.6612    5.4009 H      21  PHE21       0.0336
    353 HD1        -6.4199    6.3057    5.7714 H      21  PHE21       0.0620
    354 HE1        -5.7354    8.6460    5.3687 H      21  PHE21       0.0618
    355 HZ         -6.6194    9.8896    3.3596 H      21  PHE21       0.0618
    356 HE2        -8.1501    8.7399    1.8862 H      21  PHE21       0.0618
    357 HD2        -8.8080    6.4390    2.2612 H      21  PHE21       0.0620
    358 H          -8.0982    2.5961    6.0201 H      22  LYS22       0.1496
    359 HA         -9.1796    0.1927    4.4592 H      22  LYS22       0.0614
    360 HB1        -7.1783   -0.2431    5.7975 H      22  LYS22       0.0288
    361 HB2        -7.9844    0.4386    7.2550 H      22  LYS22       0.0288
    362 HG1        -8.9832   -2.0186    5.7023 H      22  LYS22       0.0266
    363 HG2        -9.6788   -1.3591    7.2055 H      22  LYS22       0.0266
    364 HD1        -7.6632   -1.7187    8.4582 H      22  LYS22       0.0277
    365 HD2        -8.2820   -3.2539    7.7105 H      22  LYS22       0.0277
    366 HE1        -5.8593   -3.1510    7.5033 H      22  LYS22       0.0422
    367 HE2        -5.9360   -1.5450    6.6451 H      22  LYS22       0.0422
    368 HZ1        -6.6976   -4.2132    5.7533 H      22  LYS22       0.1182
    369 HZ2        -5.9237   -2.9070    4.9316 H      22  LYS22       0.1182
    370 HXT       -12.2403    0.0878    6.2135 H      22  LYS22       0.2951
    371 HB         -3.2624   -3.7603   -2.2945 H      18  VAL18       0.0318
    372 HG11       -0.7933   -4.9105   -2.9422 H      18  VAL18       0.0233
    373 HG12       -1.1062   -3.8783   -4.3391 H      18  VAL18       0.0233
    374 HG13       -2.3584   -5.0742   -3.8985 H      18  VAL18       0.0233
    375 HG21       -1.6703   -3.8962   -0.5995 H      18  VAL18       0.0233
    376 HG22       -0.3747   -3.3242   -1.6831 H      18  VAL18       0.0233
    377 HG23       -1.4578   -2.1145   -0.9929 H      18  VAL18       0.0233
@<TRIPOS>BOND
     1     1     2    1
     2     2     3    1
     3     3     4    1
     4     4     5    1
     5     5     6    1
     6     6     7   am
     7     7     8    2
     8     7     9    1
     9     9    10    1
    10    10    11    1
    11    11    12    1
    12    12    13    1
    13    13    14    2
    14    14    15    1
    15    14    16    1
    16     9    17    1
    17    17    18   am
    18    18    19    2
    19    18    20    1
    20    20    21    1
    21    21    22    1
    22    22    23    1
    23    23    24    1
    24    24    25    2
    25    25    26    1
    26    25    27    1
    27    20    28    1
    28    28    29   am
    29    29    30    2
    30    29    31    1
    31    31    32    1
    32    32    33    1
    33    33    34    1
    34    33    35    1
    35    31    36    1
    36    36    37   am
    37    37    38    2
    38    37    39    1
    39    39    40    1
    40    40    41    1
    41    41    42    1
    42    42    43    2
    43    42    44    1
    44    39    45    1
    45    45    46   am
    46    46    47    2
    47    46    48    1
    48    48    49    1
    49    49    50    1
    50    50    51    1
    51    51    52    1
    52    52    53    2
    53    53    54    1
    54    53    55    1
    55    48    56    1
    56    56    57   am
    57    57    58    2
    58    57    59    1
    59    59    60    1
    60    60    61   am
    61    61    62    2
    62    61    63    1
    63    63    64    1
    64    64    65    1
    65    65    66   ar
    66    66    67   ar
    67    67    68   ar
    68    68    69    1
    69    68    70   ar
    70    70    71   ar
    71    63    72    1
    72    72    73   am
    73    73    74    2
    74    73    75    1
    75    75    76    1
    76    76    77    1
    77    77    78    1
    78    78    79    1
    79    79    80    2
    80    80    81    1
    81    80    82    1
    82    75    83    1
    83    83    84   am
    84    84    85    2
    85    84    86    1
    86    86    87    1
    87    87    88    1
    88    88    89    1
    89    89    90   am
    90    89    91    2
    91    86    92    1
    92    92    93   am
    93    93    94    2
    94    93    95    1
    95    95    96    1
    96    95    97    1
    97    97    98   am
    98    98    99    2
    99    98   100    1
   100   100   101    1
   101   100   102    1
   102   102   103   am
   103   103   104    2
   104   103   105    1
   105   105   106    1
   106   105   107    1
   107   107   108    1
   108   108   109   ar
   109   109   110   ar
   110   110   111   ar
   111   111   112   ar
   112   112   113   ar
   113   113   114   ar
   114   114   115   ar
   115   115   116   ar
   116     5   117    1
   117   117   118    2
   118   117   119   am
   119   119   120    1
   120   120   121    1
   121   121   122    1
   122   120   123    1
   123   123   124    2
   124   123   125   am
   125   125   126    1
   126   126   127    1
   127   127   128    1
   128   128   129    2
   129   128   130    1
   130   126   131    1
   131   131   132    2
   132   131   133   am
   133   133   134    1
   134   134   135    1
   135   135   136    1
   136   136   137    1
   137   137   138    2
   138   137   139    1
   139   134   140    1
   140   140   141    2
   141   140   142   am
   142   142   143    1
   143   143   144    1
   144   144   145    1
   145   145   146   ar
   146   146   147   ar
   147   147   148   ar
   148   148   149   ar
   149   149   150   ar
   150   143   151    1
   151   151   152    2
   152   151   153   am
   153   153   154    1
   154   154   155    1
   155   155   156    2
   156   155   157   am
   157   157   158    1
   158   158   159    1
   159   159   160    1
   160   160   161    2
   161   160   162    1
   162   158   163    1
   163   163   164    2
   164   163   165   am
   165   165   166    1
   166   166   167    1
   167   167   168    1
   168   166   169    1
   169   169   170    2
   170   169   171   am
   171   171   172    1
   172   172   173    1
   173   173   174    1
   174   174   175   ar
   175   175   176   ar
   176   176   177   ar
   177   177   178   ar
   178   178   179   ar
   179   172   180    1
   180   180   181    2
   181   180   182   am
   182   182   183    1
   183   183   184    1
   184   184   185    1
   185   185   186    1
   186   186   187    1
   187   187   188    1
   188   183   189    1
   189   189   190    2
   190   189   191    1
   191   154   192    1
   192   192   193    1
   193   192   194    1
   194    71    65   ar
   195   116   108   ar
   196   150   145   ar
   197   179   174   ar
   198   116   111   ar
   199     1   195    1
   200     1   196    1
   201     1   197    1
   202     3   198    1
   203     3   199    1
   204     4   200    1
   205     4   201    1
   206     5   202    1
   207     6   203    1
   208     9   204    1
   209    10   205    1
   210    10   206    1
   211    11   207    1
   212    11   208    1
   213    12   209    1
   214    12   210    1
   215    15   211    1
   216    15   212    1
   217    16   213    1
   218    16   214    1
   219    17   215    1
   220    20   216    1
   221    21   217    1
   222    21   218    1
   223    22   219    1
   224    22   220    1
   225    23   221    1
   226    23   222    1
   227    26   223    1
   228    26   224    1
   229    27   225    1
   230    27   226    1
   231    28   227    1
   232    31   228    1
   233    32   229    1
   234    32   230    1
   235    33   231    1
   236    34   232    1
   237    34   233    1
   238    34   234    1
   239    35   235    1
   240    35   236    1
   241    35   237    1
   242    36   238    1
   243    39   239    1
   244    40   240    1
   245    40   241    1
   246    41   242    1
   247    41   243    1
   248    44   244    1
   249    45   245    1
   250    48   246    1
   251    49   247    1
   252    49   248    1
   253    50   249    1
   254    50   250    1
   255    51   251    1
   256    51   252    1
   257    54   253    1
   258    54   254    1
   259    55   255    1
   260    55   256    1
   261    56   257    1
   262    59   258    1
   263    59   259    1
   264    60   260    1
   265    63   261    1
   266    64   262    1
   267    64   263    1
   268    66   264    1
   269    67   265    1
   270    69   266    1
   271    70   267    1
   272    71   268    1
   273    72   269    1
   274    75   270    1
   275    76   271    1
   276    76   272    1
   277    77   273    1
   278    77   274    1
   279    78   275    1
   280    78   276    1
   281    81   277    1
   282    81   278    1
   283    82   279    1
   284    82   280    1
   285    83   281    1
   286    86   282    1
   287    87   283    1
   288    87   284    1
   289    88   285    1
   290    88   286    1
   291    90   287    1
   292    90   288    1
   293    92   289    1
   294    95   290    1
   295    96   291    1
   296    96   292    1
   297    96   293    1
   298    97   294    1
   299   100   295    1
   300   101   296    1
   301   101   297    1
   302   101   298    1
   303   102   299    1
   304   105   300    1
   305   106   301    1
   306   106   302    1
   307   107   303    1
   308   107   304    1
   309   109   305    1
   310   110   306    1
   311   112   307    1
   312   113   308    1
   313   114   309    1
   314   115   310    1
   315   119   311    1
   316   120   312    1
   317   121   313    1
   318   121   314    1
   319   122   315    1
   320   125   316    1
   321   126   317    1
   322   127   318    1
   323   127   319    1
   324   130   320    1
   325   133   321    1
   326   134   322    1
   327   135   323    1
   328   135   324    1
   329   136   325    1
   330   136   326    1
   331   139   327    1
   332   142   328    1
   333   143   329    1
   334   144   330    1
   335   144   331    1
   336   146   332    1
   337   147   333    1
   338   148   334    1
   339   149   335    1
   340   150   336    1
   341   153   337    1
   342   154   338    1
   343   157   339    1
   344   158   340    1
   345   159   341    1
   346   159   342    1
   347   162   343    1
   348   165   344    1
   349   166   345    1
   350   167   346    1
   351   167   347    1
   352   168   348    1
   353   171   349    1
   354   172   350    1
   355   173   351    1
   356   173   352    1
   357   175   353    1
   358   176   354    1
   359   177   355    1
   360   178   356    1
   361   179   357    1
   362   182   358    1
   363   183   359    1
   364   184   360    1
   365   184   361    1
   366   185   362    1
   367   185   363    1
   368   186   364    1
   369   186   365    1
   370   187   366    1
   371   187   367    1
   372   188   368    1
   373   188   369    1
   374   191   370    1
   375   192   371    1
   376   193   372    1
   377   193   373    1
   378   193   374    1
   379   194   375    1
   380   194   376    1
   381   194   377    1
