
     RDKit          3D

377381  0  0  0  0  0  0  0  0999 V2000
   -3.0853    9.9119    0.9047 C   0  0  0  0  0  0  0  0  0  0  0  0
   -1.8614   10.4180   -0.3458 S   0  0  0  0  0  0  0  0  0  0  0  0
   -0.6545    9.0496   -0.4351 C   0  0  0  0  0  0  0  0  0  0  0  0
   -1.4147    7.8741   -1.0088 C   0  0  0  0  0  0  0  0  0  0  0  0
   -0.5242    6.6493   -1.0966 C   0  0  2  0  0  0  0  0  0  0  0  0
   -0.0573    6.3003    0.2664 N   0  0  0  0  0  0  0  0  0  0  0  0
   -0.3816    5.0724    0.8724 C   0  0  0  0  0  0  0  0  0  0  0  0
   -1.1180    4.3006    0.1299 O   0  0  0  0  0  0  0  0  0  0  0  0
    0.0157    4.5745    2.1900 C   0  0  2  0  0  0  0  0  0  0  0  0
    0.7874    5.4619    3.0708 C   0  0  0  0  0  0  0  0  0  0  0  0
    0.1627    6.7283    3.5505 C   0  0  0  0  0  0  0  0  0  0  0  0
   -1.0776    6.3987    4.3669 C   0  0  0  0  0  0  0  0  0  0  0  0
   -1.7134    7.5965    4.8682 N   0  0  0  0  0  0  0  0  0  0  0  0
   -2.4852    7.4730    5.8860 C   0  0  0  0  0  0  0  0  0  0  0  0
   -2.7517    6.2397    6.5497 N   0  0  0  0  0  0  0  0  0  0  0  0
   -3.1154    8.6353    6.3965 N   0  0  0  0  0  0  0  0  0  0  0  0
    0.5448    3.2354    1.9992 N   0  0  0  0  0  0  0  0  0  0  0  0
    0.3852    2.1387    2.8627 C   0  0  0  0  0  0  0  0  0  0  0  0
   -0.2480    2.2758    3.9014 O   0  0  0  0  0  0  0  0  0  0  0  0
    1.0050    0.7995    2.5018 C   0  0  2  0  0  0  0  0  0  0  0  0
   -0.0850   -0.0957    2.0586 C   0  0  0  0  0  0  0  0  0  0  0  0
   -0.8339    0.3940    0.8609 C   0  0  0  0  0  0  0  0  0  0  0  0
   -0.0021    0.5377   -0.3941 C   0  0  0  0  0  0  0  0  0  0  0  0
   -0.8846    0.9928   -1.4210 N   0  0  0  0  0  0  0  0  0  0  0  0
   -0.7510    1.9911   -2.1873 C   0  0  0  0  0  0  0  0  0  0  0  0
    0.3194    2.8837   -2.1937 N   0  0  0  0  0  0  0  0  0  0  0  0
   -1.8258    2.2071   -3.1268 N   0  0  0  0  0  0  0  0  0  0  0  0
    1.6492    0.2902    3.7111 N   0  0  0  0  0  0  0  0  0  0  0  0
    2.8696    0.8302    4.1621 C   0  0  0  0  0  0  0  0  0  0  0  0
    3.3413    1.7869    3.4746 O   0  0  0  0  0  0  0  0  0  0  0  0
    3.6598    0.4099    5.3201 C   0  0  2  0  0  0  0  0  0  0  0  0
    3.0174    0.5233    6.6512 C   0  0  0  0  0  0  0  0  0  0  0  0
    1.7684   -0.2413    6.8920 C   0  0  0  0  0  0  0  0  0  0  0  0
    1.2970    0.0129    8.3565 C   0  0  0  0  0  0  0  0  0  0  0  0
    1.8480   -1.7181    6.7311 C   0  0  0  0  0  0  0  0  0  0  0  0
    4.9209    1.1750    5.3519 N   0  0  0  0  0  0  0  0  0  0  0  0
    6.1018    0.5705    4.8795 C   0  0  0  0  0  0  0  0  0  0  0  0
    6.0380   -0.6256    4.4334 O   0  0  0  0  0  0  0  0  0  0  0  0
    7.3887    1.2544    4.8791 C   0  0  2  0  0  0  0  0  0  0  0  0
    7.2659    2.5564    4.0783 C   0  0  0  0  0  0  0  0  0  0  0  0
    8.5485    3.3330    4.1227 C   0  0  0  0  0  0  0  0  0  0  0  0
    8.3882    4.5787    3.3305 C   0  0  0  0  0  0  0  0  0  0  0  0
    7.3282    4.8580    2.7361 O   0  0  0  0  0  0  0  0  0  0  0  0
    9.4485    5.4903    3.2314 O   0  0  0  0  0  0  0  0  0  0  0  0
    8.3958    0.3724    4.3442 N   0  0  0  0  0  0  0  0  0  0  0  0
    8.8684    0.3251    3.0283 C   0  0  0  0  0  0  0  0  0  0  0  0
    8.4730    1.0408    2.1274 O   0  0  0  0  0  0  0  0  0  0  0  0
    9.9513   -0.7037    2.7194 C   0  0  2  0  0  0  0  0  0  0  0  0
   11.2367   -0.0759    3.0837 C   0  0  0  0  0  0  0  0  0  0  0  0
   12.4368   -0.9551    2.8420 C   0  0  0  0  0  0  0  0  0  0  0  0
   13.6923   -0.1769    3.2493 C   0  0  0  0  0  0  0  0  0  0  0  0
   14.8369   -1.0090    3.0050 N   0  0  0  0  0  0  0  0  0  0  0  0
   15.3346   -1.1931    1.8261 C   0  0  0  0  0  0  0  0  0  0  0  0
   14.7582   -0.5675    0.7003 N   0  0  0  0  0  0  0  0  0  0  0  0
   16.4663   -2.0133    1.6833 N   0  0  0  0  0  0  0  0  0  0  0  0
    9.8530   -1.1843    1.3628 N   0  0  0  0  0  0  0  0  0  0  0  0
    8.5992   -1.5634    0.8533 C   0  0  0  0  0  0  0  0  0  0  0  0
    7.5938   -1.3755    1.6379 O   0  0  0  0  0  0  0  0  0  0  0  0
    8.3004   -2.1552   -0.4662 C   0  0  0  0  0  0  0  0  0  0  0  0
    6.8877   -2.2645   -0.6269 N   0  0  0  0  0  0  0  0  0  0  0  0
    6.2709   -3.0263   -1.6508 C   0  0  0  0  0  0  0  0  0  0  0  0
    6.9266   -3.6772   -2.4495 O   0  0  0  0  0  0  0  0  0  0  0  0
    4.7668   -2.9993   -1.6829 C   0  0  2  0  0  0  0  0  0  0  0  0
    4.2538   -1.7253   -2.1532 C   0  0  0  0  0  0  0  0  0  0  0  0
    4.6691   -0.4937   -1.4998 C   0  0  0  0  0  0  0  0  0  0  0  0
    5.7944    0.1427   -2.0778 C   0  0  0  0  0  0  0  0  0  0  0  0
    6.2830    1.3166   -1.5771 C   0  0  0  0  0  0  0  0  0  0  0  0
    5.6736    1.8976   -0.4943 C   0  0  0  0  0  0  0  0  0  0  0  0
    6.1248    3.0977    0.0778 O   0  0  0  0  0  0  0  0  0  0  0  0
    4.5714    1.2794    0.0697 C   0  0  0  0  0  0  0  0  0  0  0  0
    4.0675    0.0748   -0.4335 C   0  0  0  0  0  0  0  0  0  0  0  0
    4.1357   -3.6995   -0.6362 N   0  0  0  0  0  0  0  0  0  0  0  0
    3.6443   -5.0212   -0.6659 C   0  0  0  0  0  0  0  0  0  0  0  0
    3.7129   -5.7116   -1.7288 O   0  0  0  0  0  0  0  0  0  0  0  0
    3.0460   -5.5837    0.5862 C   0  0  2  0  0  0  0  0  0  0  0  0
    4.1173   -5.8787    1.5975 C   0  0  0  0  0  0  0  0  0  0  0  0
    4.9471   -4.7461    2.0604 C   0  0  0  0  0  0  0  0  0  0  0  0
    5.9606   -5.3345    3.0748 C   0  0  0  0  0  0  0  0  0  0  0  0
    6.7829   -6.2893    2.3278 N   0  0  0  0  0  0  0  0  0  0  0  0
    7.8322   -6.7859    2.8776 C   0  0  0  0  0  0  0  0  0  0  0  0
    8.2422   -6.4611    4.1888 N   0  0  0  0  0  0  0  0  0  0  0  0
    8.6604   -7.7083    2.1572 N   0  0  0  0  0  0  0  0  0  0  0  0
    2.4023   -6.8723    0.2566 N   0  0  0  0  0  0  0  0  0  0  0  0
    1.0287   -7.0032   -0.0290 C   0  0  0  0  0  0  0  0  0  0  0  0
    0.2839   -5.9954   -0.0405 O   0  0  0  0  0  0  0  0  0  0  0  0
    0.3781   -8.3386   -0.3344 C   0  0  2  0  0  0  0  0  0  0  0  0
    1.2451   -9.1911   -1.1896 C   0  0  0  0  0  0  0  0  0  0  0  0
    0.6318  -10.5225   -1.5098 C   0  0  0  0  0  0  0  0  0  0  0  0
    1.5636  -11.2859   -2.3829 C   0  0  0  0  0  0  0  0  0  0  0  0
    1.2110  -12.5806   -2.8408 N   0  0  0  0  0  0  0  0  0  0  0  0
    2.6488  -10.7831   -2.7091 O   0  0  0  0  0  0  0  0  0  0  0  0
   -0.9619   -8.1633   -0.7847 N   0  0  0  0  0  0  0  0  0  0  0  0
   -2.1159   -7.9136   -0.0063 C   0  0  0  0  0  0  0  0  0  0  0  0
   -1.9628   -7.8143    1.2368 O   0  0  0  0  0  0  0  0  0  0  0  0
   -3.4380   -7.7699   -0.6471 C   0  0  2  0  0  0  0  0  0  0  0  0
   -3.2572   -7.5150   -2.1550 C   0  0  0  0  0  0  0  0  0  0  0  0
   -4.2361   -6.6777   -0.1645 N   0  0  0  0  0  0  0  0  0  0  0  0
   -5.6241   -6.7597    0.1081 C   0  0  0  0  0  0  0  0  0  0  0  0
   -6.2473   -7.8146   -0.0518 O   0  0  0  0  0  0  0  0  0  0  0  0
   -6.2672   -5.4719    0.5962 C   0  0  2  0  0  0  0  0  0  0  0  0
   -5.5190   -5.0622    1.8218 C   0  0  0  0  0  0  0  0  0  0  0  0
   -7.6807   -5.6502    0.7556 N   0  0  0  0  0  0  0  0  0  0  0  0
   -8.6171   -5.4010   -0.3224 C   0  0  0  0  0  0  0  0  0  0  0  0
   -8.0608   -5.0255   -1.3840 O   0  0  0  0  0  0  0  0  0  0  0  0
  -10.0368   -5.5930   -0.1526 C   0  0  1  0  0  0  0  0  0  0  0  0
  -10.4097   -5.7375    1.2653 N   0  0  0  0  0  0  0  0  0  0  0  0
  -10.9171   -4.5676   -0.7567 C   0  0  0  0  0  0  0  0  0  0  0  0
  -10.8067   -4.4051   -2.2232 C   0  0  0  0  0  0  0  0  0  0  0  0
  -11.4596   -5.2370   -3.1589 C   0  0  0  0  0  0  0  0  0  0  0  0
  -11.0919   -4.8926   -4.3951 N   0  0  0  0  0  0  0  0  0  0  0  0
  -10.2324   -3.8779   -4.3392 C   0  0  0  0  0  0  0  0  0  0  0  0
   -9.5892   -3.1496   -5.3257 C   0  0  0  0  0  0  0  0  0  0  0  0
   -8.7504   -2.1012   -5.0299 C   0  0  0  0  0  0  0  0  0  0  0  0
   -8.5778   -1.8030   -3.6796 C   0  0  0  0  0  0  0  0  0  0  0  0
   -9.2093   -2.5174   -2.7056 C   0  0  0  0  0  0  0  0  0  0  0  0
  -10.0536   -3.5743   -3.0050 C   0  0  0  0  0  0  0  0  0  0  0  0
    0.6896    6.9014   -1.9178 C   0  0  0  0  0  0  0  0  0  0  0  0
    1.6699    7.5528   -1.4272 O   0  0  0  0  0  0  0  0  0  0  0  0
    0.8686    6.4551   -3.2548 N   0  0  0  0  0  0  0  0  0  0  0  0
    2.0609    6.6984   -4.0536 C   0  0  1  0  0  0  0  0  0  0  0  0
    3.1653    5.7112   -3.6151 C   0  0  0  0  0  0  0  0  0  0  0  0
    2.7571    4.4273   -3.8134 O   0  0  0  0  0  0  0  0  0  0  0  0
    1.7714    6.4131   -5.4704 C   0  0  0  0  0  0  0  0  0  0  0  0
    0.6779    6.8140   -5.9603 O   0  0  0  0  0  0  0  0  0  0  0  0
    2.6574    5.6995   -6.3045 N   0  0  0  0  0  0  0  0  0  0  0  0
    2.3576    5.3792   -7.7062 C   0  0  1  0  0  0  0  0  0  0  0  0
    3.5535    4.9457   -8.4744 C   0  0  0  0  0  0  0  0  0  0  0  0
    4.6412    5.9290   -8.5165 C   0  0  0  0  0  0  0  0  0  0  0  0
    5.4231    6.0224   -7.5205 O   0  0  0  0  0  0  0  0  0  0  0  0
    4.8284    6.7460   -9.5988 O   0  0  0  0  0  0  0  0  0  0  0  0
    1.3055    4.2936   -7.6821 C   0  0  0  0  0  0  0  0  0  0  0  0
    0.5039    4.3025   -6.6836 O   0  0  0  0  0  0  0  0  0  0  0  0
    1.1259    3.2787   -8.6463 N   0  0  0  0  0  0  0  0  0  0  0  0
    0.0292    2.3300   -8.4271 C   0  0  1  0  0  0  0  0  0  0  0  0
   -0.6311    1.9482   -9.7202 C   0  0  0  0  0  0  0  0  0  0  0  0
   -1.7349    0.9771   -9.4243 C   0  0  0  0  0  0  0  0  0  0  0  0
   -2.4322    0.5372  -10.6572 C   0  0  0  0  0  0  0  0  0  0  0  0
   -3.3940   -0.2663  -10.5138 O   0  0  0  0  0  0  0  0  0  0  0  0
   -2.0986    0.9472  -11.9311 O   0  0  0  0  0  0  0  0  0  0  0  0
    0.5227    1.0718   -7.7810 C   0  0  0  0  0  0  0  0  0  0  0  0
    1.5297    0.4711   -8.1920 O   0  0  0  0  0  0  0  0  0  0  0  0
   -0.2053    0.6053   -6.6718 N   0  0  0  0  0  0  0  0  0  0  0  0
    0.0666   -0.5607   -5.8838 C   0  0  1  0  0  0  0  0  0  0  0  0
    1.0569   -0.2875   -4.7806 C   0  0  0  0  0  0  0  0  0  0  0  0
    2.3589    0.1987   -5.3277 C   0  0  0  0  0  0  0  0  0  0  0  0
    2.5738    1.5600   -5.4041 C   0  0  0  0  0  0  0  0  0  0  0  0
    3.7410    2.0374   -5.9102 C   0  0  0  0  0  0  0  0  0  0  0  0
    4.7511    1.1904   -6.3659 C   0  0  0  0  0  0  0  0  0  0  0  0
    4.5084   -0.1603   -6.2757 C   0  0  0  0  0  0  0  0  0  0  0  0
    3.3295   -0.6426   -5.7621 C   0  0  0  0  0  0  0  0  0  0  0  0
   -1.1864   -1.1731   -5.3908 C   0  0  0  0  0  0  0  0  0  0  0  0
   -2.1401   -1.3634   -6.2131 O   0  0  0  0  0  0  0  0  0  0  0  0
   -1.3599   -1.5493   -4.0294 N   0  0  0  0  0  0  0  0  0  0  0  0
   -2.5194   -2.1555   -3.4573 C   0  0  2  0  0  0  0  0  0  0  0  0
   -3.6235   -1.2704   -3.0527 C   0  0  0  0  0  0  0  0  0  0  0  0
   -4.0288   -0.3236   -3.8051 O   0  0  0  0  0  0  0  0  0  0  0  0
   -4.3410   -1.3874   -1.8154 N   0  0  0  0  0  0  0  0  0  0  0  0
   -5.4478   -0.5623   -1.5014 C   0  0  1  0  0  0  0  0  0  0  0  0
   -6.4707   -1.1998   -0.6220 C   0  0  0  0  0  0  0  0  0  0  0  0
   -5.9186   -1.5938    0.7104 C   0  0  0  0  0  0  0  0  0  0  0  0
   -4.6952   -1.4635    0.9428 O   0  0  0  0  0  0  0  0  0  0  0  0
   -6.7244   -2.1037    1.7037 O   0  0  0  0  0  0  0  0  0  0  0  0
   -5.0729    0.7303   -0.8567 C   0  0  0  0  0  0  0  0  0  0  0  0
   -3.8927    1.0338   -0.6493 O   0  0  0  0  0  0  0  0  0  0  0  0
   -6.1061    1.6170   -0.4800 N   0  0  0  0  0  0  0  0  0  0  0  0
   -5.9779    2.8991    0.1358 C   0  0  1  0  0  0  0  0  0  0  0  0
   -6.7843    3.9800   -0.5023 C   0  0  0  0  0  0  0  0  0  0  0  0
   -8.1440    3.7652   -0.5121 O   0  0  0  0  0  0  0  0  0  0  0  0
   -6.2272    2.8713    1.6113 C   0  0  0  0  0  0  0  0  0  0  0  0
   -5.6749    2.0000    2.3134 O   0  0  0  0  0  0  0  0  0  0  0  0
   -7.0883    3.8130    2.2433 N   0  0  0  0  0  0  0  0  0  0  0  0
   -7.2711    3.7418    3.6724 C   0  0  1  0  0  0  0  0  0  0  0  0
   -8.1003    4.8119    4.2754 C   0  0  0  0  0  0  0  0  0  0  0  0
   -7.6404    6.1991    4.0745 C   0  0  0  0  0  0  0  0  0  0  0  0
   -6.7820    6.8691    4.9087 C   0  0  0  0  0  0  0  0  0  0  0  0
   -6.4033    8.1772    4.6849 C   0  0  0  0  0  0  0  0  0  0  0  0
   -6.8806    8.8794    3.5965 C   0  0  0  0  0  0  0  0  0  0  0  0
   -7.7434    8.2066    2.7538 C   0  0  0  0  0  0  0  0  0  0  0  0
   -8.1266    6.9099    2.9631 C   0  0  0  0  0  0  0  0  0  0  0  0
   -8.0071    2.3993    3.9108 C   0  0  0  0  0  0  0  0  0  0  0  0
   -8.2776    1.7135    2.9360 O   0  0  0  0  0  0  0  0  0  0  0  0
   -8.3462    1.9974    5.2142 N   0  0  0  0  0  0  0  0  0  0  0  0
   -9.0476    0.7163    5.4282 C   0  0  1  0  0  0  0  0  0  0  0  0
   -8.1636   -0.1131    6.3061 C   0  0  0  0  0  0  0  0  0  0  0  0
   -8.7115   -1.4605    6.6259 C   0  0  0  0  0  0  0  0  0  0  0  0
   -7.7836   -2.2736    7.5091 C   0  0  0  0  0  0  0  0  0  0  0  0
   -6.4565   -2.4842    6.8319 C   0  0  0  0  0  0  0  0  0  0  0  0
   -6.7093   -3.1721    5.5663 N   0  0  0  0  0  0  0  0  0  0  0  0
  -10.3633    0.9578    6.0475 C   0  0  0  0  0  0  0  0  0  0  0  0
  -10.7026    2.1340    6.3516 O   0  0  0  0  0  0  0  0  0  0  0  0
  -11.2513   -0.0663    6.3007 O   0  0  0  0  0  0  0  0  0  0  0  0
   -2.2833   -3.3468   -2.6039 C   0  0  0  0  0  0  0  0  0  0  0  0
   -1.5852   -4.3878   -3.4903 C   0  0  0  0  0  0  0  0  0  0  0  0
   -1.4285   -3.1481   -1.3972 C   0  0  0  0  0  0  0  0  0  0  0  0
   -4.0881    9.7849    0.4569 H   0  0  0  0  0  0  0  0  0  0  0  0
   -2.8326    8.9328    1.3793 H   0  0  0  0  0  0  0  0  0  0  0  0
   -3.0664   10.6922    1.6808 H   0  0  0  0  0  0  0  0  0  0  0  0
   -0.2521    8.8492    0.5775 H   0  0  0  0  0  0  0  0  0  0  0  0
    0.1165    9.3399   -1.1842 H   0  0  0  0  0  0  0  0  0  0  0  0
   -1.6965    8.1315   -2.0387 H   0  0  0  0  0  0  0  0  0  0  0  0
   -2.3158    7.6156   -0.4578 H   0  0  0  0  0  0  0  0  0  0  0  0
   -1.0829    5.8329   -1.5065 H   0  0  0  0  0  0  0  0  0  0  0  0
    0.5431    6.9534    0.7995 H   0  0  0  0  0  0  0  0  0  0  0  0
   -0.9846    4.4359    2.7929 H   0  0  0  0  0  0  0  0  0  0  0  0
    1.7052    5.8021    2.4774 H   0  0  0  0  0  0  0  0  0  0  0  0
    1.2716    4.9147    3.9308 H   0  0  0  0  0  0  0  0  0  0  0  0
   -0.1014    7.4591    2.7945 H   0  0  0  0  0  0  0  0  0  0  0  0
    0.8802    7.1831    4.3179 H   0  0  0  0  0  0  0  0  0  0  0  0
   -0.7571    5.8045    5.2339 H   0  0  0  0  0  0  0  0  0  0  0  0
   -1.8372    5.9150    3.7190 H   0  0  0  0  0  0  0  0  0  0  0  0
   -3.3249    5.4711    6.1494 H   0  0  0  0  0  0  0  0  0  0  0  0
   -2.3494    6.1008    7.5052 H   0  0  0  0  0  0  0  0  0  0  0  0
   -2.8595    9.5666    6.0072 H   0  0  0  0  0  0  0  0  0  0  0  0
   -3.8332    8.6091    7.1434 H   0  0  0  0  0  0  0  0  0  0  0  0
    1.1206    3.0469    1.1175 H   0  0  0  0  0  0  0  0  0  0  0  0
    1.7814    1.0321    1.7742 H   0  0  0  0  0  0  0  0  0  0  0  0
   -0.8592   -0.1621    2.8805 H   0  0  0  0  0  0  0  0  0  0  0  0
    0.2793   -1.1229    1.8108 H   0  0  0  0  0  0  0  0  0  0  0  0
   -1.6153   -0.3755    0.6340 H   0  0  0  0  0  0  0  0  0  0  0  0
   -1.4142    1.3290    1.0708 H   0  0  0  0  0  0  0  0  0  0  0  0
    0.8748    1.1602   -0.2660 H   0  0  0  0  0  0  0  0  0  0  0  0
    0.2910   -0.5326   -0.6778 H   0  0  0  0  0  0  0  0  0  0  0  0
    1.1246    2.7216   -1.5561 H   0  0  0  0  0  0  0  0  0  0  0  0
    0.3209    3.7080   -2.8126 H   0  0  0  0  0  0  0  0  0  0  0  0
   -2.5603    2.8779   -2.8389 H   0  0  0  0  0  0  0  0  0  0  0  0
   -1.8960    1.7425   -4.0461 H   0  0  0  0  0  0  0  0  0  0  0  0
    1.2052   -0.4882    4.2085 H   0  0  0  0  0  0  0  0  0  0  0  0
    3.9493   -0.6531    5.1322 H   0  0  0  0  0  0  0  0  0  0  0  0
    3.7479    0.1977    7.4619 H   0  0  0  0  0  0  0  0  0  0  0  0
    2.8097    1.5956    6.9358 H   0  0  0  0  0  0  0  0  0  0  0  0
    0.8814    0.1572    6.3119 H   0  0  0  0  0  0  0  0  0  0  0  0
    0.4814   -0.6897    8.5744 H   0  0  0  0  0  0  0  0  0  0  0  0
    0.9682    1.0625    8.3793 H   0  0  0  0  0  0  0  0  0  0  0  0
    2.1678   -0.2029    8.9967 H   0  0  0  0  0  0  0  0  0  0  0  0
    2.8100   -2.0524    6.2424 H   0  0  0  0  0  0  0  0  0  0  0  0
    1.0317   -2.1792    6.1505 H   0  0  0  0  0  0  0  0  0  0  0  0
    1.8402   -2.2591    7.7145 H   0  0  0  0  0  0  0  0  0  0  0  0
    4.8917    2.1278    5.7129 H   0  0  0  0  0  0  0  0  0  0  0  0
    7.6701    1.6273    5.8970 H   0  0  0  0  0  0  0  0  0  0  0  0
    6.8551    2.3483    3.0939 H   0  0  0  0  0  0  0  0  0  0  0  0
    6.5176    3.1755    4.6285 H   0  0  0  0  0  0  0  0  0  0  0  0
    9.4077    2.7394    3.8403 H   0  0  0  0  0  0  0  0  0  0  0  0
    8.6502    3.6943    5.1932 H   0  0  0  0  0  0  0  0  0  0  0  0
    9.2305    6.4676    3.0807 H   0  0  0  0  0  0  0  0  0  0  0  0
    8.8267   -0.3241    5.0466 H   0  0  0  0  0  0  0  0  0  0  0  0
    9.6282   -1.5615    3.3590 H   0  0  0  0  0  0  0  0  0  0  0  0
   11.2021    0.1747    4.1707 H   0  0  0  0  0  0  0  0  0  0  0  0
   11.3411    0.8898    2.5172 H   0  0  0  0  0  0  0  0  0  0  0  0
   12.4817   -1.2734    1.7985 H   0  0  0  0  0  0  0  0  0  0  0  0
   12.4101   -1.8463    3.4992 H   0  0  0  0  0  0  0  0  0  0  0  0
   13.5932    0.0417    4.3532 H   0  0  0  0  0  0  0  0  0  0  0  0
   13.7596    0.8022    2.7478 H   0  0  0  0  0  0  0  0  0  0  0  0
   14.6732    0.4589    0.6660 H   0  0  0  0  0  0  0  0  0  0  0  0
   14.4036   -1.1055   -0.1173 H   0  0  0  0  0  0  0  0  0  0  0  0
   17.2349   -1.9511    2.3874 H   0  0  0  0  0  0  0  0  0  0  0  0
   16.5731   -2.6886    0.9023 H   0  0  0  0  0  0  0  0  0  0  0  0
   10.6855   -1.2491    0.7432 H   0  0  0  0  0  0  0  0  0  0  0  0
    8.7929   -1.5740   -1.2651 H   0  0  0  0  0  0  0  0  0  0  0  0
    8.7110   -3.1870   -0.5292 H   0  0  0  0  0  0  0  0  0  0  0  0
    6.2119   -1.7655    0.0364 H   0  0  0  0  0  0  0  0  0  0  0  0
    4.6112   -3.7603   -2.6249 H   0  0  0  0  0  0  0  0  0  0  0  0
    3.0998   -1.7039   -2.1355 H   0  0  0  0  0  0  0  0  0  0  0  0
    4.4604   -1.6481   -3.2735 H   0  0  0  0  0  0  0  0  0  0  0  0
    6.2999   -0.2833   -2.9352 H   0  0  0  0  0  0  0  0  0  0  0  0
    7.1643    1.8131   -2.0185 H   0  0  0  0  0  0  0  0  0  0  0  0
    5.7468    3.9699   -0.2825 H   0  0  0  0  0  0  0  0  0  0  0  0
    4.0848    1.7345    0.9025 H   0  0  0  0  0  0  0  0  0  0  0  0
    3.2016   -0.3693    0.0610 H   0  0  0  0  0  0  0  0  0  0  0  0
    3.9863   -3.1522    0.2703 H   0  0  0  0  0  0  0  0  0  0  0  0
    2.2504   -4.9117    0.9114 H   0  0  0  0  0  0  0  0  0  0  0  0
    4.8078   -6.6315    1.1163 H   0  0  0  0  0  0  0  0  0  0  0  0
    3.7243   -6.4232    2.4929 H   0  0  0  0  0  0  0  0  0  0  0  0
    5.6319   -4.3505    1.2616 H   0  0  0  0  0  0  0  0  0  0  0  0
    4.4073   -3.9283    2.5418 H   0  0  0  0  0  0  0  0  0  0  0  0
    6.5821   -4.4966    3.4307 H   0  0  0  0  0  0  0  0  0  0  0  0
    5.3958   -5.8523    3.8484 H   0  0  0  0  0  0  0  0  0  0  0  0
    8.2121   -7.1833    4.9355 H   0  0  0  0  0  0  0  0  0  0  0  0
    8.5913   -5.5258    4.4387 H   0  0  0  0  0  0  0  0  0  0  0  0
    9.6961   -7.5202    2.1775 H   0  0  0  0  0  0  0  0  0  0  0  0
    8.2780   -8.5119    1.6447 H   0  0  0  0  0  0  0  0  0  0  0  0
    2.9936   -7.7417    0.2233 H   0  0  0  0  0  0  0  0  0  0  0  0
    0.2943   -8.8512    0.6862 H   0  0  0  0  0  0  0  0  0  0  0  0
    1.4268   -8.6695   -2.1719 H   0  0  0  0  0  0  0  0  0  0  0  0
    2.2559   -9.3475   -0.7388 H   0  0  0  0  0  0  0  0  0  0  0  0
    0.4329  -11.1058   -0.5810 H   0  0  0  0  0  0  0  0  0  0  0  0
   -0.3153  -10.3931   -2.0513 H   0  0  0  0  0  0  0  0  0  0  0  0
    0.2677  -12.9586   -2.6659 H   0  0  0  0  0  0  0  0  0  0  0  0
    1.8955  -13.1722   -3.3652 H   0  0  0  0  0  0  0  0  0  0  0  0
   -1.1462   -8.2208   -1.8352 H   0  0  0  0  0  0  0  0  0  0  0  0
   -3.9844   -8.7404   -0.6027 H   0  0  0  0  0  0  0  0  0  0  0  0
   -4.2437   -7.1364   -2.5002 H   0  0  0  0  0  0  0  0  0  0  0  0
   -2.9641   -8.4500   -2.6573 H   0  0  0  0  0  0  0  0  0  0  0  0
   -2.4455   -6.7820   -2.2636 H   0  0  0  0  0  0  0  0  0  0  0  0
   -3.7145   -5.7744   -0.0095 H   0  0  0  0  0  0  0  0  0  0  0  0
   -6.0373   -4.7628   -0.2589 H   0  0  0  0  0  0  0  0  0  0  0  0
   -6.1738   -4.7142    2.6590 H   0  0  0  0  0  0  0  0  0  0  0  0
   -4.9179   -5.9043    2.2377 H   0  0  0  0  0  0  0  0  0  0  0  0
   -4.7818   -4.2440    1.6390 H   0  0  0  0  0  0  0  0  0  0  0  0
   -8.0655   -5.9584    1.6523 H   0  0  0  0  0  0  0  0  0  0  0  0
  -10.3691   -6.5849   -0.6351 H   0  0  0  0  0  0  0  0  0  0  0  0
   -9.9774   -4.9749    1.8382 H   0  0  0  0  0  0  0  0  0  0  0  0
  -11.4517   -5.7143    1.3748 H   0  0  0  0  0  0  0  0  0  0  0  0
  -12.0011   -4.7647   -0.5122 H   0  0  0  0  0  0  0  0  0  0  0  0
  -10.6448   -3.5616   -0.3099 H   0  0  0  0  0  0  0  0  0  0  0  0
  -12.1499   -6.0376   -2.8820 H   0  0  0  0  0  0  0  0  0  0  0  0
  -11.4203   -5.3577   -5.2957 H   0  0  0  0  0  0  0  0  0  0  0  0
   -9.7285   -3.4070   -6.3570 H   0  0  0  0  0  0  0  0  0  0  0  0
   -8.2612   -1.5417   -5.8097 H   0  0  0  0  0  0  0  0  0  0  0  0
   -7.9172   -0.9730   -3.4724 H   0  0  0  0  0  0  0  0  0  0  0  0
   -9.0792   -2.2909   -1.6597 H   0  0  0  0  0  0  0  0  0  0  0  0
    0.1035    5.9339   -3.7021 H   0  0  0  0  0  0  0  0  0  0  0  0
    2.4999    7.6696   -3.8768 H   0  0  0  0  0  0  0  0  0  0  0  0
    3.3559    5.8438   -2.5240 H   0  0  0  0  0  0  0  0  0  0  0  0
    4.1131    5.9638   -4.1048 H   0  0  0  0  0  0  0  0  0  0  0  0
    3.0172    3.7884   -3.1041 H   0  0  0  0  0  0  0  0  0  0  0  0
    3.5581    5.3934   -5.9123 H   0  0  0  0  0  0  0  0  0  0  0  0
    1.8408    6.2099   -8.2082 H   0  0  0  0  0  0  0  0  0  0  0  0
    3.9270    3.9297   -8.1749 H   0  0  0  0  0  0  0  0  0  0  0  0
    3.2133    4.7856   -9.5282 H   0  0  0  0  0  0  0  0  0  0  0  0
    5.5188    7.5124   -9.5198 H   0  0  0  0  0  0  0  0  0  0  0  0
    1.7201    3.1952   -9.4752 H   0  0  0  0  0  0  0  0  0  0  0  0
   -0.6955    2.8333   -7.7744 H   0  0  0  0  0  0  0  0  0  0  0  0
    0.1302    1.4132  -10.3464 H   0  0  0  0  0  0  0  0  0  0  0  0
   -1.0681    2.8319  -10.2432 H   0  0  0  0  0  0  0  0  0  0  0  0
   -1.3668    0.0680   -8.9119 H   0  0  0  0  0  0  0  0  0  0  0  0
   -2.5105    1.4479   -8.7716 H   0  0  0  0  0  0  0  0  0  0  0  0
   -2.0700    0.2694  -12.6898 H   0  0  0  0  0  0  0  0  0  0  0  0
   -1.0564    1.1766   -6.3665 H   0  0  0  0  0  0  0  0  0  0  0  0
    0.6058   -1.2776   -6.5649 H   0  0  0  0  0  0  0  0  0  0  0  0
    1.2675   -1.2047   -4.1735 H   0  0  0  0  0  0  0  0  0  0  0  0
    0.6483    0.4741   -4.1277 H   0  0  0  0  0  0  0  0  0  0  0  0
    1.7831    2.2340   -5.0603 H   0  0  0  0  0  0  0  0  0  0  0  0
    3.9455    3.0730   -5.9761 H   0  0  0  0  0  0  0  0  0  0  0  0
    5.6684    1.5341   -6.7782 H   0  0  0  0  0  0  0  0  0  0  0  0
    5.2986   -0.8196   -6.6210 H   0  0  0  0  0  0  0  0  0  0  0  0
    3.2004   -1.7204   -5.7179 H   0  0  0  0  0  0  0  0  0  0  0  0
   -0.5276   -1.3454   -3.4061 H   0  0  0  0  0  0  0  0  0  0  0  0
   -3.0039   -2.6479   -4.4295 H   0  0  0  0  0  0  0  0  0  0  0  0
   -3.9787   -2.1329   -1.1437 H   0  0  0  0  0  0  0  0  0  0  0  0
   -5.9135   -0.2335   -2.4635 H   0  0  0  0  0  0  0  0  0  0  0  0
   -7.3846   -0.6335   -0.4615 H   0  0  0  0  0  0  0  0  0  0  0  0
   -6.7973   -2.1757   -1.0753 H   0  0  0  0  0  0  0  0  0  0  0  0
   -6.5113   -1.8494    2.6644 H   0  0  0  0  0  0  0  0  0  0  0  0
   -7.1138    1.3232   -0.6904 H   0  0  0  0  0  0  0  0  0  0  0  0
   -4.8840    3.1993    0.0626 H   0  0  0  0  0  0  0  0  0  0  0  0
   -6.5346    4.9598   -0.0216 H   0  0  0  0  0  0  0  0  0  0  0  0
   -6.4772    4.1319   -1.5797 H   0  0  0  0  0  0  0  0  0  0  0  0
   -8.3339    3.1258   -1.2676 H   0  0  0  0  0  0  0  0  0  0  0  0
   -7.5663    4.5292    1.6419 H   0  0  0  0  0  0  0  0  0  0  0  0
   -6.3014    3.6300    4.1669 H   0  0  0  0  0  0  0  0  0  0  0  0
   -9.1461    4.7134    3.9065 H   0  0  0  0  0  0  0  0  0  0  0  0
   -8.0799    4.6612    5.4009 H   0  0  0  0  0  0  0  0  0  0  0  0
   -6.4199    6.3057    5.7714 H   0  0  0  0  0  0  0  0  0  0  0  0
   -5.7354    8.6460    5.3687 H   0  0  0  0  0  0  0  0  0  0  0  0
   -6.6194    9.8896    3.3596 H   0  0  0  0  0  0  0  0  0  0  0  0
   -8.1501    8.7399    1.8862 H   0  0  0  0  0  0  0  0  0  0  0  0
   -8.8080    6.4390    2.2612 H   0  0  0  0  0  0  0  0  0  0  0  0
   -8.0982    2.5961    6.0201 H   0  0  0  0  0  0  0  0  0  0  0  0
   -9.1796    0.1927    4.4592 H   0  0  0  0  0  0  0  0  0  0  0  0
   -7.1783   -0.2431    5.7975 H   0  0  0  0  0  0  0  0  0  0  0  0
   -7.9844    0.4386    7.2550 H   0  0  0  0  0  0  0  0  0  0  0  0
   -8.9832   -2.0186    5.7023 H   0  0  0  0  0  0  0  0  0  0  0  0
   -9.6788   -1.3591    7.2055 H   0  0  0  0  0  0  0  0  0  0  0  0
   -7.6632   -1.7187    8.4582 H   0  0  0  0  0  0  0  0  0  0  0  0
   -8.2820   -3.2539    7.7105 H   0  0  0  0  0  0  0  0  0  0  0  0
   -5.8593   -3.1510    7.5033 H   0  0  0  0  0  0  0  0  0  0  0  0
   -5.9360   -1.5450    6.6451 H   0  0  0  0  0  0  0  0  0  0  0  0
   -6.6976   -4.2132    5.7533 H   0  0  0  0  0  0  0  0  0  0  0  0
   -5.9237   -2.9070    4.9316 H   0  0  0  0  0  0  0  0  0  0  0  0
  -12.2403    0.0878    6.2135 H   0  0  0  0  0  0  0  0  0  0  0  0
   -3.2624   -3.7603   -2.2945 H   0  0  0  0  0  0  0  0  0  0  0  0
   -0.7933   -4.9105   -2.9422 H   0  0  0  0  0  0  0  0  0  0  0  0
   -1.1062   -3.8783   -4.3391 H   0  0  0  0  0  0  0  0  0  0  0  0
   -2.3584   -5.0742   -3.8985 H   0  0  0  0  0  0  0  0  0  0  0  0
   -1.6703   -3.8962   -0.5995 H   0  0  0  0  0  0  0  0  0  0  0  0
   -0.3747   -3.3242   -1.6831 H   0  0  0  0  0  0  0  0  0  0  0  0
   -1.4578   -2.1145   -0.9929 H   0  0  0  0  0  0  0  0  0  0  0  0
  1  2  1  0
  2  3  1  0
  3  4  1  0
  4  5  1  0
  5  6  1  0
  6  7  1  0
  7  8  2  0
  7  9  1  0
  9 10  1  0
 10 11  1  0
 11 12  1  0
 12 13  1  0
 13 14  2  3
 14 15  1  0
 14 16  1  0
  9 17  1  0
 17 18  1  0
 18 19  2  0
 18 20  1  0
 20 21  1  0
 21 22  1  0
 22 23  1  0
 23 24  1  0
 24 25  2  3
 25 26  1  0
 25 27  1  0
 20 28  1  0
 28 29  1  0
 29 30  2  0
 29 31  1  0
 31 32  1  0
 32 33  1  0
 33 34  1  0
 33 35  1  0
 31 36  1  0
 36 37  1  0
 37 38  2  0
 37 39  1  0
 39 40  1  0
 40 41  1  0
 41 42  1  0
 42 43  2  0
 42 44  1  0
 39 45  1  0
 45 46  1  0
 46 47  2  0
 46 48  1  0
 48 49  1  0
 49 50  1  0
 50 51  1  0
 51 52  1  0
 52 53  2  3
 53 54  1  0
 53 55  1  0
 48 56  1  0
 56 57  1  0
 57 58  2  0
 57 59  1  0
 59 60  1  0
 60 61  1  0
 61 62  2  0
 61 63  1  0
 63 64  1  0
 64 65  1  0
 65 66  2  0
 66 67  1  0
 67 68  2  0
 68 69  1  0
 68 70  1  0
 70 71  2  0
 63 72  1  0
 72 73  1  0
 73 74  2  0
 73 75  1  0
 75 76  1  0
 76 77  1  0
 77 78  1  0
 78 79  1  0
 79 80  2  3
 80 81  1  0
 80 82  1  0
 75 83  1  0
 83 84  1  0
 84 85  2  0
 84 86  1  0
 86 87  1  0
 87 88  1  0
 88 89  1  0
 89 90  1  0
 89 91  2  0
 86 92  1  0
 92 93  1  0
 93 94  2  0
 93 95  1  0
 95 96  1  0
 95 97  1  0
 97 98  1  0
 98 99  2  0
 98100  1  0
100101  1  0
100102  1  0
102103  1  0
103104  2  0
103105  1  0
105106  1  0
105107  1  0
107108  1  0
108109  2  0
109110  1  0
110111  1  0
111112  2  0
112113  1  0
113114  2  0
114115  1  0
115116  2  0
  5117  1  0
117118  2  0
117119  1  0
119120  1  0
120121  1  0
121122  1  0
120123  1  0
123124  2  0
123125  1  0
125126  1  0
126127  1  0
127128  1  0
128129  2  0
128130  1  0
126131  1  0
131132  2  0
131133  1  0
133134  1  0
134135  1  0
135136  1  0
136137  1  0
137138  2  0
137139  1  0
134140  1  0
140141  2  0
140142  1  0
142143  1  0
143144  1  0
144145  1  0
145146  2  0
146147  1  0
147148  2  0
148149  1  0
149150  2  0
143151  1  0
151152  2  0
151153  1  0
153154  1  0
154155  1  0
155156  2  0
155157  1  0
157158  1  0
158159  1  0
159160  1  0
160161  2  0
160162  1  0
158163  1  0
163164  2  0
163165  1  0
165166  1  0
166167  1  0
167168  1  0
166169  1  0
169170  2  0
169171  1  0
171172  1  0
172173  1  0
173174  1  0
174175  2  0
175176  1  0
176177  2  0
177178  1  0
178179  2  0
172180  1  0
180181  2  0
180182  1  0
182183  1  0
183184  1  0
184185  1  0
185186  1  0
186187  1  0
187188  1  0
183189  1  0
189190  2  0
189191  1  0
154192  1  0
192193  1  0
192194  1  0
 71 65  1  0
116108  1  0
150145  1  0
179174  1  0
116111  1  0
  1195  1  0
  1196  1  0
  1197  1  0
  3198  1  0
  3199  1  0
  4200  1  0
  4201  1  0
  5202  1  6
  6203  1  0
  9204  1  1
 10205  1  0
 10206  1  0
 11207  1  0
 11208  1  0
 12209  1  0
 12210  1  0
 15211  1  0
 15212  1  0
 16213  1  0
 16214  1  0
 17215  1  0
 20216  1  6
 21217  1  0
 21218  1  0
 22219  1  0
 22220  1  0
 23221  1  0
 23222  1  0
 26223  1  0
 26224  1  0
 27225  1  0
 27226  1  0
 28227  1  0
 31228  1  6
 32229  1  0
 32230  1  0
 33231  1  0
 34232  1  0
 34233  1  0
 34234  1  0
 35235  1  0
 35236  1  0
 35237  1  0
 36238  1  0
 39239  1  1
 40240  1  0
 40241  1  0
 41242  1  0
 41243  1  0
 44244  1  0
 45245  1  0
 48246  1  1
 49247  1  0
 49248  1  0
 50249  1  0
 50250  1  0
 51251  1  0
 51252  1  0
 54253  1  0
 54254  1  0
 55255  1  0
 55256  1  0
 56257  1  0
 59258  1  0
 59259  1  0
 60260  1  0
 63261  1  6
 64262  1  0
 64263  1  0
 66264  1  0
 67265  1  0
 69266  1  0
 70267  1  0
 71268  1  0
 72269  1  0
 75270  1  1
 76271  1  0
 76272  1  0
 77273  1  0
 77274  1  0
 78275  1  0
 78276  1  0
 81277  1  0
 81278  1  0
 82279  1  0
 82280  1  0
 83281  1  0
 86282  1  1
 87283  1  0
 87284  1  0
 88285  1  0
 88286  1  0
 90287  1  0
 90288  1  0
 92289  1  0
 95290  1  6
 96291  1  0
 96292  1  0
 96293  1  0
 97294  1  0
100295  1  6
101296  1  0
101297  1  0
101298  1  0
102299  1  0
105300  1  6
106301  1  0
106302  1  0
107303  1  0
107304  1  0
109305  1  0
110306  1  0
112307  1  0
113308  1  0
114309  1  0
115310  1  0
119311  1  0
120312  1  6
121313  1  0
121314  1  0
122315  1  0
125316  1  0
126317  1  6
127318  1  0
127319  1  0
130320  1  0
133321  1  0
134322  1  1
135323  1  0
135324  1  0
136325  1  0
136326  1  0
139327  1  0
142328  1  0
143329  1  6
144330  1  0
144331  1  0
146332  1  0
147333  1  0
148334  1  0
149335  1  0
150336  1  0
153337  1  0
154338  1  6
157339  1  0
158340  1  6
159341  1  0
159342  1  0
162343  1  0
165344  1  0
166345  1  1
167346  1  0
167347  1  0
168348  1  0
171349  1  0
172350  1  1
173351  1  0
173352  1  0
175353  1  0
176354  1  0
177355  1  0
178356  1  0
179357  1  0
182358  1  0
183359  1  6
184360  1  0
184361  1  0
185362  1  0
185363  1  0
186364  1  0
186365  1  0
187366  1  0
187367  1  0
188368  1  0
188369  1  0
191370  1  0
192371  1  0
193372  1  0
193373  1  0
193374  1  0
194375  1  0
194376  1  0
194377  1  0
M  END
$$$$
