@<TRIPOS>MOLECULE
*****
 66 71 0 0 0
SMALL
GASTEIGER

@<TRIPOS>ATOM
      1 C          -5.9385   -1.3022   -1.0629 C.ar    1  UNL1       -0.0617
      2 C          -4.7610   -0.8028   -1.5832 C.ar    1  UNL1       -0.0614
      3 C          -3.5285   -1.4033   -1.2942 C.ar    1  UNL1       -0.0568
      4 C          -3.4537   -2.5117   -0.4809 C.ar    1  UNL1       -0.0260
      5 C          -2.1865   -3.1958   -0.1298 C.3     1  UNL1        0.0702
      6 N          -1.7209   -2.6619    1.1419 N.ar    1  UNL1       -0.2230
      7 N          -2.0764   -3.1870    2.3290 N.ar    1  UNL1       -0.0435
      8 N          -1.5030   -2.5057    3.3046 N.ar    1  UNL1       -0.0230
      9 N          -0.7944   -1.5604    2.7204 N.ar    1  UNL1       -0.1114
     10 C          -0.9055   -1.6272    1.3943 C.ar    1  UNL1        0.1732
     11 C          -0.2952   -0.7674    0.3449 C.3     1  UNL1        0.0976
     12 C          -1.0757    0.5026    0.1960 C.ar    1  UNL1       -0.0227
     13 C          -0.7189    1.4807   -0.6994 C.ar    1  UNL1       -0.0546
     14 C          -1.4461    2.6685   -0.8322 C.ar    1  UNL1       -0.0359
     15 C          -2.5556    2.8948   -0.0594 C.ar    1  UNL1        0.0671
     16 N          -3.3180    4.0830   -0.1657 N.ar    1  UNL1       -0.2203
     17 C          -2.8641    5.3060   -0.4696 C.ar    1  UNL1        0.1199
     18 N          -3.9220    6.1645   -0.4675 N.ar    1  UNL1       -0.2224
     19 C          -5.0256    5.4404   -0.1570 C.ar    1  UNL1        0.1384
     20 N          -4.6179    4.1813    0.0189 N.ar    1  UNL1       -0.1536
     21 C          -2.9144    1.8947    0.8510 C.ar    1  UNL1       -0.0359
     22 C          -2.1918    0.7365    0.9696 C.ar    1  UNL1       -0.0546
     23 N           1.1052   -0.5727    0.4920 N.3     1  UNL1       -0.2878
     24 C           1.4500    0.1063    1.6669 C.3     1  UNL1        0.0011
     25 C           2.8958    0.5517    1.7341 C.3     1  UNL1       -0.0273
     26 C           3.8481   -0.6086    1.5468 C.3     1  UNL1        0.0004
     27 N           4.0921   -0.7757    0.1705 N.3     1  UNL1       -0.2981
     28 C           5.2074   -0.1638   -0.3905 C.3     1  UNL1        0.0105
     29 C           5.5175   -0.3317   -1.8384 C.3     1  UNL1       -0.0373
     30 C           6.9933   -0.1473   -1.4436 C.3     1  UNL1       -0.0502
     31 C           6.5840   -0.7820   -0.1048 C.3     1  UNL1       -0.0373
     32 C           3.1141   -1.3861   -0.6315 C.3     1  UNL1        0.0120
     33 C           1.8960   -0.4354   -0.6601 C.3     1  UNL1        0.0126
     34 C          -4.6513   -2.9977    0.0316 C.ar    1  UNL1       -0.0568
     35 C          -5.8666   -2.4112   -0.2494 C.ar    1  UNL1       -0.0614
     36 H          -6.8826   -0.8186   -1.3021 H       1  UNL1        0.0618
     37 H          -4.8237    0.0715   -2.2238 H       1  UNL1        0.0618
     38 H          -2.6324   -1.0082   -1.7045 H       1  UNL1        0.0621
     39 H          -2.4333   -4.2823   -0.0340 H       1  UNL1        0.0560
     40 H          -1.4170   -3.0802   -0.9210 H       1  UNL1        0.0560
     41 H          -0.4489   -1.2960   -0.6371 H       1  UNL1        0.0594
     42 H           0.1377    1.3649   -1.3390 H       1  UNL1        0.0622
     43 H          -1.1676    3.4399   -1.5360 H       1  UNL1        0.0639
     44 H          -1.8288    5.5375   -0.6757 H       1  UNL1        0.1048
     45 H          -6.0351    5.8417   -0.0750 H       1  UNL1        0.1066
     46 H          -3.7894    2.0886    1.4506 H       1  UNL1        0.0639
     47 H          -2.5003   -0.0088    1.6814 H       1  UNL1        0.0622
     48 H           1.3389   -0.5959    2.5454 H       1  UNL1        0.0427
     49 H           0.8266    1.0191    1.7835 H       1  UNL1        0.0427
     50 H           3.0522    1.0356    2.7116 H       1  UNL1        0.0290
     51 H           3.1099    1.2845    0.9271 H       1  UNL1        0.0290
     52 H           4.8112   -0.3188    2.0442 H       1  UNL1        0.0427
     53 H           3.5124   -1.5237    2.0828 H       1  UNL1        0.0427
     54 H           5.2790    0.9179   -0.0745 H       1  UNL1        0.0462
     55 H           5.3923   -1.3559   -2.2064 H       1  UNL1        0.0280
     56 H           5.1414    0.4771   -2.5029 H       1  UNL1        0.0280
     57 H           7.1836    0.9416   -1.3564 H       1  UNL1        0.0266
     58 H           7.6938   -0.7340   -2.0349 H       1  UNL1        0.0266
     59 H           6.5889   -1.8897   -0.1930 H       1  UNL1        0.0280
     60 H           7.0988   -0.3593    0.7737 H       1  UNL1        0.0280
     61 H           3.4549   -1.5305   -1.6525 H       1  UNL1        0.0439
     62 H           2.7335   -2.3283   -0.1411 H       1  UNL1        0.0439
     63 H           2.3061    0.5914   -0.8241 H       1  UNL1        0.0439
     64 H           1.3341   -0.6996   -1.5772 H       1  UNL1        0.0439
     65 H          -4.6041   -3.8675    0.6707 H       1  UNL1        0.0621
     66 H          -6.8039   -2.7872    0.1479 H       1  UNL1        0.0618
@<TRIPOS>BOND
     1     1     2   ar
     2     2     3   ar
     3     3     4   ar
     4     4     5    1
     5     5     6    1
     6     6     7   ar
     7     7     8   ar
     8     8     9   ar
     9     9    10   ar
    10    10    11    1
    11    11    12    1
    12    12    13   ar
    13    13    14   ar
    14    14    15   ar
    15    15    16    1
    16    16    17   ar
    17    17    18   ar
    18    18    19   ar
    19    19    20   ar
    20    15    21   ar
    21    21    22   ar
    22    11    23    1
    23    23    24    1
    24    24    25    1
    25    25    26    1
    26    26    27    1
    27    27    28    1
    28    28    29    1
    29    29    30    1
    30    30    31    1
    31    27    32    1
    32    32    33    1
    33     4    34   ar
    34    34    35   ar
    35    35     1   ar
    36    10     6   ar
    37    22    12   ar
    38    33    23    1
    39    20    16   ar
    40    31    28    1
    41     1    36    1
    42     2    37    1
    43     3    38    1
    44     5    39    1
    45     5    40    1
    46    11    41    1
    47    13    42    1
    48    14    43    1
    49    17    44    1
    50    19    45    1
    51    21    46    1
    52    22    47    1
    53    24    48    1
    54    24    49    1
    55    25    50    1
    56    25    51    1
    57    26    52    1
    58    26    53    1
    59    28    54    1
    60    29    55    1
    61    29    56    1
    62    30    57    1
    63    30    58    1
    64    31    59    1
    65    31    60    1
    66    32    61    1
    67    32    62    1
    68    33    63    1
    69    33    64    1
    70    34    65    1
    71    35    66    1
