@<TRIPOS>MOLECULE
*****
 22 22 0 0 0
SMALL
GASTEIGER

@<TRIPOS>ATOM
      1 O           2.9780    1.1668    0.2077 O.3     1  UNL1       -0.3913
      2 C           2.4198   -0.1026    0.3276 C.3     1  UNL1        0.0838
      3 C           1.1218   -0.2106   -0.4366 C.3     1  UNL1        0.1542
      4 O           0.6024   -1.4979   -0.2863 O.3     1  UNL1       -0.4545
      5 C          -0.6745   -1.8313    0.1058 C.2     1  UNL1        0.3391
      6 O          -0.8795   -3.0678    0.2215 O.2     1  UNL1       -0.2478
      7 C          -1.6508   -0.7348    0.3452 C.3     1  UNL1        0.1800
      8 O          -2.9564   -1.1428    0.0718 O.3     1  UNL1       -0.3783
      9 C          -1.2231    0.4154   -0.5398 C.3     1  UNL1        0.1207
     10 O          -2.1589    1.4417   -0.5493 O.3     1  UNL1       -0.3860
     11 C           0.1323    0.8599   -0.0292 C.3     1  UNL1        0.1229
     12 O           0.4808    2.0949   -0.6020 O.3     1  UNL1       -0.3854
     13 H           3.6397    1.1794   -0.5187 H       1  UNL1        0.2096
     14 H           3.1316   -0.8184   -0.1323 H       1  UNL1        0.0595
     15 H           2.2976   -0.3848    1.3933 H       1  UNL1        0.0595
     16 H           1.3543   -0.0262   -1.5086 H       1  UNL1        0.0784
     17 H          -1.5402   -0.4262    1.3866 H       1  UNL1        0.0738
     18 H          -3.0658   -2.0264    0.4771 H       1  UNL1        0.2106
     19 H          -1.0799    0.0239   -1.5704 H       1  UNL1        0.0652
     20 H          -2.7143    1.4320    0.2880 H       1  UNL1        0.2100
     21 H           0.0419    0.9329    1.0828 H       1  UNL1        0.0658
     22 H          -0.2570    2.7227   -0.3381 H       1  UNL1        0.2101
@<TRIPOS>BOND
     1     1     2    1
     2     2     3    1
     3     3     4    1
     4     4     5    1
     5     5     6    2
     6     5     7    1
     7     7     8    1
     8     7     9    1
     9     9    10    1
    10     9    11    1
    11    11    12    1
    12    11     3    1
    13     1    13    1
    14     2    14    1
    15     2    15    1
    16     3    16    1
    17     7    17    1
    18     8    18    1
    19     9    19    1
    20    10    20    1
    21    11    21    1
    22    12    22    1
