
     RDKit          3D

 22 22  0  0  0  0  0  0  0  0999 V2000
    2.9780    1.1668    0.2077 O   0  0  0  0  0  0  0  0  0  0  0  0
    2.4198   -0.1026    0.3276 C   0  0  0  0  0  0  0  0  0  0  0  0
    1.1218   -0.2106   -0.4366 C   0  0  1  0  0  0  0  0  0  0  0  0
    0.6024   -1.4979   -0.2863 O   0  0  0  0  0  0  0  0  0  0  0  0
   -0.6745   -1.8313    0.1058 C   0  0  0  0  0  0  0  0  0  0  0  0
   -0.8795   -3.0678    0.2215 O   0  0  0  0  0  0  0  0  0  0  0  0
   -1.6508   -0.7348    0.3452 C   0  0  2  0  0  0  0  0  0  0  0  0
   -2.9564   -1.1428    0.0718 O   0  0  0  0  0  0  0  0  0  0  0  0
   -1.2231    0.4154   -0.5398 C   0  0  1  0  0  0  0  0  0  0  0  0
   -2.1589    1.4417   -0.5493 O   0  0  0  0  0  0  0  0  0  0  0  0
    0.1323    0.8599   -0.0292 C   0  0  2  0  0  0  0  0  0  0  0  0
    0.4808    2.0949   -0.6020 O   0  0  0  0  0  0  0  0  0  0  0  0
    3.6397    1.1794   -0.5187 H   0  0  0  0  0  0  0  0  0  0  0  0
    3.1316   -0.8184   -0.1323 H   0  0  0  0  0  0  0  0  0  0  0  0
    2.2976   -0.3848    1.3933 H   0  0  0  0  0  0  0  0  0  0  0  0
    1.3543   -0.0262   -1.5086 H   0  0  0  0  0  0  0  0  0  0  0  0
   -1.5402   -0.4262    1.3866 H   0  0  0  0  0  0  0  0  0  0  0  0
   -3.0658   -2.0264    0.4771 H   0  0  0  0  0  0  0  0  0  0  0  0
   -1.0799    0.0239   -1.5704 H   0  0  0  0  0  0  0  0  0  0  0  0
   -2.7143    1.4320    0.2880 H   0  0  0  0  0  0  0  0  0  0  0  0
    0.0419    0.9329    1.0828 H   0  0  0  0  0  0  0  0  0  0  0  0
   -0.2570    2.7227   -0.3381 H   0  0  0  0  0  0  0  0  0  0  0  0
  1  2  1  0
  2  3  1  0
  3  4  1  0
  4  5  1  0
  5  6  2  0
  5  7  1  0
  7  8  1  0
  7  9  1  0
  9 10  1  0
  9 11  1  0
 11 12  1  0
 11  3  1  0
  1 13  1  0
  2 14  1  0
  2 15  1  0
  3 16  1  6
  7 17  1  1
  8 18  1  0
  9 19  1  6
 10 20  1  0
 11 21  1  1
 12 22  1  0
M  END
$$$$
