@<TRIPOS>MOLECULE
*****
 64 67 0 0 0
SMALL
GASTEIGER

@<TRIPOS>ATOM
      1 C          -6.1166   -1.8846    2.1487 C.3     1  UNL1       -0.0130
      2 N          -6.3288   -0.9963    1.0509 N.3     1  UNL1       -0.3083
      3 C          -6.4954    0.3771    1.3707 C.3     1  UNL1       -0.0130
      4 C          -5.3849   -1.2683    0.0117 C.3     1  UNL1       -0.0000
      5 C          -5.4923   -0.3869   -1.1855 C.3     1  UNL1       -0.0205
      6 C          -4.4362   -0.8048   -2.1903 C.3     1  UNL1        0.0434
      7 N          -3.0936   -0.7043   -1.6332 N.ar    1  UNL1       -0.2630
      8 N          -2.3853   -1.5887   -0.9964 N.ar    1  UNL1       -0.1685
      9 C          -1.1783   -1.1243   -0.6336 C.ar    1  UNL1        0.1202
     10 C          -0.1325   -1.8761    0.1010 C.ar    1  UNL1        0.1104
     11 C          -0.3912   -3.1802    0.4643 C.ar    1  UNL1        0.0575
     12 N           0.4976   -3.9401    1.1303 N.ar    1  UNL1       -0.2338
     13 C           1.7029   -3.3974    1.4592 C.ar    1  UNL1        0.1574
     14 N           2.7873   -3.8417    2.0944 N.ar    1  UNL1       -0.3438
     15 C           3.7238   -2.8797    2.1522 C.ar    1  UNL1        0.0178
     16 C           3.2271   -1.7396    1.5196 C.ar    1  UNL1        0.0815
     17 C           3.9152   -0.4587    1.3542 C.2     1  UNL1        0.2480
     18 O           3.5050    0.6191    1.8470 O.2     1  UNL1       -0.2701
     19 N           5.1366   -0.4030    0.5861 N.am    1  UNL1       -0.3065
     20 C           5.8596    0.8189    0.3883 C.3     1  UNL1        0.0265
     21 C           6.3135    1.4290    1.7065 C.3     1  UNL1       -0.0442
     22 C           7.1275    0.4964   -0.3768 C.3     1  UNL1       -0.0442
     23 C           5.0991    1.8476   -0.3932 C.3     1  UNL1       -0.0442
     24 C           1.9633   -2.0930    1.0966 C.ar    1  UNL1        0.1202
     25 N           1.0497   -1.3346    0.4204 N.ar    1  UNL1       -0.2397
     26 C          -1.1172    0.1786   -1.0845 C.ar    1  UNL1        0.0326
     27 C          -0.1789    1.1470   -1.0221 C.ar    1  UNL1       -0.0084
     28 C          -0.4263    2.4061   -1.5902 C.ar    1  UNL1        0.1276
     29 O           0.5343    3.3553   -1.5099 O.3     1  UNL1       -0.4342
     30 C           0.4899    4.6522   -2.0091 C.3     1  UNL1        0.3893
     31 F           1.5839    4.9223   -2.8418 F       1  UNL1       -0.1663
     32 F           0.5776    5.5985   -0.9849 F       1  UNL1       -0.1663
     33 C          -1.6242    2.6454   -2.2083 C.ar    1  UNL1       -0.0177
     34 C          -2.5599    1.6437   -2.2569 C.ar    1  UNL1       -0.0326
     35 C          -2.3503    0.4007   -1.7108 C.ar    1  UNL1        0.0698
     36 H          -6.6628   -2.8429    2.0705 H       1  UNL1        0.0391
     37 H          -6.4126   -1.3958    3.1110 H       1  UNL1        0.0391
     38 H          -5.0164   -2.1346    2.2022 H       1  UNL1        0.0391
     39 H          -7.3451    0.8674    0.8542 H       1  UNL1        0.0391
     40 H          -5.5759    0.9817    1.1739 H       1  UNL1        0.0391
     41 H          -6.7082    0.4708    2.4553 H       1  UNL1        0.0391
     42 H          -5.3829   -2.3277   -0.2927 H       1  UNL1        0.0427
     43 H          -4.3658   -1.1048    0.4739 H       1  UNL1        0.0427
     44 H          -5.4399    0.6671   -0.9207 H       1  UNL1        0.0295
     45 H          -6.4712   -0.6548   -1.6822 H       1  UNL1        0.0295
     46 H          -4.5302   -0.2852   -3.1445 H       1  UNL1        0.0509
     47 H          -4.6430   -1.8918   -2.4026 H       1  UNL1        0.0509
     48 H          -1.3771   -3.5914    0.1847 H       1  UNL1        0.0853
     49 H           2.8923   -4.8084    2.4940 H       1  UNL1        0.1668
     50 H           4.6969   -2.9669    2.6081 H       1  UNL1        0.0816
     51 H           5.4603   -1.3199    0.1827 H       1  UNL1        0.1495
     52 H           6.7838    0.6671    2.3621 H       1  UNL1        0.0250
     53 H           5.4537    1.8378    2.2811 H       1  UNL1        0.0250
     54 H           7.0411    2.2319    1.5617 H       1  UNL1        0.0250
     55 H           6.9179    0.2458   -1.4163 H       1  UNL1        0.0250
     56 H           7.6169   -0.3579    0.1738 H       1  UNL1        0.0250
     57 H           7.8737    1.3324   -0.2792 H       1  UNL1        0.0250
     58 H           5.8328    2.5924   -0.7937 H       1  UNL1        0.0250
     59 H           4.4074    2.4458    0.2679 H       1  UNL1        0.0250
     60 H           4.5991    1.4115   -1.2576 H       1  UNL1        0.0250
     61 H           0.7570    0.9296   -0.5289 H       1  UNL1        0.0661
     62 H          -0.4145    4.9037   -2.5880 H       1  UNL1        0.1520
     63 H          -1.8866    3.6079   -2.6743 H       1  UNL1        0.0655
     64 H          -3.5028    1.8535   -2.7508 H       1  UNL1        0.0640
@<TRIPOS>BOND
     1     1     2    1
     2     2     3    1
     3     2     4    1
     4     4     5    1
     5     5     6    1
     6     6     7    1
     7     7     8   ar
     8     8     9   ar
     9     9    10    1
    10    10    11   ar
    11    11    12   ar
    12    12    13   ar
    13    13    14   ar
    14    14    15   ar
    15    15    16   ar
    16    16    17    1
    17    17    18    2
    18    17    19   am
    19    19    20    1
    20    20    21    1
    21    20    22    1
    22    20    23    1
    23    16    24   ar
    24    24    25   ar
    25     9    26   ar
    26    26    27   ar
    27    27    28   ar
    28    28    29    1
    29    29    30    1
    30    30    31    1
    31    30    32    1
    32    28    33   ar
    33    33    34   ar
    34    34    35   ar
    35    35     7   ar
    36    25    10   ar
    37    35    26   ar
    38    24    13   ar
    39     1    36    1
    40     1    37    1
    41     1    38    1
    42     3    39    1
    43     3    40    1
    44     3    41    1
    45     4    42    1
    46     4    43    1
    47     5    44    1
    48     5    45    1
    49     6    46    1
    50     6    47    1
    51    11    48    1
    52    14    49    1
    53    15    50    1
    54    19    51    1
    55    21    52    1
    56    21    53    1
    57    21    54    1
    58    22    55    1
    59    22    56    1
    60    22    57    1
    61    23    58    1
    62    23    59    1
    63    23    60    1
    64    27    61    1
    65    30    62    1
    66    33    63    1
    67    34    64    1
