@<TRIPOS>MOLECULE
*****
 36 38 0 0 0
SMALL
GASTEIGER

@<TRIPOS>ATOM
      1 C           5.0232   -0.8314    2.2324 C.3     1  UNL1        0.0788
      2 O           4.1512   -1.5825    1.4096 O.3     1  UNL1       -0.4951
      3 C           3.0704   -0.9431    0.8109 C.ar    1  UNL1        0.1202
      4 C           2.1813   -1.5980    0.0018 C.ar    1  UNL1       -0.0180
      5 C           1.1086   -0.9383   -0.5857 C.ar    1  UNL1       -0.0328
      6 C           0.9092    0.4264   -0.3618 C.ar    1  UNL1        0.0663
      7 N          -0.1824    1.1127   -0.9556 N.ar    1  UNL1       -0.2316
      8 N          -0.1228    2.2165   -1.7064 N.ar    1  UNL1       -0.1618
      9 C          -1.3578    2.5790   -2.0941 C.ar    1  UNL1        0.1662
     10 C          -1.6529    3.7575   -2.9361 C.3     1  UNL1        0.4360
     11 F          -2.8132    3.5638   -3.6682 F       1  UNL1       -0.1644
     12 F          -1.8130    4.8539   -2.0975 F       1  UNL1       -0.1644
     13 F          -0.6046    4.0661   -3.7894 F       1  UNL1       -0.1644
     14 C          -2.2124    1.6465   -1.5502 C.ar    1  UNL1       -0.0039
     15 C          -1.4738    0.7272   -0.8363 C.ar    1  UNL1        0.0752
     16 C          -2.0185   -0.4155   -0.1133 C.ar    1  UNL1        0.0006
     17 C          -2.9820   -1.2234   -0.6938 C.ar    1  UNL1       -0.0512
     18 C          -3.5006   -2.3093   -0.0086 C.ar    1  UNL1       -0.0428
     19 C          -3.0609   -2.5986    1.2644 C.ar    1  UNL1        0.0410
     20 CL         -3.7013   -3.9713    2.1593 Cl      1  UNL1       -0.0835
     21 C          -2.1039   -1.8125    1.8660 C.ar    1  UNL1       -0.0428
     22 C          -1.6091   -0.7429    1.1609 C.ar    1  UNL1       -0.0512
     23 C           1.8010    1.0837    0.4499 C.ar    1  UNL1       -0.0328
     24 C           2.8488    0.4118    1.0163 C.ar    1  UNL1       -0.0180
     25 H           5.6033   -0.1169    1.6433 H       1  UNL1        0.0660
     26 H           5.6929   -1.5083    2.7990 H       1  UNL1        0.0660
     27 H           4.3800   -0.3347    3.0079 H       1  UNL1        0.0660
     28 H           2.2999   -2.6481   -0.1953 H       1  UNL1        0.0655
     29 H           0.4153   -1.4592   -1.2194 H       1  UNL1        0.0640
     30 H          -3.2895    1.6554   -1.6775 H       1  UNL1        0.0660
     31 H          -3.3502   -1.0211   -1.6986 H       1  UNL1        0.0625
     32 H          -4.2533   -2.9673   -0.4208 H       1  UNL1        0.0632
     33 H          -1.7551   -2.0423    2.8763 H       1  UNL1        0.0632
     34 H          -0.8549   -0.1072    1.6101 H       1  UNL1        0.0625
     35 H           1.6882    2.1327    0.6509 H       1  UNL1        0.0640
     36 H           3.5394    0.9386    1.6497 H       1  UNL1        0.0655
@<TRIPOS>BOND
     1     1     2    1
     2     2     3    1
     3     3     4   ar
     4     4     5   ar
     5     5     6   ar
     6     6     7    1
     7     7     8   ar
     8     8     9   ar
     9     9    10    1
    10    10    11    1
    11    10    12    1
    12    10    13    1
    13     9    14   ar
    14    14    15   ar
    15    15    16    1
    16    16    17   ar
    17    17    18   ar
    18    18    19   ar
    19    19    20    1
    20    19    21   ar
    21    21    22   ar
    22     6    23   ar
    23    23    24   ar
    24    24     3   ar
    25    15     7   ar
    26    22    16   ar
    27     1    25    1
    28     1    26    1
    29     1    27    1
    30     4    28    1
    31     5    29    1
    32    14    30    1
    33    17    31    1
    34    18    32    1
    35    21    33    1
    36    22    34    1
    37    23    35    1
    38    24    36    1
