
     RDKit          3D

 36 38  0  0  0  0  0  0  0  0999 V2000
    5.0232   -0.8314    2.2324 C   0  0  0  0  0  0  0  0  0  0  0  0
    4.1512   -1.5825    1.4096 O   0  0  0  0  0  0  0  0  0  0  0  0
    3.0704   -0.9431    0.8109 C   0  0  0  0  0  0  0  0  0  0  0  0
    2.1813   -1.5980    0.0018 C   0  0  0  0  0  0  0  0  0  0  0  0
    1.1086   -0.9383   -0.5857 C   0  0  0  0  0  0  0  0  0  0  0  0
    0.9092    0.4264   -0.3618 C   0  0  0  0  0  0  0  0  0  0  0  0
   -0.1824    1.1127   -0.9556 N   0  0  0  0  0  0  0  0  0  0  0  0
   -0.1228    2.2165   -1.7064 N   0  0  0  0  0  0  0  0  0  0  0  0
   -1.3578    2.5790   -2.0941 C   0  0  0  0  0  0  0  0  0  0  0  0
   -1.6529    3.7575   -2.9361 C   0  0  0  0  0  0  0  0  0  0  0  0
   -2.8132    3.5638   -3.6682 F   0  0  0  0  0  0  0  0  0  0  0  0
   -1.8130    4.8539   -2.0975 F   0  0  0  0  0  0  0  0  0  0  0  0
   -0.6046    4.0661   -3.7894 F   0  0  0  0  0  0  0  0  0  0  0  0
   -2.2124    1.6465   -1.5502 C   0  0  0  0  0  0  0  0  0  0  0  0
   -1.4738    0.7272   -0.8363 C   0  0  0  0  0  0  0  0  0  0  0  0
   -2.0185   -0.4155   -0.1133 C   0  0  0  0  0  0  0  0  0  0  0  0
   -2.9820   -1.2234   -0.6938 C   0  0  0  0  0  0  0  0  0  0  0  0
   -3.5006   -2.3093   -0.0086 C   0  0  0  0  0  0  0  0  0  0  0  0
   -3.0609   -2.5986    1.2644 C   0  0  0  0  0  0  0  0  0  0  0  0
   -3.7013   -3.9713    2.1593 Cl  0  0  0  0  0  0  0  0  0  0  0  0
   -2.1039   -1.8125    1.8660 C   0  0  0  0  0  0  0  0  0  0  0  0
   -1.6091   -0.7429    1.1609 C   0  0  0  0  0  0  0  0  0  0  0  0
    1.8010    1.0837    0.4499 C   0  0  0  0  0  0  0  0  0  0  0  0
    2.8488    0.4118    1.0163 C   0  0  0  0  0  0  0  0  0  0  0  0
    5.6033   -0.1169    1.6433 H   0  0  0  0  0  0  0  0  0  0  0  0
    5.6929   -1.5083    2.7990 H   0  0  0  0  0  0  0  0  0  0  0  0
    4.3800   -0.3347    3.0079 H   0  0  0  0  0  0  0  0  0  0  0  0
    2.2999   -2.6481   -0.1953 H   0  0  0  0  0  0  0  0  0  0  0  0
    0.4153   -1.4592   -1.2194 H   0  0  0  0  0  0  0  0  0  0  0  0
   -3.2895    1.6554   -1.6775 H   0  0  0  0  0  0  0  0  0  0  0  0
   -3.3502   -1.0211   -1.6986 H   0  0  0  0  0  0  0  0  0  0  0  0
   -4.2533   -2.9673   -0.4208 H   0  0  0  0  0  0  0  0  0  0  0  0
   -1.7551   -2.0423    2.8763 H   0  0  0  0  0  0  0  0  0  0  0  0
   -0.8549   -0.1072    1.6101 H   0  0  0  0  0  0  0  0  0  0  0  0
    1.6882    2.1327    0.6509 H   0  0  0  0  0  0  0  0  0  0  0  0
    3.5394    0.9386    1.6497 H   0  0  0  0  0  0  0  0  0  0  0  0
  1  2  1  0
  2  3  1  0
  3  4  2  0
  4  5  1  0
  5  6  2  0
  6  7  1  0
  7  8  1  0
  8  9  2  0
  9 10  1  0
 10 11  1  0
 10 12  1  0
 10 13  1  0
  9 14  1  0
 14 15  2  0
 15 16  1  0
 16 17  2  0
 17 18  1  0
 18 19  2  0
 19 20  1  0
 19 21  1  0
 21 22  2  0
  6 23  1  0
 23 24  2  0
 24  3  1  0
 15  7  1  0
 22 16  1  0
  1 25  1  0
  1 26  1  0
  1 27  1  0
  4 28  1  0
  5 29  1  0
 14 30  1  0
 17 31  1  0
 18 32  1  0
 21 33  1  0
 22 34  1  0
 23 35  1  0
 24 36  1  0
M  END
$$$$
