
     RDKit          3D

 55 59  0  0  0  0  0  0  0  0999 V2000
    4.2570   -0.3748    1.8695 C   0  0  0  0  0  0  0  0  0  0  0  0
    3.5095   -0.0513    0.7349 O   0  0  0  0  0  0  0  0  0  0  0  0
    2.7026    1.0410    0.9492 C   0  0  0  0  0  0  0  0  0  0  0  0
    1.9207    1.3593   -0.2764 C   0  0  1  0  0  0  0  0  0  0  0  0
    2.8935    1.6449   -1.3314 O   0  0  0  0  0  0  0  0  0  0  0  0
    3.6676    0.6567   -1.9060 C   0  0  0  0  0  0  0  0  0  0  0  0
    4.7665    0.8027   -2.4624 O   0  0  0  0  0  0  0  0  0  0  0  0
    3.1063   -0.7097   -1.8384 C   0  0  0  0  0  0  0  0  0  0  0  0
    3.5171   -1.9704   -2.1235 C   0  0  0  0  0  0  0  0  0  0  0  0
    2.5870   -2.8244   -1.6904 O   0  0  0  0  0  0  0  0  0  0  0  0
    1.5908   -2.1323   -1.1356 C   0  0  0  0  0  0  0  0  0  0  0  0
    1.8874   -0.8219   -1.2225 C   0  0  0  0  0  0  0  0  0  0  0  0
    1.0483    0.2978   -0.8190 C   0  0  2  0  0  0  0  0  0  0  0  0
    0.5928    0.9061   -2.2187 C   0  0  0  0  0  0  0  0  0  0  0  0
   -0.1885   -0.0759   -0.1329 C   0  0  0  0  0  0  0  0  0  0  0  0
   -0.5266   -1.3505    0.0166 C   0  0  0  0  0  0  0  0  0  0  0  0
    0.3350   -2.4594   -0.4868 C   0  0  0  0  0  0  0  0  0  0  0  0
    0.0103   -3.6582   -0.3676 O   0  0  0  0  0  0  0  0  0  0  0  0
   -1.7266   -1.7975    0.6956 C   0  0  2  0  0  0  0  0  0  0  0  0
   -2.5900   -2.8108    0.0497 C   0  0  0  0  0  0  0  0  0  0  0  0
   -3.8168   -2.7797    0.9910 C   0  0  0  0  0  0  0  0  0  0  0  0
   -3.7127   -1.4759    1.7069 C   0  0  0  0  0  0  0  0  0  0  0  0
   -4.2890   -1.1657    2.7163 O   0  0  0  0  0  0  0  0  0  0  0  0
   -2.7730   -0.6987    0.9086 C   0  0  2  0  0  0  0  0  0  0  0  0
   -3.4178   -0.3618   -0.4153 C   0  0  0  0  0  0  0  0  0  0  0  0
   -2.0093    0.3879    1.5453 C   0  0  0  0  0  0  0  0  0  0  0  0
   -1.1402    0.9268    0.3939 C   0  0  1  0  0  0  0  0  0  0  0  0
   -0.6579    2.1753    0.7145 O   0  0  0  0  0  0  0  0  0  0  0  0
   -1.1619    3.3537    0.1133 C   0  0  0  0  0  0  0  0  0  0  0  0
   -0.6577    4.6877    0.4453 C   0  0  0  0  0  0  0  0  0  0  0  0
   -2.0693    3.2040   -0.7257 O   0  0  0  0  0  0  0  0  0  0  0  0
    4.9167    0.4335    2.1966 H   0  0  0  0  0  0  0  0  0  0  0  0
    4.7952   -1.3243    1.6349 H   0  0  0  0  0  0  0  0  0  0  0  0
    3.5136   -0.5909    2.6862 H   0  0  0  0  0  0  0  0  0  0  0  0
    3.3186    1.9469    1.1827 H   0  0  0  0  0  0  0  0  0  0  0  0
    2.0708    0.8071    1.8309 H   0  0  0  0  0  0  0  0  0  0  0  0
    1.4384    2.3839   -0.2066 H   0  0  0  0  0  0  0  0  0  0  0  0
    4.4489   -2.2058   -2.6198 H   0  0  0  0  0  0  0  0  0  0  0  0
   -0.2199    0.3000   -2.6142 H   0  0  0  0  0  0  0  0  0  0  0  0
    1.4819    0.8667   -2.8517 H   0  0  0  0  0  0  0  0  0  0  0  0
    0.3471    1.9500   -1.9808 H   0  0  0  0  0  0  0  0  0  0  0  0
   -1.4720   -2.2264    1.7252 H   0  0  0  0  0  0  0  0  0  0  0  0
   -2.9420   -2.5249   -0.9449 H   0  0  0  0  0  0  0  0  0  0  0  0
   -2.2372   -3.8614    0.1082 H   0  0  0  0  0  0  0  0  0  0  0  0
   -4.7554   -2.7597    0.4090 H   0  0  0  0  0  0  0  0  0  0  0  0
   -3.8475   -3.6362    1.6596 H   0  0  0  0  0  0  0  0  0  0  0  0
   -2.7550   -0.5275   -1.2598 H   0  0  0  0  0  0  0  0  0  0  0  0
   -4.3019   -1.0478   -0.6010 H   0  0  0  0  0  0  0  0  0  0  0  0
   -3.8694    0.6416   -0.3332 H   0  0  0  0  0  0  0  0  0  0  0  0
   -2.5956    1.2346    1.9150 H   0  0  0  0  0  0  0  0  0  0  0  0
   -1.3166   -0.0347    2.2957 H   0  0  0  0  0  0  0  0  0  0  0  0
   -1.9141    1.0864   -0.4251 H   0  0  0  0  0  0  0  0  0  0  0  0
   -1.4895    5.2404    0.9588 H   0  0  0  0  0  0  0  0  0  0  0  0
   -0.5119    5.2382   -0.5262 H   0  0  0  0  0  0  0  0  0  0  0  0
    0.2420    4.6856    1.0627 H   0  0  0  0  0  0  0  0  0  0  0  0
  1  2  1  0
  2  3  1  0
  3  4  1  0
  4  5  1  0
  5  6  1  0
  6  7  2  0
  6  8  1  0
  8  9  2  0
  9 10  1  0
 10 11  1  0
 11 12  2  0
 12 13  1  0
 13 14  1  6
 13 15  1  0
 15 16  2  0
 16 17  1  0
 17 18  2  0
 16 19  1  0
 19 20  1  0
 20 21  1  0
 21 22  1  0
 22 23  2  0
 22 24  1  0
 24 25  1  6
 24 26  1  0
 26 27  1  0
 27 28  1  0
 28 29  1  0
 29 30  1  0
 29 31  2  0
 13  4  1  0
 27 15  1  0
 12  8  1  0
 24 19  1  0
 17 11  1  0
  1 32  1  0
  1 33  1  0
  1 34  1  0
  3 35  1  0
  3 36  1  0
  4 37  1  1
  9 38  1  0
 14 39  1  0
 14 40  1  0
 14 41  1  0
 19 42  1  1
 20 43  1  0
 20 44  1  0
 21 45  1  0
 21 46  1  0
 25 47  1  0
 25 48  1  0
 25 49  1  0
 26 50  1  0
 26 51  1  0
 27 52  1  6
 30 53  1  0
 30 54  1  0
 30 55  1  0
M  END
$$$$
