@<TRIPOS>MOLECULE
*****
 55 59 0 0 0
SMALL
GASTEIGER

@<TRIPOS>ATOM
      1 C           4.2570   -0.3748    1.8695 C.3     1  UNL1        0.0366
      2 O           3.5095   -0.0513    0.7349 O.3     1  UNL1       -0.3793
      3 C           2.7026    1.0410    0.9492 C.3     1  UNL1        0.0854
      4 C           1.9207    1.3593   -0.2764 C.3     1  UNL1        0.1397
      5 O           2.8935    1.6449   -1.3314 O.3     1  UNL1       -0.4543
      6 C           3.6676    0.6567   -1.9060 C.2     1  UNL1        0.3429
      7 O           4.7665    0.8027   -2.4624 O.2     1  UNL1       -0.2448
      8 C           3.1063   -0.7097   -1.8384 C.ar    1  UNL1        0.1014
      9 C           3.5171   -1.9704   -2.1235 C.ar    1  UNL1        0.1070
     10 O           2.5870   -2.8244   -1.6904 O.2     1  UNL1       -0.4585
     11 C           1.5908   -2.1323   -1.1356 C.ar    1  UNL1        0.1793
     12 C           1.8874   -0.8219   -1.2225 C.ar    1  UNL1        0.0292
     13 C           1.0483    0.2978   -0.8190 C.3     1  UNL1        0.0615
     14 C           0.5928    0.9061   -2.2187 C.3     1  UNL1       -0.0480
     15 C          -0.1885   -0.0759   -0.1329 C.2     1  UNL1       -0.0084
     16 C          -0.5266   -1.3505    0.0166 C.2     1  UNL1        0.0107
     17 C           0.3350   -2.4594   -0.4868 C.2     1  UNL1        0.2247
     18 O           0.0103   -3.6582   -0.3676 O.2     1  UNL1       -0.2837
     19 C          -1.7266   -1.7975    0.6956 C.3     1  UNL1        0.0006
     20 C          -2.5900   -2.8108    0.0497 C.3     1  UNL1       -0.0385
     21 C          -3.8168   -2.7797    0.9910 C.3     1  UNL1        0.0070
     22 C          -3.7127   -1.4759    1.7069 C.2     1  UNL1        0.1399
     23 O          -4.2890   -1.1657    2.7163 O.2     1  UNL1       -0.2968
     24 C          -2.7730   -0.6987    0.9086 C.3     1  UNL1        0.0367
     25 C          -3.4178   -0.3618   -0.4153 C.3     1  UNL1       -0.0521
     26 C          -2.0093    0.3879    1.5453 C.3     1  UNL1        0.0010
     27 C          -1.1402    0.9268    0.3939 C.3     1  UNL1        0.1266
     28 O          -0.6579    2.1753    0.7145 O.3     1  UNL1       -0.4570
     29 C          -1.1619    3.3537    0.1133 C.2     1  UNL1        0.3045
     30 C          -0.6577    4.6877    0.4453 C.3     1  UNL1        0.0333
     31 O          -2.0693    3.2040   -0.7257 O.2     1  UNL1       -0.2511
     32 H           4.9167    0.4335    2.1966 H       1  UNL1        0.0524
     33 H           4.7952   -1.3243    1.6349 H       1  UNL1        0.0524
     34 H           3.5136   -0.5909    2.6862 H       1  UNL1        0.0524
     35 H           3.3186    1.9469    1.1827 H       1  UNL1        0.0597
     36 H           2.0708    0.8071    1.8309 H       1  UNL1        0.0597
     37 H           1.4384    2.3839   -0.2066 H       1  UNL1        0.0769
     38 H           4.4489   -2.2058   -2.6198 H       1  UNL1        0.1038
     39 H          -0.2199    0.3000   -2.6142 H       1  UNL1        0.0242
     40 H           1.4819    0.8667   -2.8517 H       1  UNL1        0.0242
     41 H           0.3471    1.9500   -1.9808 H       1  UNL1        0.0242
     42 H          -1.4720   -2.2264    1.7252 H       1  UNL1        0.0359
     43 H          -2.9420   -2.5249   -0.9449 H       1  UNL1        0.0275
     44 H          -2.2372   -3.8614    0.1082 H       1  UNL1        0.0275
     45 H          -4.7554   -2.7597    0.4090 H       1  UNL1        0.0342
     46 H          -3.8475   -3.6362    1.6596 H       1  UNL1        0.0342
     47 H          -2.7550   -0.5275   -1.2598 H       1  UNL1        0.0239
     48 H          -4.3019   -1.0478   -0.6010 H       1  UNL1        0.0239
     49 H          -3.8694    0.6416   -0.3332 H       1  UNL1        0.0239
     50 H          -2.5956    1.2346    1.9150 H       1  UNL1        0.0314
     51 H          -1.3166   -0.0347    2.2957 H       1  UNL1        0.0314
     52 H          -1.9141    1.0864   -0.4251 H       1  UNL1        0.0783
     53 H          -1.4895    5.2404    0.9588 H       1  UNL1        0.0342
     54 H          -0.5119    5.2382   -0.5262 H       1  UNL1        0.0342
     55 H           0.2420    4.6856    1.0627 H       1  UNL1        0.0342
@<TRIPOS>BOND
     1     1     2    1
     2     2     3    1
     3     3     4    1
     4     4     5    1
     5     5     6    1
     6     6     7    2
     7     6     8    1
     8     8     9   ar
     9     9    10   ar
    10    10    11   ar
    11    11    12   ar
    12    12    13    1
    13    13    14    1
    14    13    15    1
    15    15    16    2
    16    16    17    1
    17    17    18    2
    18    16    19    1
    19    19    20    1
    20    20    21    1
    21    21    22    1
    22    22    23    2
    23    22    24    1
    24    24    25    1
    25    24    26    1
    26    26    27    1
    27    27    28    1
    28    28    29    1
    29    29    30    1
    30    29    31    2
    31    13     4    1
    32    27    15    1
    33    12     8   ar
    34    24    19    1
    35    17    11    1
    36     1    32    1
    37     1    33    1
    38     1    34    1
    39     3    35    1
    40     3    36    1
    41     4    37    1
    42     9    38    1
    43    14    39    1
    44    14    40    1
    45    14    41    1
    46    19    42    1
    47    20    43    1
    48    20    44    1
    49    21    45    1
    50    21    46    1
    51    25    47    1
    52    25    48    1
    53    25    49    1
    54    26    50    1
    55    26    51    1
    56    27    52    1
    57    30    53    1
    58    30    54    1
    59    30    55    1
