@<TRIPOS>MOLECULE
*****
 72 77 0 0 0
SMALL
GASTEIGER

@<TRIPOS>ATOM
      1 O           5.6286    3.9829    1.9858 O.2     1  UNL1       -0.2472
      2 C           6.8757    3.8614    1.9020 C.2     1  UNL1        0.3427
      3 O           7.6639    4.9452    2.2424 O.3     1  UNL1       -0.4783
      4 C           7.5205    2.5926    1.4498 C.3     1  UNL1        0.1857
      5 O           6.5717    1.6127    1.1499 O.3     1  UNL1       -0.4808
      6 C           6.8605    0.3448    0.7087 C.ar    1  UNL1        0.1220
      7 C           8.1210   -0.1612    0.4932 C.ar    1  UNL1       -0.0179
      8 C           8.3149   -1.4522    0.0471 C.ar    1  UNL1       -0.0343
      9 C           7.2327   -2.2770   -0.1964 C.ar    1  UNL1        0.0470
     10 N           7.1250   -3.5631   -0.6313 N.ar    1  UNL1       -0.3604
     11 C           5.8149   -3.8867   -0.6965 C.ar    1  UNL1        0.0060
     12 C           5.0567   -2.8247   -0.3083 C.ar    1  UNL1       -0.0200
     13 C           3.6020   -2.6587   -0.1985 C.3     1  UNL1        0.0032
     14 CA          3.0696   -1.8157   -1.3661 C.3     1  UNL1        0.1245
     15 N           1.6300   -1.7053   -1.1769 N.am    1  UNL1       -0.2981
     16 C           1.0490   -0.4216   -0.9902 C.2     1  UNL1        0.2448
     17 O           1.8723    0.5624   -1.0047 O.2     1  UNL1       -0.2702
     18 C          -0.3725   -0.1898   -0.7927 C.ar    1  UNL1        0.0388
     19 C          -1.2527   -1.2355   -0.7994 C.ar    1  UNL1       -0.0476
     20 C          -2.6117   -0.9893   -0.6052 C.ar    1  UNL1       -0.0353
     21 C          -3.0630    0.2973   -0.4085 C.ar    1  UNL1        0.0694
     22 C          -2.1643    1.3354   -0.4050 C.ar    1  UNL1        0.0904
     23 C          -0.8183    1.0922   -0.5973 C.ar    1  UNL1       -0.0221
     24 N          -2.8617    2.4613   -0.1953 N.ar    1  UNL1       -0.2274
     25 C          -4.1510    2.1059   -0.0755 C.ar    1  UNL1        0.1451
     26 C          -5.2131    3.0826    0.1638 C.ar    1  UNL1        0.0551
     27 C          -5.8842    3.7735   -0.8142 C.ar    1  UNL1       -0.0132
     28 C          -6.7875    4.5770   -0.1557 C.ar    1  UNL1        0.0924
     29 O          -6.6482    4.3647    1.1230 O.2     1  UNL1       -0.4703
     30 C          -5.7205    3.4796    1.3801 C.ar    1  UNL1        0.1023
     31 N          -4.3176    0.7959   -0.1991 N.ar    1  UNL1       -0.3204
     32 C          -5.4817   -0.0217   -0.1455 C.3     1  UNL1        0.0365
     33 C          -6.7433    0.6317   -0.6548 C.3     1  UNL1       -0.0320
     34 C          -7.7759   -0.5061   -0.7337 C.3     1  UNL1       -0.0512
     35 C          -8.0910   -0.8633    0.7144 C.3     1  UNL1       -0.0529
     36 C          -6.8671   -1.5095    1.3108 C.3     1  UNL1       -0.0512
     37 C          -5.6629   -0.6011    1.2367 C.3     1  UNL1       -0.0320
     38 C           3.3153   -2.5832   -2.6036 C.2     1  UNL1        0.3256
     39 O           2.3395   -2.9995   -3.2685 O.2     1  UNL1       -0.2489
     40 OXT         4.5868   -2.8535   -3.0455 O.3     1  UNL1       -0.4793
     41 C           5.9583   -1.8046    0.0083 C.ar    1  UNL1        0.0063
     42 C           5.7889   -0.5123    0.4539 C.ar    1  UNL1       -0.0105
     43 H           7.3566    5.9118    2.1044 H       1  UNL1        0.2952
     44 H           8.1850    2.2787    2.2841 H       1  UNL1        0.0815
     45 H           8.0988    2.8039    0.5307 H       1  UNL1        0.0815
     46 H           8.9509    0.4748    0.6813 H       1  UNL1        0.0655
     47 H           9.3122   -1.8402   -0.1191 H       1  UNL1        0.0639
     48 H           7.8929   -4.2130   -0.8792 H       1  UNL1        0.1653
     49 H           5.3778   -4.8455   -1.0093 H       1  UNL1        0.0810
     50 H           3.0324   -3.6010   -0.1115 H       1  UNL1        0.0337
     51 H           3.3989   -2.0944    0.7544 H       1  UNL1        0.0337
     52 HA          3.5536   -0.8166   -1.3628 H       1  UNL1        0.0618
     53 H           1.0144   -2.5506   -1.1747 H       1  UNL1        0.1498
     54 H          -0.9591   -2.2746   -0.9491 H       1  UNL1        0.0626
     55 H          -3.3229   -1.8172   -0.6086 H       1  UNL1        0.0639
     56 H          -0.0900    1.8886   -0.5993 H       1  UNL1        0.0647
     57 H          -5.7712    3.7365   -1.8950 H       1  UNL1        0.0656
     58 H          -7.4949    5.2703   -0.6366 H       1  UNL1        0.1029
     59 H          -5.4066    3.1222    2.3728 H       1  UNL1        0.1036
     60 H          -5.3177   -0.9106   -0.8239 H       1  UNL1        0.0528
     61 H          -7.1851    1.3455    0.0858 H       1  UNL1        0.0285
     62 H          -6.5395    1.0717   -1.6308 H       1  UNL1        0.0285
     63 H          -7.2267   -1.4001   -1.1483 H       1  UNL1        0.0266
     64 H          -8.6517   -0.2336   -1.3166 H       1  UNL1        0.0266
     65 H          -8.9486   -1.5350    0.7990 H       1  UNL1        0.0265
     66 H          -8.2305    0.1142    1.2476 H       1  UNL1        0.0265
     67 H          -6.6133   -2.4565    0.7688 H       1  UNL1        0.0266
     68 H          -7.0439   -1.7346    2.3863 H       1  UNL1        0.0266
     69 H          -4.7531   -1.2123    1.4554 H       1  UNL1        0.0285
     70 H          -5.6863    0.2078    1.9766 H       1  UNL1        0.0285
     71 HXT         4.7855   -2.9996   -4.0465 H       1  UNL1        0.2951
     72 H           4.7726   -0.1542    0.6105 H       1  UNL1        0.0661
@<TRIPOS>BOND
     1     1     2    2
     2     2     3    1
     3     2     4    1
     4     4     5    1
     5     5     6    1
     6     6     7   ar
     7     7     8   ar
     8     8     9   ar
     9     9    10   ar
    10    10    11   ar
    11    11    12   ar
    12    12    13    1
    13    13    14    1
    14    14    15    1
    15    15    16   am
    16    16    17    2
    17    16    18    1
    18    18    19   ar
    19    19    20   ar
    20    20    21   ar
    21    21    22   ar
    22    22    23   ar
    23    22    24   ar
    24    24    25   ar
    25    25    26    1
    26    26    27   ar
    27    27    28   ar
    28    28    29   ar
    29    29    30   ar
    30    25    31   ar
    31    31    32    1
    32    32    33    1
    33    33    34    1
    34    34    35    1
    35    35    36    1
    36    36    37    1
    37    14    38    1
    38    38    39    2
    39    38    40    1
    40    12    41   ar
    41    41    42   ar
    42    42     6   ar
    43    41     9   ar
    44    23    18   ar
    45    30    26   ar
    46    37    32    1
    47    31    21   ar
    48     3    43    1
    49     4    44    1
    50     4    45    1
    51     7    46    1
    52     8    47    1
    53    10    48    1
    54    11    49    1
    55    13    50    1
    56    13    51    1
    57    14    52    1
    58    15    53    1
    59    19    54    1
    60    20    55    1
    61    23    56    1
    62    27    57    1
    63    28    58    1
    64    30    59    1
    65    32    60    1
    66    33    61    1
    67    33    62    1
    68    34    63    1
    69    34    64    1
    70    35    65    1
    71    35    66    1
    72    36    67    1
    73    36    68    1
    74    37    69    1
    75    37    70    1
    76    40    71    1
    77    42    72    1
