@<TRIPOS>MOLECULE
*****
 38 42 0 0 0
SMALL
GASTEIGER

@<TRIPOS>ATOM
      1 O           0.2524    2.4410   -3.1885 O.2     1  UNL1       -0.2656
      2 C          -0.0544    1.6928   -2.2255 C.ar    1  UNL1        0.2748
      3 N          -1.3528    1.4085   -1.9334 N.ar    1  UNL1       -0.3203
      4 C          -1.7161    0.6196   -0.9206 C.ar    1  UNL1        0.0520
      5 C          -3.0458    0.3373   -0.6331 C.ar    1  UNL1       -0.0270
      6 C          -3.4137   -0.4809    0.4178 C.ar    1  UNL1        0.0192
      7 C          -4.8078   -0.7602    0.6974 C.ar    1  UNL1        0.1348
      8 C          -5.9011   -0.2903    0.0122 C.ar    1  UNL1       -0.0159
      9 C          -7.0409   -0.8172    0.6326 C.ar    1  UNL1       -0.0233
     10 C          -6.5454   -1.5820    1.6676 C.ar    1  UNL1        0.0926
     11 O          -5.2357   -1.5209    1.6693 O.2     1  UNL1       -0.4629
     12 C          -2.3898   -1.0093    1.1755 C.ar    1  UNL1       -0.0503
     13 C          -1.0641   -0.7713    0.9459 C.ar    1  UNL1       -0.0499
     14 C          -0.7391    0.0637   -0.1298 C.ar    1  UNL1        0.0260
     15 C           0.5798    0.3443   -0.4157 C.ar    1  UNL1        0.1039
     16 N           1.6952   -0.0517    0.1738 N.ar    1  UNL1       -0.2269
     17 C           2.7823    0.4580   -0.4273 C.ar    1  UNL1        0.1408
     18 C           4.1411    0.2064   -0.0121 C.ar    1  UNL1        0.0356
     19 C           5.2479    0.7418   -0.6458 C.ar    1  UNL1       -0.0497
     20 C           6.5279    0.4760   -0.2169 C.ar    1  UNL1       -0.0610
     21 C           6.7705   -0.3360    0.8642 C.ar    1  UNL1       -0.0603
     22 C           5.6779   -0.8790    1.5087 C.ar    1  UNL1       -0.0427
     23 C           4.3917   -0.6031    1.0662 C.ar    1  UNL1        0.0516
     24 CL          3.0529   -1.3324    1.9398 Cl      1  UNL1       -0.0828
     25 N           2.3018    1.2035   -1.4360 N.ar    1  UNL1       -0.3336
     26 C           0.9579    1.1574   -1.4595 C.ar    1  UNL1        0.1322
     27 H          -2.1267    1.8188   -2.5205 H       1  UNL1        0.1690
     28 H          -3.7956    0.7754   -1.2551 H       1  UNL1        0.0645
     29 H          -5.8756    0.3660   -0.8477 H       1  UNL1        0.0655
     30 H          -8.0785   -0.6422    0.3381 H       1  UNL1        0.0649
     31 H          -7.1577   -2.1403    2.3623 H       1  UNL1        0.1029
     32 H          -2.6623   -1.6516    2.0016 H       1  UNL1        0.0625
     33 H          -0.2696   -1.1885    1.5433 H       1  UNL1        0.0625
     34 H           5.0286    1.3861   -1.5052 H       1  UNL1        0.0625
     35 H           7.3695    0.9041   -0.7262 H       1  UNL1        0.0618
     36 H           7.7778   -0.5528    1.2118 H       1  UNL1        0.0618
     37 H           5.8388   -1.5258    2.3678 H       1  UNL1        0.0632
     38 H           2.8788    1.7348   -2.0973 H       1  UNL1        0.1675
@<TRIPOS>BOND
     1     1     2    2
     2     2     3   ar
     3     3     4   ar
     4     4     5   ar
     5     5     6   ar
     6     6     7    1
     7     7     8   ar
     8     8     9   ar
     9     9    10   ar
    10    10    11   ar
    11     6    12   ar
    12    12    13   ar
    13    13    14   ar
    14    14    15   ar
    15    15    16   ar
    16    16    17   ar
    17    17    18    1
    18    18    19   ar
    19    19    20   ar
    20    20    21   ar
    21    21    22   ar
    22    22    23   ar
    23    23    24    1
    24    17    25   ar
    25    25    26   ar
    26    26     2   ar
    27    14     4   ar
    28    26    15   ar
    29    11     7   ar
    30    23    18   ar
    31     3    27    1
    32     5    28    1
    33     8    29    1
    34     9    30    1
    35    10    31    1
    36    12    32    1
    37    13    33    1
    38    19    34    1
    39    20    35    1
    40    21    36    1
    41    22    37    1
    42    25    38    1
