
     RDKit          3D

 38 42  0  0  0  0  0  0  0  0999 V2000
    0.2524    2.4410   -3.1885 O   0  0  0  0  0  0  0  0  0  0  0  0
   -0.0544    1.6928   -2.2255 C   0  0  0  0  0  0  0  0  0  0  0  0
   -1.3528    1.4085   -1.9334 N   0  0  0  0  0  0  0  0  0  0  0  0
   -1.7161    0.6196   -0.9206 C   0  0  0  0  0  0  0  0  0  0  0  0
   -3.0458    0.3373   -0.6331 C   0  0  0  0  0  0  0  0  0  0  0  0
   -3.4137   -0.4809    0.4178 C   0  0  0  0  0  0  0  0  0  0  0  0
   -4.8078   -0.7602    0.6974 C   0  0  0  0  0  0  0  0  0  0  0  0
   -5.9011   -0.2903    0.0122 C   0  0  0  0  0  0  0  0  0  0  0  0
   -7.0409   -0.8172    0.6326 C   0  0  0  0  0  0  0  0  0  0  0  0
   -6.5454   -1.5820    1.6676 C   0  0  0  0  0  0  0  0  0  0  0  0
   -5.2357   -1.5209    1.6693 O   0  0  0  0  0  0  0  0  0  0  0  0
   -2.3898   -1.0093    1.1755 C   0  0  0  0  0  0  0  0  0  0  0  0
   -1.0641   -0.7713    0.9459 C   0  0  0  0  0  0  0  0  0  0  0  0
   -0.7391    0.0637   -0.1298 C   0  0  0  0  0  0  0  0  0  0  0  0
    0.5798    0.3443   -0.4157 C   0  0  0  0  0  0  0  0  0  0  0  0
    1.6952   -0.0517    0.1738 N   0  0  0  0  0  0  0  0  0  0  0  0
    2.7823    0.4580   -0.4273 C   0  0  0  0  0  0  0  0  0  0  0  0
    4.1411    0.2064   -0.0121 C   0  0  0  0  0  0  0  0  0  0  0  0
    5.2479    0.7418   -0.6458 C   0  0  0  0  0  0  0  0  0  0  0  0
    6.5279    0.4760   -0.2169 C   0  0  0  0  0  0  0  0  0  0  0  0
    6.7705   -0.3360    0.8642 C   0  0  0  0  0  0  0  0  0  0  0  0
    5.6779   -0.8790    1.5087 C   0  0  0  0  0  0  0  0  0  0  0  0
    4.3917   -0.6031    1.0662 C   0  0  0  0  0  0  0  0  0  0  0  0
    3.0529   -1.3324    1.9398 Cl  0  0  0  0  0  0  0  0  0  0  0  0
    2.3018    1.2035   -1.4360 N   0  0  0  0  0  0  0  0  0  0  0  0
    0.9579    1.1574   -1.4595 C   0  0  0  0  0  0  0  0  0  0  0  0
   -2.1267    1.8188   -2.5205 H   0  0  0  0  0  0  0  0  0  0  0  0
   -3.7956    0.7754   -1.2551 H   0  0  0  0  0  0  0  0  0  0  0  0
   -5.8756    0.3660   -0.8477 H   0  0  0  0  0  0  0  0  0  0  0  0
   -8.0785   -0.6422    0.3381 H   0  0  0  0  0  0  0  0  0  0  0  0
   -7.1577   -2.1403    2.3623 H   0  0  0  0  0  0  0  0  0  0  0  0
   -2.6623   -1.6516    2.0016 H   0  0  0  0  0  0  0  0  0  0  0  0
   -0.2696   -1.1885    1.5433 H   0  0  0  0  0  0  0  0  0  0  0  0
    5.0286    1.3861   -1.5052 H   0  0  0  0  0  0  0  0  0  0  0  0
    7.3695    0.9041   -0.7262 H   0  0  0  0  0  0  0  0  0  0  0  0
    7.7778   -0.5528    1.2118 H   0  0  0  0  0  0  0  0  0  0  0  0
    5.8388   -1.5258    2.3678 H   0  0  0  0  0  0  0  0  0  0  0  0
    2.8788    1.7348   -2.0973 H   0  0  0  0  0  0  0  0  0  0  0  0
  1  2  2  0
  2  3  1  0
  3  4  1  0
  4  5  2  0
  5  6  1  0
  6  7  1  0
  7  8  2  0
  8  9  1  0
  9 10  2  0
 10 11  1  0
  6 12  2  0
 12 13  1  0
 13 14  2  0
 14 15  1  0
 15 16  1  0
 16 17  2  0
 17 18  1  0
 18 19  2  0
 19 20  1  0
 20 21  2  0
 21 22  1  0
 22 23  2  0
 23 24  1  0
 17 25  1  0
 25 26  1  0
 26  2  1  0
 14  4  1  0
 26 15  2  0
 11  7  1  0
 23 18  1  0
  3 27  1  0
  5 28  1  0
  8 29  1  0
  9 30  1  0
 10 31  1  0
 12 32  1  0
 13 33  1  0
 19 34  1  0
 20 35  1  0
 21 36  1  0
 22 37  1  0
 25 38  1  0
M  END
$$$$
