
     RDKit          3D

 62 65  0  0  0  0  0  0  0  0999 V2000
   -5.3614   -2.4970   -0.8666 C   0  0  0  0  0  0  0  0  0  0  0  0
   -4.9522   -2.0890    0.4414 N   0  0  0  0  0  0  0  0  0  0  0  0
   -4.8446   -3.2879    1.2614 C   0  0  0  0  0  0  0  0  0  0  0  0
   -3.6921   -1.4221    0.4804 C   0  0  0  0  0  0  0  0  0  0  0  0
   -3.6286   -0.0792   -0.1518 C   0  0  0  0  0  0  0  0  0  0  0  0
   -2.2321    0.3751    0.0156 N   0  0  0  0  0  0  0  0  0  0  0  0
   -1.4065    0.6150   -1.0973 C   0  0  0  0  0  0  0  0  0  0  0  0
   -1.9100    0.4247   -2.2341 O   0  0  0  0  0  0  0  0  0  0  0  0
   -0.0770    1.0496   -0.9047 N   0  0  0  0  0  0  0  0  0  0  0  0
    0.5474    1.2847    0.3929 C   0  0  0  0  0  0  0  0  0  0  0  0
    1.9432    0.7648    0.1211 C   0  0  0  0  0  0  0  0  0  0  0  0
    2.8958    0.3072    0.9493 N   0  0  0  0  0  0  0  0  0  0  0  0
    4.1194   -0.1323    0.5123 C   0  0  0  0  0  0  0  0  0  0  0  0
    5.0785   -0.6056    1.4336 N   0  0  0  0  0  0  0  0  0  0  0  0
    6.3666   -1.0649    1.1601 C   0  0  0  0  0  0  0  0  0  0  0  0
    7.1308   -1.5512    2.2074 C   0  0  0  0  0  0  0  0  0  0  0  0
    8.4066   -2.0278    2.0894 C   0  0  0  0  0  0  0  0  0  0  0  0
    8.9816   -2.0276    0.8393 C   0  0  0  0  0  0  0  0  0  0  0  0
    8.2587   -1.5530   -0.2317 C   0  0  0  0  0  0  0  0  0  0  0  0
    6.9467   -1.0678   -0.0825 C   0  0  0  0  0  0  0  0  0  0  0  0
    4.2907   -0.0693   -0.8104 N   0  0  0  0  0  0  0  0  0  0  0  0
    3.3954    0.3716   -1.6980 C   0  0  0  0  0  0  0  0  0  0  0  0
    2.1704    0.8093   -1.2351 C   0  0  0  0  0  0  0  0  0  0  0  0
    0.9495    1.3581   -1.8613 C   0  0  0  0  0  0  0  0  0  0  0  0
    0.7269    0.6683   -3.1890 C   0  0  0  0  0  0  0  0  0  0  0  0
    1.1422    2.8386   -2.0796 C   0  0  0  0  0  0  0  0  0  0  0  0
   -4.4475    0.9700    0.4588 C   0  0  0  0  0  0  0  0  0  0  0  0
   -5.4882    0.7783    1.3159 C   0  0  0  0  0  0  0  0  0  0  0  0
   -6.1974    1.8655    1.8348 C   0  0  0  0  0  0  0  0  0  0  0  0
   -5.8598    3.1545    1.4912 C   0  0  0  0  0  0  0  0  0  0  0  0
   -4.8211    3.3669    0.6346 C   0  0  0  0  0  0  0  0  0  0  0  0
   -4.1263    2.2943    0.1265 C   0  0  0  0  0  0  0  0  0  0  0  0
   -4.5315   -2.7006   -1.5650 H   0  0  0  0  0  0  0  0  0  0  0  0
   -5.9868   -1.6610   -1.2888 H   0  0  0  0  0  0  0  0  0  0  0  0
   -6.0241   -3.3814   -0.8693 H   0  0  0  0  0  0  0  0  0  0  0  0
   -5.7996   -3.8358    1.3365 H   0  0  0  0  0  0  0  0  0  0  0  0
   -4.5224   -2.9590    2.2697 H   0  0  0  0  0  0  0  0  0  0  0  0
   -4.0250   -3.9294    0.8479 H   0  0  0  0  0  0  0  0  0  0  0  0
   -3.2550   -1.3499    1.4944 H   0  0  0  0  0  0  0  0  0  0  0  0
   -2.9688   -2.0774   -0.0868 H   0  0  0  0  0  0  0  0  0  0  0  0
   -3.8185   -0.1471   -1.2495 H   0  0  0  0  0  0  0  0  0  0  0  0
   -1.9336    0.4949    1.0078 H   0  0  0  0  0  0  0  0  0  0  0  0
    0.0834    0.6959    1.2016 H   0  0  0  0  0  0  0  0  0  0  0  0
    0.6335    2.3659    0.6190 H   0  0  0  0  0  0  0  0  0  0  0  0
    4.7558   -0.6005    2.4523 H   0  0  0  0  0  0  0  0  0  0  0  0
    6.7065   -1.5641    3.1997 H   0  0  0  0  0  0  0  0  0  0  0  0
    8.9471   -2.3972    2.9721 H   0  0  0  0  0  0  0  0  0  0  0  0
    9.9881   -2.3943    0.6970 H   0  0  0  0  0  0  0  0  0  0  0  0
    8.7129   -1.5532   -1.2143 H   0  0  0  0  0  0  0  0  0  0  0  0
    6.4221   -0.7052   -0.9502 H   0  0  0  0  0  0  0  0  0  0  0  0
    3.5579    0.4121   -2.7579 H   0  0  0  0  0  0  0  0  0  0  0  0
    1.6193    0.9374   -3.8275 H   0  0  0  0  0  0  0  0  0  0  0  0
    0.7622   -0.4213   -3.0587 H   0  0  0  0  0  0  0  0  0  0  0  0
   -0.1527    1.0394   -3.7218 H   0  0  0  0  0  0  0  0  0  0  0  0
    0.3278    3.2445   -2.7116 H   0  0  0  0  0  0  0  0  0  0  0  0
    1.2392    3.3798   -1.1230 H   0  0  0  0  0  0  0  0  0  0  0  0
    2.0890    2.9804   -2.6366 H   0  0  0  0  0  0  0  0  0  0  0  0
   -5.7546   -0.2282    1.5891 H   0  0  0  0  0  0  0  0  0  0  0  0
   -7.0281    1.6744    2.5205 H   0  0  0  0  0  0  0  0  0  0  0  0
   -6.4585    3.9576    1.9357 H   0  0  0  0  0  0  0  0  0  0  0  0
   -4.5834    4.3955    0.3863 H   0  0  0  0  0  0  0  0  0  0  0  0
   -3.3077    2.5062   -0.5518 H   0  0  0  0  0  0  0  0  0  0  0  0
  1  2  1  0
  2  3  1  0
  2  4  1  0
  4  5  1  0
  5  6  1  0
  6  7  1  0
  7  8  2  0
  7  9  1  0
  9 10  1  0
 10 11  1  0
 11 12  2  0
 12 13  1  0
 13 14  1  0
 14 15  1  0
 15 16  2  0
 16 17  1  0
 17 18  2  0
 18 19  1  0
 19 20  2  0
 13 21  2  0
 21 22  1  0
 22 23  2  0
 23 24  1  0
 24 25  1  0
 24 26  1  0
  5 27  1  0
 27 28  2  0
 28 29  1  0
 29 30  2  0
 30 31  1  0
 31 32  2  0
 24  9  1  0
 32 27  1  0
 23 11  1  0
 20 15  1  0
  1 33  1  0
  1 34  1  0
  1 35  1  0
  3 36  1  0
  3 37  1  0
  3 38  1  0
  4 39  1  0
  4 40  1  0
  5 41  1  0
  6 42  1  0
 10 43  1  0
 10 44  1  0
 14 45  1  0
 16 46  1  0
 17 47  1  0
 18 48  1  0
 19 49  1  0
 20 50  1  0
 22 51  1  0
 25 52  1  0
 25 53  1  0
 25 54  1  0
 26 55  1  0
 26 56  1  0
 26 57  1  0
 28 58  1  0
 29 59  1  0
 30 60  1  0
 31 61  1  0
 32 62  1  0
M  END
$$$$
