@<TRIPOS>MOLECULE
*****
 62 65 0 0 0
SMALL
GASTEIGER

@<TRIPOS>ATOM
      1 C          -5.3614   -2.4970   -0.8666 C.3     1  UNL1       -0.0130
      2 N          -4.9522   -2.0890    0.4414 N.3     1  UNL1       -0.3063
      3 C          -4.8446   -3.2879    1.2614 C.3     1  UNL1       -0.0130
      4 C          -3.6921   -1.4221    0.4804 C.3     1  UNL1        0.0209
      5 C          -3.6286   -0.0792   -0.1518 C.3     1  UNL1        0.0625
      6 N          -2.2321    0.3751    0.0156 N.am    1  UNL1       -0.2912
      7 C          -1.4065    0.6150   -1.0973 C.2     1  UNL1        0.3037
      8 O          -1.9100    0.4247   -2.2341 O.2     1  UNL1       -0.2526
      9 N          -0.0770    1.0496   -0.9047 N.am    1  UNL1       -0.2705
     10 C           0.5474    1.2847    0.3929 C.3     1  UNL1        0.0596
     11 C           1.9432    0.7648    0.1211 C.ar    1  UNL1        0.0689
     12 N           2.8958    0.3072    0.9493 N.ar    1  UNL1       -0.2173
     13 C           4.1194   -0.1323    0.5123 C.ar    1  UNL1        0.2197
     14 N           5.0785   -0.6056    1.4336 N.pl3   1  UNL1       -0.2836
     15 C           6.3666   -1.0649    1.1601 C.ar    1  UNL1        0.0336
     16 C           7.1308   -1.5512    2.2074 C.ar    1  UNL1       -0.0405
     17 C           8.4066   -2.0278    2.0894 C.ar    1  UNL1       -0.0600
     18 C           8.9816   -2.0276    0.8393 C.ar    1  UNL1       -0.0616
     19 C           8.2587   -1.5530   -0.2317 C.ar    1  UNL1       -0.0600
     20 C           6.9467   -1.0678   -0.0825 C.ar    1  UNL1       -0.0405
     21 N           4.2907   -0.0693   -0.8104 N.ar    1  UNL1       -0.2223
     22 C           3.3954    0.3716   -1.6980 C.ar    1  UNL1        0.0382
     23 C           2.1704    0.8093   -1.2351 C.ar    1  UNL1        0.0166
     24 C           0.9495    1.3581   -1.8613 C.3     1  UNL1        0.0619
     25 C           0.7269    0.6683   -3.1890 C.3     1  UNL1       -0.0394
     26 C           1.1422    2.8386   -2.0796 C.3     1  UNL1       -0.0394
     27 C          -4.4475    0.9700    0.4588 C.ar    1  UNL1       -0.0259
     28 C          -5.4882    0.7783    1.3159 C.ar    1  UNL1       -0.0568
     29 C          -6.1974    1.8655    1.8348 C.ar    1  UNL1       -0.0614
     30 C          -5.8598    3.1545    1.4912 C.ar    1  UNL1       -0.0617
     31 C          -4.8211    3.3669    0.6346 C.ar    1  UNL1       -0.0614
     32 C          -4.1263    2.2943    0.1265 C.ar    1  UNL1       -0.0568
     33 H          -4.5315   -2.7006   -1.5650 H       1  UNL1        0.0391
     34 H          -5.9868   -1.6610   -1.2888 H       1  UNL1        0.0391
     35 H          -6.0241   -3.3814   -0.8693 H       1  UNL1        0.0391
     36 H          -5.7996   -3.8358    1.3365 H       1  UNL1        0.0391
     37 H          -4.5224   -2.9590    2.2697 H       1  UNL1        0.0391
     38 H          -4.0250   -3.9294    0.8479 H       1  UNL1        0.0391
     39 H          -3.2550   -1.3499    1.4944 H       1  UNL1        0.0448
     40 H          -2.9688   -2.0774   -0.0868 H       1  UNL1        0.0448
     41 H          -3.8185   -0.1471   -1.2495 H       1  UNL1        0.0561
     42 H          -1.9336    0.4949    1.0078 H       1  UNL1        0.1509
     43 H           0.0834    0.6959    1.2016 H       1  UNL1        0.0530
     44 H           0.6335    2.3659    0.6190 H       1  UNL1        0.0530
     45 H           4.7558   -0.6005    2.4523 H       1  UNL1        0.1550
     46 H           6.7065   -1.5641    3.1997 H       1  UNL1        0.0636
     47 H           8.9471   -2.3972    2.9721 H       1  UNL1        0.0618
     48 H           9.9881   -2.3943    0.6970 H       1  UNL1        0.0618
     49 H           8.7129   -1.5532   -1.2143 H       1  UNL1        0.0618
     50 H           6.4221   -0.7052   -0.9502 H       1  UNL1        0.0636
     51 H           3.5579    0.4121   -2.7579 H       1  UNL1        0.0835
     52 H           1.6193    0.9374   -3.8275 H       1  UNL1        0.0254
     53 H           0.7622   -0.4213   -3.0587 H       1  UNL1        0.0254
     54 H          -0.1527    1.0394   -3.7218 H       1  UNL1        0.0254
     55 H           0.3278    3.2445   -2.7116 H       1  UNL1        0.0254
     56 H           1.2392    3.3798   -1.1230 H       1  UNL1        0.0254
     57 H           2.0890    2.9804   -2.6366 H       1  UNL1        0.0254
     58 H          -5.7546   -0.2282    1.5891 H       1  UNL1        0.0621
     59 H          -7.0281    1.6744    2.5205 H       1  UNL1        0.0618
     60 H          -6.4585    3.9576    1.9357 H       1  UNL1        0.0618
     61 H          -4.5834    4.3955    0.3863 H       1  UNL1        0.0618
     62 H          -3.3077    2.5062   -0.5518 H       1  UNL1        0.0621
@<TRIPOS>BOND
     1     1     2    1
     2     2     3    1
     3     2     4    1
     4     4     5    1
     5     5     6    1
     6     6     7   am
     7     7     8    2
     8     7     9   am
     9     9    10    1
    10    10    11    1
    11    11    12   ar
    12    12    13   ar
    13    13    14    1
    14    14    15    1
    15    15    16   ar
    16    16    17   ar
    17    17    18   ar
    18    18    19   ar
    19    19    20   ar
    20    13    21   ar
    21    21    22   ar
    22    22    23   ar
    23    23    24    1
    24    24    25    1
    25    24    26    1
    26     5    27    1
    27    27    28   ar
    28    28    29   ar
    29    29    30   ar
    30    30    31   ar
    31    31    32   ar
    32    24     9    1
    33    32    27   ar
    34    23    11   ar
    35    20    15   ar
    36     1    33    1
    37     1    34    1
    38     1    35    1
    39     3    36    1
    40     3    37    1
    41     3    38    1
    42     4    39    1
    43     4    40    1
    44     5    41    1
    45     6    42    1
    46    10    43    1
    47    10    44    1
    48    14    45    1
    49    16    46    1
    50    17    47    1
    51    18    48    1
    52    19    49    1
    53    20    50    1
    54    22    51    1
    55    25    52    1
    56    25    53    1
    57    25    54    1
    58    26    55    1
    59    26    56    1
    60    26    57    1
    61    28    58    1
    62    29    59    1
    63    30    60    1
    64    31    61    1
    65    32    62    1
