@<TRIPOS>MOLECULE
*****
 38 40 0 0 0
SMALL
GASTEIGER

@<TRIPOS>ATOM
      1 O          -0.8615    4.6253   -1.1025 O.3     1  UNL1       -0.2930
      2 P          -1.7130    3.2099   -0.8978 P.3     1  UNL1        0.5280
      3 O          -2.9106    3.3468    0.2806 O.3     1  UNL1       -0.2930
      4 O          -2.4034    2.8813   -2.2211 O.2     1  UNL1       -0.2156
      5 O          -0.7048    1.8939   -0.4805 O.3     1  UNL1       -0.4032
      6 C          -1.2044    0.6291   -0.3178 C.ar    1  UNL1        0.1448
      7 C          -0.3158   -0.3651    0.0180 C.ar    1  UNL1        0.0797
      8 C          -0.8803   -1.6136    0.1669 C.ar    1  UNL1       -0.0383
      9 C          -2.2111   -1.8402   -0.0053 C.ar    1  UNL1       -0.0169
     10 C          -2.7250   -3.1097    0.1560 C.ar    1  UNL1       -0.0540
     11 C          -4.0794   -3.3273   -0.0219 C.ar    1  UNL1       -0.0612
     12 C          -4.9761   -2.3225   -0.3610 C.ar    1  UNL1       -0.0612
     13 C          -4.4389   -1.0595   -0.5172 C.ar    1  UNL1       -0.0539
     14 C          -3.0898   -0.8345   -0.3417 C.ar    1  UNL1       -0.0144
     15 C          -2.5558    0.4215   -0.4971 C.ar    1  UNL1       -0.0109
     16 C           1.1066   -0.2511    0.2268 C.2     1  UNL1        0.2518
     17 O           1.7925   -1.2703    0.5345 O.2     1  UNL1       -0.2697
     18 N           1.9653    0.8719    0.1498 N.am    1  UNL1       -0.2814
     19 C           3.3093    0.4444    0.4503 C.ar    1  UNL1        0.0338
     20 C           3.7662    0.4628    1.7567 C.ar    1  UNL1       -0.0391
     21 C           5.0652    0.0330    1.9246 C.ar    1  UNL1       -0.0416
     22 C           5.8896   -0.3900    0.9273 C.ar    1  UNL1        0.0411
     23 CL          7.5348   -0.9241    1.2163 Cl      1  UNL1       -0.0835
     24 C           5.4209   -0.4032   -0.3710 C.ar    1  UNL1       -0.0416
     25 C           4.1282    0.0196   -0.5745 C.ar    1  UNL1       -0.0391
     26 H          -0.8672    5.2503   -0.3601 H       1  UNL1        0.2231
     27 H          -2.6411    4.0826    0.8881 H       1  UNL1        0.2231
     28 H          -0.2639   -2.4693    0.4319 H       1  UNL1        0.0632
     29 H          -2.1213   -3.9589    0.4175 H       1  UNL1        0.0624
     30 H          -4.4799   -4.3444    0.1092 H       1  UNL1        0.0618
     31 H          -6.0163   -2.5869   -0.4788 H       1  UNL1        0.0618
     32 H          -5.1221   -0.2606   -0.7820 H       1  UNL1        0.0624
     33 H          -3.2087    1.2433   -0.7613 H       1  UNL1        0.0660
     34 H           1.5165    1.7785   -0.0977 H       1  UNL1        0.1551
     35 H           3.1430    0.7912    2.5738 H       1  UNL1        0.0636
     36 H           5.4593    0.0348    2.9483 H       1  UNL1        0.0633
     37 H           5.9851   -0.7178   -1.2378 H       1  UNL1        0.0633
     38 H           3.7082    0.0289   -1.5823 H       1  UNL1        0.0636
@<TRIPOS>BOND
     1     1     2    1
     2     2     3    1
     3     2     4    2
     4     2     5    1
     5     5     6    1
     6     6     7   ar
     7     7     8   ar
     8     8     9   ar
     9     9    10   ar
    10    10    11   ar
    11    11    12   ar
    12    12    13   ar
    13    13    14   ar
    14    14    15   ar
    15     7    16    1
    16    16    17    2
    17    16    18   am
    18    18    19    1
    19    19    20   ar
    20    20    21   ar
    21    21    22   ar
    22    22    23    1
    23    22    24   ar
    24    24    25   ar
    25    15     6   ar
    26    25    19   ar
    27    14     9   ar
    28     1    26    1
    29     3    27    1
    30     8    28    1
    31    10    29    1
    32    11    30    1
    33    12    31    1
    34    13    32    1
    35    15    33    1
    36    18    34    1
    37    20    35    1
    38    21    36    1
    39    24    37    1
    40    25    38    1
