
     RDKit          3D

 38 40  0  0  0  0  0  0  0  0999 V2000
   -0.8615    4.6253   -1.1025 O   0  0  0  0  0  0  0  0  0  0  0  0
   -1.7130    3.2099   -0.8978 P   0  0  0  0  0  0  0  0  0  0  0  0
   -2.9106    3.3468    0.2806 O   0  0  0  0  0  0  0  0  0  0  0  0
   -2.4034    2.8813   -2.2211 O   0  0  0  0  0  0  0  0  0  0  0  0
   -0.7048    1.8939   -0.4805 O   0  0  0  0  0  0  0  0  0  0  0  0
   -1.2044    0.6291   -0.3178 C   0  0  0  0  0  0  0  0  0  0  0  0
   -0.3158   -0.3651    0.0180 C   0  0  0  0  0  0  0  0  0  0  0  0
   -0.8803   -1.6136    0.1669 C   0  0  0  0  0  0  0  0  0  0  0  0
   -2.2111   -1.8402   -0.0053 C   0  0  0  0  0  0  0  0  0  0  0  0
   -2.7250   -3.1097    0.1560 C   0  0  0  0  0  0  0  0  0  0  0  0
   -4.0794   -3.3273   -0.0219 C   0  0  0  0  0  0  0  0  0  0  0  0
   -4.9761   -2.3225   -0.3610 C   0  0  0  0  0  0  0  0  0  0  0  0
   -4.4389   -1.0595   -0.5172 C   0  0  0  0  0  0  0  0  0  0  0  0
   -3.0898   -0.8345   -0.3417 C   0  0  0  0  0  0  0  0  0  0  0  0
   -2.5558    0.4215   -0.4971 C   0  0  0  0  0  0  0  0  0  0  0  0
    1.1066   -0.2511    0.2268 C   0  0  0  0  0  0  0  0  0  0  0  0
    1.7925   -1.2703    0.5345 O   0  0  0  0  0  0  0  0  0  0  0  0
    1.9653    0.8719    0.1498 N   0  0  0  0  0  0  0  0  0  0  0  0
    3.3093    0.4444    0.4503 C   0  0  0  0  0  0  0  0  0  0  0  0
    3.7662    0.4628    1.7567 C   0  0  0  0  0  0  0  0  0  0  0  0
    5.0652    0.0330    1.9246 C   0  0  0  0  0  0  0  0  0  0  0  0
    5.8896   -0.3900    0.9273 C   0  0  0  0  0  0  0  0  0  0  0  0
    7.5348   -0.9241    1.2163 Cl  0  0  0  0  0  0  0  0  0  0  0  0
    5.4209   -0.4032   -0.3710 C   0  0  0  0  0  0  0  0  0  0  0  0
    4.1282    0.0196   -0.5745 C   0  0  0  0  0  0  0  0  0  0  0  0
   -0.8672    5.2503   -0.3601 H   0  0  0  0  0  0  0  0  0  0  0  0
   -2.6411    4.0826    0.8881 H   0  0  0  0  0  0  0  0  0  0  0  0
   -0.2639   -2.4693    0.4319 H   0  0  0  0  0  0  0  0  0  0  0  0
   -2.1213   -3.9589    0.4175 H   0  0  0  0  0  0  0  0  0  0  0  0
   -4.4799   -4.3444    0.1092 H   0  0  0  0  0  0  0  0  0  0  0  0
   -6.0163   -2.5869   -0.4788 H   0  0  0  0  0  0  0  0  0  0  0  0
   -5.1221   -0.2606   -0.7820 H   0  0  0  0  0  0  0  0  0  0  0  0
   -3.2087    1.2433   -0.7613 H   0  0  0  0  0  0  0  0  0  0  0  0
    1.5165    1.7785   -0.0977 H   0  0  0  0  0  0  0  0  0  0  0  0
    3.1430    0.7912    2.5738 H   0  0  0  0  0  0  0  0  0  0  0  0
    5.4593    0.0348    2.9483 H   0  0  0  0  0  0  0  0  0  0  0  0
    5.9851   -0.7178   -1.2378 H   0  0  0  0  0  0  0  0  0  0  0  0
    3.7082    0.0289   -1.5823 H   0  0  0  0  0  0  0  0  0  0  0  0
  1  2  1  0
  2  3  1  0
  2  4  2  0
  2  5  1  0
  5  6  1  0
  6  7  2  0
  7  8  1  0
  8  9  2  0
  9 10  1  0
 10 11  2  0
 11 12  1  0
 12 13  2  0
 13 14  1  0
 14 15  2  0
  7 16  1  0
 16 17  2  0
 16 18  1  0
 18 19  1  0
 19 20  2  0
 20 21  1  0
 21 22  2  0
 22 23  1  0
 22 24  1  0
 24 25  2  0
 15  6  1  0
 25 19  1  0
 14  9  1  0
  1 26  1  0
  3 27  1  0
  8 28  1  0
 10 29  1  0
 11 30  1  0
 12 31  1  0
 13 32  1  0
 15 33  1  0
 18 34  1  0
 20 35  1  0
 21 36  1  0
 24 37  1  0
 25 38  1  0
M  END
$$$$
