@<TRIPOS>MOLECULE
*****
 53 55 0 0 0
SMALL
GASTEIGER

@<TRIPOS>ATOM
      1 C           1.6265   -3.5085    1.3521 C.2     0  UNK0       -0.0951
      2 C           2.0676   -2.5298    0.6359 C.2     0  UNK0       -0.0472
      3 C           2.7747   -2.9192   -0.6428 C.3     0  UNK0       -0.0396
      4 C           1.8594   -1.1474    0.9003 C.ar    0  UNK0        0.0166
      5 C           2.8893   -0.3081    0.3823 C.ar    0  UNK0        0.0374
      6 N           2.8414    1.0068    0.5391 N.ar    0  UNK0       -0.2542
      7 C           1.8137    1.6343    1.1997 C.ar    0  UNK0        0.0755
      8 C           1.8785    3.0815    1.3081 C.ar    0  UNK0        0.0369
      9 C           2.9622    3.7535    0.7474 C.ar    0  UNK0       -0.0314
     10 C           3.0926    5.1287    0.8105 C.ar    0  UNK0        0.0418
     11 CL          4.4541    5.9381    0.1027 Cl      0  UNK0       -0.0835
     12 C           2.1160    5.8683    1.4515 C.ar    0  UNK0       -0.0406
     13 C           1.0368    5.2335    2.0134 C.ar    0  UNK0       -0.0244
     14 C           0.9469    3.8419    1.9252 C.ar    0  UNK0        0.1326
     15 F          -0.1429    3.3058    2.5030 F       0  UNK0       -0.2048
     16 C           0.8416    0.8308    1.6837 C.ar    0  UNK0       -0.0138
     17 C           0.8184   -0.5972    1.5533 C.ar    0  UNK0        0.0423
     18 N          -0.3188   -1.2525    2.0101 N.pl3   0  UNK0       -0.3133
     19 C          -1.2728   -2.1564    1.5255 C.ar    0  UNK0        0.0465
     20 C          -1.5404   -3.3080    2.3255 C.ar    0  UNK0       -0.0217
     21 C          -2.4270   -4.2289    1.8973 C.ar    0  UNK0        0.0293
     22 N          -3.0684   -4.0710    0.7125 N.ar    0  UNK0       -0.2624
     23 C          -2.8251   -2.9959   -0.0424 C.ar    0  UNK0        0.0415
     24 C          -1.9223   -1.9952    0.3264 C.ar    0  UNK0        0.0758
     25 C          -1.7548   -0.8498   -0.5632 C.2     0  UNK0        0.2476
     26 O          -1.0726    0.1389   -0.3044 O.2     0  UNK0       -0.2701
     27 N          -2.3969   -0.8050   -1.8397 N.am    1  ALA1       -0.3065
     28 CA         -2.2394    0.3306   -2.7351 C.3     1  ALA1        0.0437
     29 CB         -3.5884    0.9691   -2.9908 C.3     1  ALA1       -0.0445
     30 C          -1.5994   -0.0668   -4.0427 C.3     1  ALA1        0.0623
     31 O          -1.5023    1.1000   -4.8122 O.3     1  ALA1       -0.3932
     32 H           1.1080   -3.4206    2.2899 H       0  UNK0        0.0538
     33 H           1.7541   -4.5664    1.0409 H       0  UNK0        0.0538
     34 H           2.6127   -3.9759   -0.9025 H       0  UNK0        0.0278
     35 H           2.4294   -2.2231   -1.4301 H       0  UNK0        0.0278
     36 H           3.8619   -2.7725   -0.4836 H       0  UNK0        0.0278
     37 H           3.7222   -0.7740   -0.1473 H       0  UNK0        0.0836
     38 H           3.7302    3.1851    0.2446 H       0  UNK0        0.0639
     39 H           2.2388    6.9616    1.4906 H       0  UNK0        0.0633
     40 H           0.2821    5.8289    2.5111 H       0  UNK0        0.0647
     41 H           0.0118    1.2301    2.2070 H       0  UNK0        0.0658
     42 H          -0.5351   -0.9765    3.0782 H       0  UNK0        0.1522
     43 H          -1.0023   -3.3779    3.2798 H       0  UNK0        0.0651
     44 H          -2.6419   -5.1231    2.5061 H       0  UNK0        0.0830
     45 H          -3.3538   -2.9117   -0.9613 H       0  UNK0        0.0838
     46 H          -2.9875   -1.5726   -2.1713 H       1  ALA1        0.1494
     47 HA         -1.5777    1.0636   -2.2413 H       1  ALA1        0.0518
     48 HB1        -4.3796    0.4220   -2.4066 H       1  ALA1        0.0248
     49 HB2        -3.8587    0.8032   -4.0645 H       1  ALA1        0.0248
     50 HB3        -3.5786    2.0553   -2.7523 H       1  ALA1        0.0248
     51 H1         -2.1623   -0.8114   -4.6056 H       1  ALA1        0.0575
     52 H2         -0.5436   -0.3811   -3.8482 H       1  ALA1        0.0575
     53 H          -1.4787    1.9149   -4.2180 H       1  ALA1        0.2095
@<TRIPOS>BOND
     1     1     2    2
     2     2     3    1
     3     2     4    1
     4     4     5   ar
     5     5     6   ar
     6     6     7   ar
     7     7     8    1
     8     8     9   ar
     9     9    10   ar
    10    10    11    1
    11    10    12   ar
    12    12    13   ar
    13    13    14   ar
    14    14    15    1
    15     7    16   ar
    16    16    17   ar
    17    17    18    1
    18    18    19    1
    19    19    20   ar
    20    20    21   ar
    21    21    22   ar
    22    22    23   ar
    23    23    24   ar
    24    24    25    1
    25    25    26    2
    26    25    27   am
    27    27    28    1
    28    28    29    1
    29    28    30    1
    30    30    31    1
    31    17     4   ar
    32    24    19   ar
    33    14     8   ar
    34     1    32    1
    35     1    33    1
    36     3    34    1
    37     3    35    1
    38     3    36    1
    39     5    37    1
    40     9    38    1
    41    12    39    1
    42    13    40    1
    43    16    41    1
    44    18    42    1
    45    20    43    1
    46    21    44    1
    47    23    45    1
    48    27    46    1
    49    28    47    1
    50    29    48    1
    51    29    49    1
    52    29    50    1
    53    30    51    1
    54    30    52    1
    55    31    53    1
