
     RDKit          3D

 31 32  0  0  0  0  0  0  0  0999 V2000
   -4.1433    0.0646   -1.2801 C   0  0  0  0  0  0  0  0  0  0  0  0
   -3.3741   -0.0904   -0.0180 C   0  0  0  0  0  0  0  0  0  0  0  0
   -3.7473    0.4065    1.1954 N   0  0  0  0  0  0  0  0  0  0  0  0
   -2.8699    0.1029    2.0864 O   0  0  0  0  0  0  0  0  0  0  0  0
   -1.8666   -0.5933    1.5935 C   0  0  0  0  0  0  0  0  0  0  0  0
   -0.7312   -1.0903    2.2951 N   0  0  0  0  0  0  0  0  0  0  0  0
    0.7557   -0.2852    2.5295 S   0  0  0  0  0  0  0  0  0  0  0  0
    1.6136   -1.1772    3.3827 O   0  0  0  0  0  0  0  0  0  0  0  0
    0.4381    0.9874    3.2994 O   0  0  0  0  0  0  0  0  0  0  0  0
    1.5964    0.0872    1.0747 C   0  0  0  0  0  0  0  0  0  0  0  0
    2.4831   -0.8452    0.5848 C   0  0  0  0  0  0  0  0  0  0  0  0
    3.2046   -0.6205   -0.5888 C   0  0  0  0  0  0  0  0  0  0  0  0
    3.0117    0.5658   -1.2571 C   0  0  0  0  0  0  0  0  0  0  0  0
    3.7567    0.7749   -2.4507 N   0  0  0  0  0  0  0  0  0  0  0  0
    2.1295    1.5177   -0.7887 C   0  0  0  0  0  0  0  0  0  0  0  0
    1.4202    1.2673    0.3881 C   0  0  0  0  0  0  0  0  0  0  0  0
   -2.1783   -0.7213    0.2558 C   0  0  0  0  0  0  0  0  0  0  0  0
   -1.3737   -1.4249   -0.7687 C   0  0  0  0  0  0  0  0  0  0  0  0
   -3.8626    0.9731   -1.8527 H   0  0  0  0  0  0  0  0  0  0  0  0
   -3.9365   -0.8019   -1.9516 H   0  0  0  0  0  0  0  0  0  0  0  0
   -5.2299    0.1471   -1.0508 H   0  0  0  0  0  0  0  0  0  0  0  0
   -0.9650   -2.0550    2.6522 H   0  0  0  0  0  0  0  0  0  0  0  0
    2.6389   -1.7768    1.1036 H   0  0  0  0  0  0  0  0  0  0  0  0
    3.8902   -1.4095   -0.9141 H   0  0  0  0  0  0  0  0  0  0  0  0
    3.5509    1.4260   -3.2401 H   0  0  0  0  0  0  0  0  0  0  0  0
    4.6376    0.2487   -2.6410 H   0  0  0  0  0  0  0  0  0  0  0  0
    1.9940    2.4576   -1.3421 H   0  0  0  0  0  0  0  0  0  0  0  0
    0.7230    2.0023    0.7721 H   0  0  0  0  0  0  0  0  0  0  0  0
   -0.3310   -1.5192   -0.4238 H   0  0  0  0  0  0  0  0  0  0  0  0
   -1.8546   -2.4055   -0.9610 H   0  0  0  0  0  0  0  0  0  0  0  0
   -1.3801   -0.7752   -1.6838 H   0  0  0  0  0  0  0  0  0  0  0  0
  1  2  1  0
  2  3  2  0
  3  4  1  0
  4  5  1  0
  5  6  1  0
  6  7  1  0
  7  8  2  0
  7  9  2  0
  7 10  1  0
 10 11  2  0
 11 12  1  0
 12 13  2  0
 13 14  1  0
 13 15  1  0
 15 16  2  0
  5 17  2  0
 17 18  1  0
 17  2  1  0
 16 10  1  0
  1 19  1  0
  1 20  1  0
  1 21  1  0
  6 22  1  0
 11 23  1  0
 12 24  1  0
 14 25  1  0
 14 26  1  0
 15 27  1  0
 16 28  1  0
 18 29  1  0
 18 30  1  0
 18 31  1  0
M  END
$$$$
