@<TRIPOS>MOLECULE
*****
 31 32 0 0 0
SMALL
GASTEIGER

@<TRIPOS>ATOM
      1 C          -4.1433    0.0646   -1.2801 C.3     1  UNL1       -0.0188
      2 C          -3.3741   -0.0904   -0.0180 C.ar    1  UNL1        0.0854
      3 N          -3.7473    0.4065    1.1954 N.ar    1  UNL1       -0.0810
      4 O          -2.8699    0.1029    2.0864 O.2     1  UNL1       -0.3377
      5 C          -1.8666   -0.5933    1.5935 C.ar    1  UNL1        0.2399
      6 N          -0.7312   -1.0903    2.2951 N.pl3   1  UNL1       -0.1831
      7 S           0.7557   -0.2852    2.5295 S.O2    1  UNL1        0.0746
      8 O           1.6136   -1.1772    3.3827 O.2     1  UNL1       -0.1499
      9 O           0.4381    0.9874    3.2994 O.2     1  UNL1       -0.1499
     10 C           1.5964    0.0872    1.0747 C.ar    1  UNL1        0.1087
     11 C           2.4831   -0.8452    0.5848 C.ar    1  UNL1       -0.0333
     12 C           3.2046   -0.6205   -0.5888 C.ar    1  UNL1       -0.0392
     13 C           3.0117    0.5658   -1.2571 C.ar    1  UNL1        0.0247
     14 N           3.7567    0.7749   -2.4507 N.pl3   1  UNL1       -0.3580
     15 C           2.1295    1.5177   -0.7887 C.ar    1  UNL1       -0.0392
     16 C           1.4202    1.2673    0.3881 C.ar    1  UNL1       -0.0333
     17 C          -2.1783   -0.7213    0.2558 C.ar    1  UNL1        0.0350
     18 C          -1.3737   -1.4249   -0.7687 C.3     1  UNL1       -0.0330
     19 H          -3.8626    0.9731   -1.8527 H       1  UNL1        0.0294
     20 H          -3.9365   -0.8019   -1.9516 H       1  UNL1        0.0294
     21 H          -5.2299    0.1471   -1.0508 H       1  UNL1        0.0294
     22 H          -0.9650   -2.0550    2.6522 H       1  UNL1        0.1768
     23 H           2.6389   -1.7768    1.1036 H       1  UNL1        0.0638
     24 H           3.8902   -1.4095   -0.9141 H       1  UNL1        0.0636
     25 H           3.5509    1.4260   -3.2401 H       1  UNL1        0.1423
     26 H           4.6376    0.2487   -2.6410 H       1  UNL1        0.1423
     27 H           1.9940    2.4576   -1.3421 H       1  UNL1        0.0636
     28 H           0.7230    2.0023    0.7721 H       1  UNL1        0.0638
     29 H          -0.3310   -1.5192   -0.4238 H       1  UNL1        0.0280
     30 H          -1.8546   -2.4055   -0.9610 H       1  UNL1        0.0280
     31 H          -1.3801   -0.7752   -1.6838 H       1  UNL1        0.0280
@<TRIPOS>BOND
     1     1     2    1
     2     2     3   ar
     3     3     4   ar
     4     4     5   ar
     5     5     6    1
     6     6     7    1
     7     7     8    2
     8     7     9    2
     9     7    10    1
    10    10    11   ar
    11    11    12   ar
    12    12    13   ar
    13    13    14    1
    14    13    15   ar
    15    15    16   ar
    16     5    17   ar
    17    17    18    1
    18    17     2   ar
    19    16    10   ar
    20     1    19    1
    21     1    20    1
    22     1    21    1
    23     6    22    1
    24    11    23    1
    25    12    24    1
    26    14    25    1
    27    14    26    1
    28    15    27    1
    29    16    28    1
    30    18    29    1
    31    18    30    1
    32    18    31    1
