
     RDKit          3D

 54 56  0  0  0  0  0  0  0  0999 V2000
    9.6264    0.4491   -1.7171 O   0  0  0  0  0  0  0  0  0  0  0  0
    8.2581    0.2362   -1.7419 C   0  0  0  0  0  0  0  0  0  0  0  0
    7.6996    0.8515   -2.8510 O   0  0  0  0  0  0  0  0  0  0  0  0
    7.5913    0.6548   -0.4334 C   0  0  0  0  0  0  0  0  0  0  0  0
    6.1172    0.3983   -0.5492 C   0  0  0  0  0  0  0  0  0  0  0  0
    5.6881   -0.8391   -0.1746 C   0  0  0  0  0  0  0  0  0  0  0  0
    4.3550   -1.0761   -0.2779 C   0  0  0  0  0  0  0  0  0  0  0  0
    3.5146   -2.7217    0.1856 Br  0  0  0  0  0  0  0  0  0  0  0  0
    3.4698   -0.1253   -0.7353 C   0  0  0  0  0  0  0  0  0  0  0  0
    2.1063   -0.1516   -0.9194 O   0  0  0  0  0  0  0  0  0  0  0  0
    1.1424    0.1480    0.0011 C   0  0  0  0  0  0  0  0  0  0  0  0
   -0.1970    0.1391   -0.4065 C   0  0  0  0  0  0  0  0  0  0  0  0
   -1.2336    0.4326    0.4789 C   0  0  0  0  0  0  0  0  0  0  0  0
   -2.5912    0.3365   -0.1019 C   0  0  0  0  0  0  0  0  0  0  0  0
   -2.7079    1.0725   -1.2502 O   0  0  0  0  0  0  0  0  0  0  0  0
   -3.5815    0.4959    0.8851 N   0  0  0  0  0  0  0  0  0  0  0  0
   -3.9181   -0.7066    1.6083 C   0  0  0  0  0  0  0  0  0  0  0  0
   -4.6694   -1.7000    0.7337 C   0  0  0  0  0  0  0  0  0  0  0  0
   -5.9430   -1.1226    0.2318 C   0  0  0  0  0  0  0  0  0  0  0  0
   -7.1077   -1.2619    0.9432 C   0  0  0  0  0  0  0  0  0  0  0  0
   -8.3759   -0.7795    0.6085 C   0  0  0  0  0  0  0  0  0  0  0  0
   -8.3556   -0.0921   -0.6013 C   0  0  0  0  0  0  0  0  0  0  0  0
   -7.2558    0.1118   -1.4001 C   0  0  0  0  0  0  0  0  0  0  0  0
   -6.0776   -0.4212   -0.9417 C   0  0  0  0  0  0  0  0  0  0  0  0
   -0.8416    0.7265    1.7586 C   0  0  0  0  0  0  0  0  0  0  0  0
   -1.8146    1.0330    2.6928 O   0  0  0  0  0  0  0  0  0  0  0  0
    0.4394    0.7499    2.2096 C   0  0  0  0  0  0  0  0  0  0  0  0
    1.4397    0.4547    1.3088 C   0  0  0  0  0  0  0  0  0  0  0  0
    3.9834    1.1229   -1.1013 C   0  0  0  0  0  0  0  0  0  0  0  0
    2.9111    2.5690   -1.7542 Br  0  0  0  0  0  0  0  0  0  0  0  0
    5.3503    1.4511   -1.0261 C   0  0  0  0  0  0  0  0  0  0  0  0
   10.0785   -0.3637   -1.3779 H   0  0  0  0  0  0  0  0  0  0  0  0
    8.0877   -0.8712   -1.9063 H   0  0  0  0  0  0  0  0  0  0  0  0
    8.2933    1.5239   -3.2795 H   0  0  0  0  0  0  0  0  0  0  0  0
    8.0517    0.0376    0.3636 H   0  0  0  0  0  0  0  0  0  0  0  0
    7.7656    1.7340   -0.3048 H   0  0  0  0  0  0  0  0  0  0  0  0
    6.3339   -1.6168    0.1886 H   0  0  0  0  0  0  0  0  0  0  0  0
   -0.3945   -0.1049   -1.4428 H   0  0  0  0  0  0  0  0  0  0  0  0
   -2.6392   -0.7789   -0.4167 H   0  0  0  0  0  0  0  0  0  0  0  0
   -2.7253    0.4991   -2.0617 H   0  0  0  0  0  0  0  0  0  0  0  0
   -4.4103    1.0708    0.6336 H   0  0  0  0  0  0  0  0  0  0  0  0
   -4.5575   -0.4305    2.4632 H   0  0  0  0  0  0  0  0  0  0  0  0
   -2.9948   -1.1807    1.9590 H   0  0  0  0  0  0  0  0  0  0  0  0
   -4.0749   -2.1378   -0.0623 H   0  0  0  0  0  0  0  0  0  0  0  0
   -4.9661   -2.5286    1.4436 H   0  0  0  0  0  0  0  0  0  0  0  0
   -7.0446   -1.8140    1.8845 H   0  0  0  0  0  0  0  0  0  0  0  0
   -9.2499   -0.9253    1.2136 H   0  0  0  0  0  0  0  0  0  0  0  0
   -9.2935    0.3375   -0.9725 H   0  0  0  0  0  0  0  0  0  0  0  0
   -7.3306    0.6532   -2.3177 H   0  0  0  0  0  0  0  0  0  0  0  0
   -5.1888   -0.2753   -1.5563 H   0  0  0  0  0  0  0  0  0  0  0  0
   -1.7057    0.9040    3.6697 H   0  0  0  0  0  0  0  0  0  0  0  0
    0.6886    0.9874    3.2315 H   0  0  0  0  0  0  0  0  0  0  0  0
    2.4920    0.4427    1.5473 H   0  0  0  0  0  0  0  0  0  0  0  0
    5.7619    2.4019   -1.3019 H   0  0  0  0  0  0  0  0  0  0  0  0
  1  2  1  0
  2  3  1  0
  2  4  1  0
  4  5  1  0
  5  6  2  0
  6  7  1  0
  7  8  1  0
  7  9  2  0
  9 10  1  0
 10 11  1  0
 11 12  2  0
 12 13  1  0
 13 14  1  0
 14 15  1  0
 14 16  1  0
 16 17  1  0
 17 18  1  0
 18 19  1  0
 19 20  2  0
 20 21  1  0
 21 22  2  0
 22 23  1  0
 23 24  2  0
 13 25  2  0
 25 26  1  0
 25 27  1  0
 27 28  2  0
  9 29  1  0
 29 30  1  0
 29 31  2  0
 31  5  1  0
 28 11  1  0
 24 19  1  0
  1 32  1  0
  2 33  1  0
  3 34  1  0
  4 35  1  0
  4 36  1  0
  6 37  1  0
 12 38  1  0
 14 39  1  0
 15 40  1  0
 16 41  1  0
 17 42  1  0
 17 43  1  0
 18 44  1  0
 18 45  1  0
 20 46  1  0
 21 47  1  0
 22 48  1  0
 23 49  1  0
 24 50  1  0
 26 51  1  0
 27 52  1  0
 28 53  1  0
 31 54  1  0
M  END
$$$$
