@<TRIPOS>MOLECULE
*****
 54 56 0 0 0
SMALL
GASTEIGER

@<TRIPOS>ATOM
      1 O           9.6264    0.4491   -1.7171 O.3     1  UNL1       -0.3669
      2 C           8.2581    0.2362   -1.7419 C.3     1  UNL1        0.1571
      3 O           7.6996    0.8515   -2.8510 O.3     1  UNL1       -0.3669
      4 C           7.5913    0.6548   -0.4334 C.3     1  UNL1        0.0233
      5 C           6.1172    0.3983   -0.5492 C.ar    1  UNL1       -0.0403
      6 C           5.6881   -0.8391   -0.1746 C.ar    1  UNL1       -0.0408
      7 C           4.3550   -1.0761   -0.2779 C.ar    1  UNL1        0.0614
      8 BR          3.5146   -2.7217    0.1856 Br      1  UNL1       -0.0465
      9 C           3.4698   -0.1253   -0.7353 C.ar    1  UNL1        0.1562
     10 O           2.1063   -0.1516   -0.9194 O.3     1  UNL1       -0.4538
     11 C           1.1424    0.1480    0.0011 C.ar    1  UNL1        0.1291
     12 C          -0.1970    0.1391   -0.4065 C.ar    1  UNL1       -0.0089
     13 C          -1.2336    0.4326    0.4789 C.ar    1  UNL1        0.0403
     14 C          -2.5912    0.3365   -0.1019 C.3     1  UNL1        0.1358
     15 O          -2.7079    1.0725   -1.2502 O.3     1  UNL1       -0.3731
     16 N          -3.5815    0.4959    0.8851 N.3     1  UNL1       -0.2876
     17 C          -3.9181   -0.7066    1.6083 C.3     1  UNL1        0.0024
     18 C          -4.6694   -1.7000    0.7337 C.3     1  UNL1       -0.0150
     19 C          -5.9430   -1.1226    0.2318 C.ar    1  UNL1       -0.0462
     20 C          -7.1077   -1.2619    0.9432 C.ar    1  UNL1       -0.0585
     21 C          -8.3759   -0.7795    0.6085 C.ar    1  UNL1       -0.0615
     22 C          -8.3556   -0.0921   -0.6013 C.ar    1  UNL1       -0.0617
     23 C          -7.2558    0.1118   -1.4001 C.ar    1  UNL1       -0.0615
     24 C          -6.0776   -0.4212   -0.9417 C.ar    1  UNL1       -0.0585
     25 C          -0.8416    0.7265    1.7586 C.ar    1  UNL1        0.1240
     26 O          -1.8146    1.0330    2.6928 O.3     1  UNL1       -0.5064
     27 C           0.4394    0.7499    2.2096 C.ar    1  UNL1       -0.0163
     28 C           1.4397    0.4547    1.3088 C.ar    1  UNL1       -0.0159
     29 C           3.9834    1.1229   -1.1013 C.ar    1  UNL1        0.0614
     30 BR          2.9111    2.5690   -1.7542 Br      1  UNL1       -0.0465
     31 C           5.3503    1.4511   -1.0261 C.ar    1  UNL1       -0.0408
     32 H          10.0785   -0.3637   -1.3779 H       1  UNL1        0.2125
     33 H           8.0877   -0.8712   -1.9063 H       1  UNL1        0.0908
     34 H           8.2933    1.5239   -3.2795 H       1  UNL1        0.2125
     35 H           8.0517    0.0376    0.3636 H       1  UNL1        0.0362
     36 H           7.7656    1.7340   -0.3048 H       1  UNL1        0.0362
     37 H           6.3339   -1.6168    0.1886 H       1  UNL1        0.0632
     38 H          -0.3945   -0.1049   -1.4428 H       1  UNL1        0.0659
     39 H          -2.6392   -0.7789   -0.4167 H       1  UNL1        0.0819
     40 H          -2.7253    0.4991   -2.0617 H       1  UNL1        0.2118
     41 H          -4.4103    1.0708    0.6336 H       1  UNL1        0.1246
     42 H          -4.5575   -0.4305    2.4632 H       1  UNL1        0.0428
     43 H          -2.9948   -1.1807    1.9590 H       1  UNL1        0.0428
     44 H          -4.0749   -2.1378   -0.0623 H       1  UNL1        0.0325
     45 H          -4.9661   -2.5286    1.4436 H       1  UNL1        0.0325
     46 H          -7.0446   -1.8140    1.8845 H       1  UNL1        0.0620
     47 H          -9.2499   -0.9253    1.2136 H       1  UNL1        0.0618
     48 H          -9.2935    0.3375   -0.9725 H       1  UNL1        0.0618
     49 H          -7.3306    0.6532   -2.3177 H       1  UNL1        0.0618
     50 H          -5.1888   -0.2753   -1.5563 H       1  UNL1        0.0620
     51 H          -1.7057    0.9040    3.6697 H       1  UNL1        0.2921
     52 H           0.6886    0.9874    3.2315 H       1  UNL1        0.0655
     53 H           2.4920    0.4427    1.5473 H       1  UNL1        0.0655
     54 H           5.7619    2.4019   -1.3019 H       1  UNL1        0.0632
@<TRIPOS>BOND
     1     1     2    1
     2     2     3    1
     3     2     4    1
     4     4     5    1
     5     5     6   ar
     6     6     7   ar
     7     7     8    1
     8     7     9   ar
     9     9    10    1
    10    10    11    1
    11    11    12   ar
    12    12    13   ar
    13    13    14    1
    14    14    15    1
    15    14    16    1
    16    16    17    1
    17    17    18    1
    18    18    19    1
    19    19    20   ar
    20    20    21   ar
    21    21    22   ar
    22    22    23   ar
    23    23    24   ar
    24    13    25   ar
    25    25    26    1
    26    25    27   ar
    27    27    28   ar
    28     9    29   ar
    29    29    30    1
    30    29    31   ar
    31    31     5   ar
    32    28    11   ar
    33    24    19   ar
    34     1    32    1
    35     2    33    1
    36     3    34    1
    37     4    35    1
    38     4    36    1
    39     6    37    1
    40    12    38    1
    41    14    39    1
    42    15    40    1
    43    16    41    1
    44    17    42    1
    45    17    43    1
    46    18    44    1
    47    18    45    1
    48    20    46    1
    49    21    47    1
    50    22    48    1
    51    23    49    1
    52    24    50    1
    53    26    51    1
    54    27    52    1
    55    28    53    1
    56    31    54    1
