@<TRIPOS>MOLECULE
*****
 56 59 0 0 0
SMALL
GASTEIGER

@<TRIPOS>ATOM
      1 C           8.8650   -1.5796   -0.5965 C.3     1  UNL1       -0.0639
      2 C           7.6140   -0.7964   -0.3623 C.3     1  UNL1       -0.0402
      3 C           6.6633   -0.7759   -1.5371 C.3     1  UNL1        0.0116
      4 N           5.4976    0.0135   -1.2181 N.am    1  UNL1       -0.3113
      5 C           4.5817   -0.2630   -0.1719 C.2     1  UNL1        0.2459
      6 O           4.8093   -1.3045    0.5344 O.2     1  UNL1       -0.2701
      7 C           3.4213    0.5825    0.1167 C.ar    1  UNL1        0.0598
      8 C           3.3714    1.9215    0.3630 C.ar    1  UNL1        0.0423
      9 N           2.0890    2.3153    0.5955 N.ar    1  UNL1       -0.2342
     10 N           1.5901    3.5132    0.8790 N.ar    1  UNL1       -0.1548
     11 C           0.2724    3.6314    1.0739 C.ar    1  UNL1        0.1388
     12 N          -0.5696    2.6082    0.9989 N.ar    1  UNL1       -0.2167
     13 C          -0.0637    1.3674    0.7071 C.ar    1  UNL1        0.1506
     14 N          -0.9351    0.2558    0.6543 N.pl3   1  UNL1       -0.2975
     15 C          -2.3051    0.5247    1.0337 C.ar    1  UNL1        0.0361
     16 C          -3.3652    0.3446    0.1687 C.ar    1  UNL1       -0.0281
     17 C          -4.6510    0.6426    0.5494 C.ar    1  UNL1        0.0385
     18 C          -5.8049    0.4271   -0.3064 C.2     1  UNL1        0.2443
     19 O          -6.8498    1.0722   -0.0335 O.2     1  UNL1       -0.2702
     20 N          -5.8511   -0.4451   -1.4097 N.am    1  UNL1       -0.3085
     21 C          -7.0367   -0.6335   -2.2509 C.3     1  UNL1        0.0235
     22 C          -7.0107   -1.5062   -3.4110 C.3     1  UNL1       -0.0328
     23 C          -7.7429   -1.9546   -2.1337 C.3     1  UNL1       -0.0328
     24 C          -4.8241    1.1345    1.8515 C.ar    1  UNL1       -0.0493
     25 C          -3.7654    1.3122    2.7127 C.ar    1  UNL1       -0.0564
     26 C          -2.4703    1.0047    2.3117 C.ar    1  UNL1       -0.0292
     27 C          -1.3918    1.1940    3.3067 C.3     1  UNL1       -0.0380
     28 C           1.2963    1.2192    0.5000 C.ar    1  UNL1        0.1090
     29 C           2.1203    0.1230    0.1985 C.ar    1  UNL1       -0.0081
     30 C           1.6954   -1.2575   -0.0023 C.3     1  UNL1       -0.0368
     31 H           8.8201   -2.1802   -1.5154 H       1  UNL1        0.0230
     32 H           9.7118   -0.8268   -0.6422 H       1  UNL1        0.0230
     33 H           9.1353   -2.2131    0.2933 H       1  UNL1        0.0230
     34 H           7.0899   -1.2376    0.5011 H       1  UNL1        0.0278
     35 H           7.8374    0.2589   -0.0696 H       1  UNL1        0.0278
     36 H           7.2169   -0.2128   -2.3465 H       1  UNL1        0.0462
     37 H           6.4402   -1.7874   -1.9141 H       1  UNL1        0.0462
     38 H           5.2618    0.8867   -1.7842 H       1  UNL1        0.1490
     39 H           4.2476    2.5802    0.3677 H       1  UNL1        0.0838
     40 H          -0.0832    4.6371    1.3025 H       1  UNL1        0.1066
     41 H          -0.7266   -0.6782    0.3877 H       1  UNL1        0.1536
     42 H          -3.1746   -0.0431   -0.8287 H       1  UNL1        0.0644
     43 H          -5.0050   -0.9947   -1.6537 H       1  UNL1        0.1493
     44 H          -7.7426    0.2184   -2.1927 H       1  UNL1        0.0498
     45 H          -6.1290   -2.1169   -3.6957 H       1  UNL1        0.0284
     46 H          -7.6639   -1.2857   -4.2796 H       1  UNL1        0.0284
     47 H          -7.3024   -2.7989   -1.5971 H       1  UNL1        0.0284
     48 H          -8.8555   -1.9844   -2.1869 H       1  UNL1        0.0284
     49 H          -5.8375    1.3627    2.1370 H       1  UNL1        0.0625
     50 H          -3.9340    1.6919    3.7142 H       1  UNL1        0.0621
     51 H          -1.6969    0.6766    4.2736 H       1  UNL1        0.0278
     52 H          -0.4388    0.7306    3.0467 H       1  UNL1        0.0278
     53 H          -1.3104    2.2694    3.6361 H       1  UNL1        0.0278
     54 H           1.2618   -1.6554    0.9325 H       1  UNL1        0.0278
     55 H           1.0072   -1.4161   -0.8577 H       1  UNL1        0.0278
     56 H           2.6206   -1.8942   -0.1507 H       1  UNL1        0.0278
@<TRIPOS>BOND
     1     1     2    1
     2     2     3    1
     3     3     4    1
     4     4     5   am
     5     5     6    2
     6     5     7    1
     7     7     8   ar
     8     8     9   ar
     9     9    10   ar
    10    10    11   ar
    11    11    12   ar
    12    12    13   ar
    13    13    14    1
    14    14    15    1
    15    15    16   ar
    16    16    17   ar
    17    17    18    1
    18    18    19    2
    19    18    20   am
    20    20    21    1
    21    21    22    1
    22    22    23    1
    23    17    24   ar
    24    24    25   ar
    25    25    26   ar
    26    26    27    1
    27    13    28   ar
    28    28    29   ar
    29    29    30    1
    30    29     7   ar
    31    28     9   ar
    32    26    15   ar
    33    23    21    1
    34     1    31    1
    35     1    32    1
    36     1    33    1
    37     2    34    1
    38     2    35    1
    39     3    36    1
    40     3    37    1
    41     4    38    1
    42     8    39    1
    43    11    40    1
    44    14    41    1
    45    16    42    1
    46    20    43    1
    47    21    44    1
    48    22    45    1
    49    22    46    1
    50    23    47    1
    51    23    48    1
    52    24    49    1
    53    25    50    1
    54    27    51    1
    55    27    52    1
    56    27    53    1
    57    30    54    1
    58    30    55    1
    59    30    56    1
