
     RDKit          3D

 56 59  0  0  0  0  0  0  0  0999 V2000
    8.8650   -1.5796   -0.5965 C   0  0  0  0  0  0  0  0  0  0  0  0
    7.6140   -0.7964   -0.3623 C   0  0  0  0  0  0  0  0  0  0  0  0
    6.6633   -0.7759   -1.5371 C   0  0  0  0  0  0  0  0  0  0  0  0
    5.4976    0.0135   -1.2181 N   0  0  0  0  0  0  0  0  0  0  0  0
    4.5817   -0.2630   -0.1719 C   0  0  0  0  0  0  0  0  0  0  0  0
    4.8093   -1.3045    0.5344 O   0  0  0  0  0  0  0  0  0  0  0  0
    3.4213    0.5825    0.1167 C   0  0  0  0  0  0  0  0  0  0  0  0
    3.3714    1.9215    0.3630 C   0  0  0  0  0  0  0  0  0  0  0  0
    2.0890    2.3153    0.5955 N   0  0  0  0  0  0  0  0  0  0  0  0
    1.5901    3.5132    0.8790 N   0  0  0  0  0  0  0  0  0  0  0  0
    0.2724    3.6314    1.0739 C   0  0  0  0  0  0  0  0  0  0  0  0
   -0.5696    2.6082    0.9989 N   0  0  0  0  0  0  0  0  0  0  0  0
   -0.0637    1.3674    0.7071 C   0  0  0  0  0  0  0  0  0  0  0  0
   -0.9351    0.2558    0.6543 N   0  0  0  0  0  0  0  0  0  0  0  0
   -2.3051    0.5247    1.0337 C   0  0  0  0  0  0  0  0  0  0  0  0
   -3.3652    0.3446    0.1687 C   0  0  0  0  0  0  0  0  0  0  0  0
   -4.6510    0.6426    0.5494 C   0  0  0  0  0  0  0  0  0  0  0  0
   -5.8049    0.4271   -0.3064 C   0  0  0  0  0  0  0  0  0  0  0  0
   -6.8498    1.0722   -0.0335 O   0  0  0  0  0  0  0  0  0  0  0  0
   -5.8511   -0.4451   -1.4097 N   0  0  0  0  0  0  0  0  0  0  0  0
   -7.0367   -0.6335   -2.2509 C   0  0  0  0  0  0  0  0  0  0  0  0
   -7.0107   -1.5062   -3.4110 C   0  0  0  0  0  0  0  0  0  0  0  0
   -7.7429   -1.9546   -2.1337 C   0  0  0  0  0  0  0  0  0  0  0  0
   -4.8241    1.1345    1.8515 C   0  0  0  0  0  0  0  0  0  0  0  0
   -3.7654    1.3122    2.7127 C   0  0  0  0  0  0  0  0  0  0  0  0
   -2.4703    1.0047    2.3117 C   0  0  0  0  0  0  0  0  0  0  0  0
   -1.3918    1.1940    3.3067 C   0  0  0  0  0  0  0  0  0  0  0  0
    1.2963    1.2192    0.5000 C   0  0  0  0  0  0  0  0  0  0  0  0
    2.1203    0.1230    0.1985 C   0  0  0  0  0  0  0  0  0  0  0  0
    1.6954   -1.2575   -0.0023 C   0  0  0  0  0  0  0  0  0  0  0  0
    8.8201   -2.1802   -1.5154 H   0  0  0  0  0  0  0  0  0  0  0  0
    9.7118   -0.8268   -0.6422 H   0  0  0  0  0  0  0  0  0  0  0  0
    9.1353   -2.2131    0.2933 H   0  0  0  0  0  0  0  0  0  0  0  0
    7.0899   -1.2376    0.5011 H   0  0  0  0  0  0  0  0  0  0  0  0
    7.8374    0.2589   -0.0696 H   0  0  0  0  0  0  0  0  0  0  0  0
    7.2169   -0.2128   -2.3465 H   0  0  0  0  0  0  0  0  0  0  0  0
    6.4402   -1.7874   -1.9141 H   0  0  0  0  0  0  0  0  0  0  0  0
    5.2618    0.8867   -1.7842 H   0  0  0  0  0  0  0  0  0  0  0  0
    4.2476    2.5802    0.3677 H   0  0  0  0  0  0  0  0  0  0  0  0
   -0.0832    4.6371    1.3025 H   0  0  0  0  0  0  0  0  0  0  0  0
   -0.7266   -0.6782    0.3877 H   0  0  0  0  0  0  0  0  0  0  0  0
   -3.1746   -0.0431   -0.8287 H   0  0  0  0  0  0  0  0  0  0  0  0
   -5.0050   -0.9947   -1.6537 H   0  0  0  0  0  0  0  0  0  0  0  0
   -7.7426    0.2184   -2.1927 H   0  0  0  0  0  0  0  0  0  0  0  0
   -6.1290   -2.1169   -3.6957 H   0  0  0  0  0  0  0  0  0  0  0  0
   -7.6639   -1.2857   -4.2796 H   0  0  0  0  0  0  0  0  0  0  0  0
   -7.3024   -2.7989   -1.5971 H   0  0  0  0  0  0  0  0  0  0  0  0
   -8.8555   -1.9844   -2.1869 H   0  0  0  0  0  0  0  0  0  0  0  0
   -5.8375    1.3627    2.1370 H   0  0  0  0  0  0  0  0  0  0  0  0
   -3.9340    1.6919    3.7142 H   0  0  0  0  0  0  0  0  0  0  0  0
   -1.6969    0.6766    4.2736 H   0  0  0  0  0  0  0  0  0  0  0  0
   -0.4388    0.7306    3.0467 H   0  0  0  0  0  0  0  0  0  0  0  0
   -1.3104    2.2694    3.6361 H   0  0  0  0  0  0  0  0  0  0  0  0
    1.2618   -1.6554    0.9325 H   0  0  0  0  0  0  0  0  0  0  0  0
    1.0072   -1.4161   -0.8577 H   0  0  0  0  0  0  0  0  0  0  0  0
    2.6206   -1.8942   -0.1507 H   0  0  0  0  0  0  0  0  0  0  0  0
  1  2  1  0
  2  3  1  0
  3  4  1  0
  4  5  1  0
  5  6  2  0
  5  7  1  0
  7  8  2  0
  8  9  1  0
  9 10  1  0
 10 11  2  0
 11 12  1  0
 12 13  2  0
 13 14  1  0
 14 15  1  0
 15 16  2  0
 16 17  1  0
 17 18  1  0
 18 19  2  0
 18 20  1  0
 20 21  1  0
 21 22  1  0
 22 23  1  0
 17 24  2  0
 24 25  1  0
 25 26  2  0
 26 27  1  0
 13 28  1  0
 28 29  2  0
 29 30  1  0
 29  7  1  0
 28  9  1  0
 26 15  1  0
 23 21  1  0
  1 31  1  0
  1 32  1  0
  1 33  1  0
  2 34  1  0
  2 35  1  0
  3 36  1  0
  3 37  1  0
  4 38  1  0
  8 39  1  0
 11 40  1  0
 14 41  1  0
 16 42  1  0
 20 43  1  0
 21 44  1  0
 22 45  1  0
 22 46  1  0
 23 47  1  0
 23 48  1  0
 24 49  1  0
 25 50  1  0
 27 51  1  0
 27 52  1  0
 27 53  1  0
 30 54  1  0
 30 55  1  0
 30 56  1  0
M  END
$$$$
