@<TRIPOS>MOLECULE
*****
 50 52 0 0 0
SMALL
GASTEIGER

@<TRIPOS>ATOM
      1 C           8.6725   -0.8196   -0.6760 C.1     1  UNL1       -0.1158
      2 C           8.5505   -0.3743    0.4351 C.1     1  UNL1       -0.0648
      3 C           8.4168    0.1860    1.7769 C.3     1  UNL1        0.1497
      4 O           7.3599    1.1210    1.7262 O.3     1  UNL1       -0.4780
      5 C           6.0544    0.8316    1.4040 C.ar    1  UNL1        0.1399
      6 C           5.5737   -0.4210    1.0895 C.ar    1  UNL1       -0.0162
      7 C           4.2360   -0.5930    0.7808 C.ar    1  UNL1       -0.0277
      8 C           3.3695    0.4854    0.7841 C.ar    1  UNL1        0.1259
      9 C           1.9407    0.3142    0.4547 C.2     1  UNL1        0.2666
     10 O           1.5054   -0.8117    0.2112 O.2     1  UNL1       -0.2682
     11 N           1.1041    1.4322    0.4238 N.am    1  UNL1       -0.2802
     12 C          -0.2749    1.4853    0.1454 C.ar    1  UNL1        0.0342
     13 C          -0.8771    2.7387    0.0241 C.ar    1  UNL1       -0.0377
     14 C          -2.2243    2.8457   -0.2305 C.ar    1  UNL1       -0.0243
     15 C          -3.0304    1.7453   -0.3748 C.ar    1  UNL1        0.1290
     16 F          -4.3321    1.8748   -0.6211 F       1  UNL1       -0.2051
     17 C          -2.4675    0.4859   -0.2602 C.ar    1  UNL1        0.0168
     18 C          -3.2788   -0.7716   -0.4109 C.3     1  UNL1        0.0951
     19 C          -2.3081   -1.9370   -0.1237 C.3     1  UNL1       -0.0352
     20 C          -3.7564   -0.8038   -1.8154 C.3     1  UNL1        0.0223
     21 C          -5.1946   -1.1464   -1.9665 C.3     1  UNL1        0.1997
     22 C          -5.4981   -2.6011   -2.1423 C.3     1  UNL1        0.4266
     23 F          -5.1370   -3.4281   -1.1444 F       1  UNL1       -0.1669
     24 F          -6.8285   -2.7199   -2.5015 F       1  UNL1       -0.1669
     25 F          -4.7814   -3.0078   -3.2796 F       1  UNL1       -0.1669
     26 O          -5.9655   -0.5314   -0.9781 O.2     1  UNL1       -0.4534
     27 C          -5.5923   -0.7166    0.3427 C.2     1  UNL1        0.2765
     28 N          -6.5616   -0.7813    1.3824 N.pl3   1  UNL1       -0.3134
     29 N          -4.3329   -0.8226    0.5517 N.2     1  UNL1       -0.2257
     30 C          -1.1222    0.3937   -0.0068 C.ar    1  UNL1       -0.0323
     31 N           3.8826    1.6838    1.0956 N.ar    1  UNL1       -0.2467
     32 C           5.1723    1.9027    1.4025 C.ar    1  UNL1        0.0701
     33 H           8.7958   -1.2013   -1.6449 H       1  UNL1        0.1229
     34 H           9.3450    0.7663    2.0326 H       1  UNL1        0.0837
     35 H           8.2342   -0.5989    2.5298 H       1  UNL1        0.0837
     36 H           6.2851   -1.2566    1.0954 H       1  UNL1        0.0655
     37 H           3.8558   -1.5760    0.5336 H       1  UNL1        0.0641
     38 H           1.5981    2.3611    0.6455 H       1  UNL1        0.1552
     39 H          -0.2528    3.6150    0.1337 H       1  UNL1        0.0637
     40 H          -2.6635    3.8456   -0.3208 H       1  UNL1        0.0647
     41 H          -2.8519   -2.9080   -0.0952 H       1  UNL1        0.0256
     42 H          -1.5322   -1.9600   -0.8781 H       1  UNL1        0.0256
     43 H          -1.8834   -1.7412    0.8735 H       1  UNL1        0.0256
     44 H          -3.1911   -1.6544   -2.3390 H       1  UNL1        0.0330
     45 H          -3.5009    0.1504   -2.3698 H       1  UNL1        0.0330
     46 H          -5.5722   -0.6707   -2.9381 H       1  UNL1        0.0826
     47 H          -6.7473   -1.6347    1.9046 H       1  UNL1        0.1466
     48 H          -7.0885    0.0847    1.6010 H       1  UNL1        0.1466
     49 H          -0.6319   -0.5556    0.0896 H       1  UNL1        0.0640
     50 H           5.5268    2.9082    1.6480 H       1  UNL1        0.0867
@<TRIPOS>BOND
     1     1     2    3
     2     2     3    1
     3     3     4    1
     4     4     5    1
     5     5     6   ar
     6     6     7   ar
     7     7     8   ar
     8     8     9    1
     9     9    10    2
    10     9    11   am
    11    11    12    1
    12    12    13   ar
    13    13    14   ar
    14    14    15   ar
    15    15    16    1
    16    15    17   ar
    17    17    18    1
    18    18    19    1
    19    18    20    1
    20    20    21    1
    21    21    22    1
    22    22    23    1
    23    22    24    1
    24    22    25    1
    25    21    26    1
    26    26    27    1
    27    27    28    1
    28    27    29    2
    29    17    30   ar
    30     8    31   ar
    31    31    32   ar
    32    32     5   ar
    33    30    12   ar
    34    29    18    1
    35     1    33    1
    36     3    34    1
    37     3    35    1
    38     6    36    1
    39     7    37    1
    40    11    38    1
    41    13    39    1
    42    14    40    1
    43    19    41    1
    44    19    42    1
    45    19    43    1
    46    20    44    1
    47    20    45    1
    48    21    46    1
    49    28    47    1
    50    28    48    1
    51    30    49    1
    52    32    50    1
