@<TRIPOS>MOLECULE
*****
 43 46 0 0 0
SMALL
GASTEIGER

@<TRIPOS>ATOM
      1 C          -0.6250    1.8122    1.2319 C.3     1  UNL1       -0.0239
      2 C          -1.3186    0.6697    0.5901 C.ar    1  UNL1        0.0209
      3 C          -0.8864   -0.6363    0.6936 C.ar    1  UNL1       -0.0133
      4 C           0.2987   -1.1833    1.4232 C.3     1  UNL1        0.0171
      5 C           1.5702   -0.9564    0.7534 C.ar    1  UNL1        0.0464
      6 C           2.0922   -1.8335   -0.1671 C.ar    1  UNL1       -0.0395
      7 C           3.3145   -1.5930   -0.7915 C.ar    1  UNL1       -0.0509
      8 C           4.0094   -0.4514   -0.4758 C.ar    1  UNL1        0.0004
      9 C           5.2442   -0.1825   -1.0881 C.ar    1  UNL1       -0.0526
     10 C           5.9261    0.9685   -0.7570 C.ar    1  UNL1       -0.0611
     11 C           5.3904    1.8394    0.1680 C.ar    1  UNL1       -0.0597
     12 C           4.1742    1.5649    0.7649 C.ar    1  UNL1       -0.0357
     13 C           3.4726    0.4112    0.4445 C.ar    1  UNL1        0.0713
     14 N           2.2948    0.1342    1.0160 N.ar    1  UNL1       -0.2513
     15 C          -1.8156   -1.3700   -0.0493 C.ar    1  UNL1        0.0064
     16 C          -1.9016   -2.7215   -0.3071 C.ar    1  UNL1       -0.0170
     17 C          -2.9250   -3.1955   -1.0769 C.ar    1  UNL1        0.1241
     18 F          -3.0032   -4.5357   -1.3279 F       1  UNL1       -0.2055
     19 C          -3.8712   -2.3220   -1.5951 C.ar    1  UNL1       -0.0245
     20 C          -3.7955   -0.9709   -1.3443 C.ar    1  UNL1       -0.0349
     21 C          -2.7447   -0.5193   -0.5592 C.ar    1  UNL1        0.0502
     22 N          -2.4415    0.7394   -0.1671 N.ar    1  UNL1       -0.3330
     23 C          -3.2045    1.9230   -0.5131 C.3     1  UNL1        0.1204
     24 C          -4.2534    2.1716    0.5107 C.2     1  UNL1        0.3247
     25 O          -4.3438    1.3713    1.4966 O.2     1  UNL1       -0.2490
     26 O          -5.1314    3.2217    0.4481 O.3     1  UNL1       -0.4794
     27 H          -0.3271    1.5923    2.2861 H       1  UNL1        0.0292
     28 H          -1.3495    2.6516    1.2970 H       1  UNL1        0.0292
     29 H           0.2247    2.1961    0.6249 H       1  UNL1        0.0292
     30 H           0.3132   -0.7914    2.4844 H       1  UNL1        0.0377
     31 H           0.0795   -2.2817    1.5738 H       1  UNL1        0.0377
     32 H           1.5613   -2.7322   -0.4266 H       1  UNL1        0.0636
     33 H           3.7467   -2.2607   -1.5147 H       1  UNL1        0.0625
     34 H           5.6365   -0.8856   -1.8086 H       1  UNL1        0.0624
     35 H           6.8828    1.2224   -1.2005 H       1  UNL1        0.0618
     36 H           5.9347    2.7584    0.4319 H       1  UNL1        0.0618
     37 H           3.7202    2.2279    1.4997 H       1  UNL1        0.0639
     38 H          -1.1321   -3.3511    0.1256 H       1  UNL1        0.0653
     39 H          -4.6753   -2.7411   -2.2067 H       1  UNL1        0.0647
     40 H          -4.5498   -0.3296   -1.7659 H       1  UNL1        0.0639
     41 H          -2.5275    2.8110   -0.4791 H       1  UNL1        0.0607
     42 H          -3.6651    1.8335   -1.5310 H       1  UNL1        0.0607
     43 H          -5.3992    3.7243    1.2883 H       1  UNL1        0.2951
@<TRIPOS>BOND
     1     1     2    1
     2     2     3   ar
     3     3     4    1
     4     4     5    1
     5     5     6   ar
     6     6     7   ar
     7     7     8   ar
     8     8     9   ar
     9     9    10   ar
    10    10    11   ar
    11    11    12   ar
    12    12    13   ar
    13    13    14   ar
    14     3    15   ar
    15    15    16   ar
    16    16    17   ar
    17    17    18    1
    18    17    19   ar
    19    19    20   ar
    20    20    21   ar
    21    21    22   ar
    22    22    23    1
    23    23    24    1
    24    24    25    2
    25    24    26    1
    26    22     2   ar
    27    14     5   ar
    28    21    15   ar
    29    13     8   ar
    30     1    27    1
    31     1    28    1
    32     1    29    1
    33     4    30    1
    34     4    31    1
    35     6    32    1
    36     7    33    1
    37     9    34    1
    38    10    35    1
    39    11    36    1
    40    12    37    1
    41    16    38    1
    42    19    39    1
    43    20    40    1
    44    23    41    1
    45    23    42    1
    46    26    43    1
