
     RDKit          3D

 49 53  0  0  0  0  0  0  0  0999 V2000
   -0.6396   -1.0441   -1.3861 C   0  0  0  0  0  0  0  0  0  0  0  0
   -0.6787   -0.5433   -0.0431 N   0  0  0  0  0  0  0  0  0  0  0  0
    0.3612   -0.1573    0.6870 C   0  0  0  0  0  0  0  0  0  0  0  0
    1.7930   -0.1096    0.4408 C   0  0  0  0  0  0  0  0  0  0  0  0
    2.4100   -0.6580   -0.6492 C   0  0  0  0  0  0  0  0  0  0  0  0
    3.7999   -0.5590   -0.8317 C   0  0  0  0  0  0  0  0  0  0  0  0
    4.6022    0.0834    0.0611 C   0  0  0  0  0  0  0  0  0  0  0  0
    6.0393    0.2089   -0.0762 C   0  0  0  0  0  0  0  0  0  0  0  0
    6.7556   -0.3228   -1.1454 C   0  0  0  0  0  0  0  0  0  0  0  0
    8.0999   -0.1763   -1.2197 N   0  0  0  0  0  0  0  0  0  0  0  0
    8.7938    0.4809   -0.2760 C   0  0  0  0  0  0  0  0  0  0  0  0
    8.0670    1.0009    0.7755 C   0  0  0  0  0  0  0  0  0  0  0  0
    6.7353    0.8653    0.8651 N   0  0  0  0  0  0  0  0  0  0  0  0
    3.9987    0.6406    1.1633 C   0  0  0  0  0  0  0  0  0  0  0  0
    2.6419    0.5441    1.3409 C   0  0  0  0  0  0  0  0  0  0  0  0
    1.8936    1.2714    2.7600 Cl  0  0  0  0  0  0  0  0  0  0  0  0
   -0.1854    0.2634    1.8819 N   0  0  0  0  0  0  0  0  0  0  0  0
   -1.4924    0.1167    1.8254 N   0  0  0  0  0  0  0  0  0  0  0  0
   -1.8440   -0.3888    0.6305 C   0  0  0  0  0  0  0  0  0  0  0  0
   -3.2382   -0.6904    0.2187 C   0  0  0  0  0  0  0  0  0  0  0  0
   -4.0270    0.4643   -0.2388 C   0  0  0  0  0  0  0  0  0  0  0  0
   -4.2972    1.4657    0.6734 C   0  0  0  0  0  0  0  0  0  0  0  0
   -5.0340    2.5792    0.3248 C   0  0  0  0  0  0  0  0  0  0  0  0
   -5.5294    2.7330   -0.9527 C   0  0  0  0  0  0  0  0  0  0  0  0
   -6.4736    4.1564   -1.4037 Cl  0  0  0  0  0  0  0  0  0  0  0  0
   -5.2674    1.7426   -1.8719 C   0  0  0  0  0  0  0  0  0  0  0  0
   -4.5198    0.6150   -1.5143 C   0  0  0  0  0  0  0  0  0  0  0  0
   -3.9486   -1.2712    1.4585 C   0  0  0  0  0  0  0  0  0  0  0  0
   -4.6904   -2.1801    0.5039 C   0  0  0  0  0  0  0  0  0  0  0  0
   -4.8053   -3.4821    0.9053 F   0  0  0  0  0  0  0  0  0  0  0  0
   -3.4921   -1.9985   -0.4368 C   0  0  0  0  0  0  0  0  0  0  0  0
   -1.6801   -1.1043   -1.8144 H   0  0  0  0  0  0  0  0  0  0  0  0
   -0.2724   -2.0752   -1.4262 H   0  0  0  0  0  0  0  0  0  0  0  0
   -0.1337   -0.3524   -2.1153 H   0  0  0  0  0  0  0  0  0  0  0  0
    1.8367   -1.1923   -1.3912 H   0  0  0  0  0  0  0  0  0  0  0  0
    4.2191   -1.0095   -1.7056 H   0  0  0  0  0  0  0  0  0  0  0  0
    6.2224   -0.8551   -1.9161 H   0  0  0  0  0  0  0  0  0  0  0  0
    9.8646    0.5988   -0.3321 H   0  0  0  0  0  0  0  0  0  0  0  0
    8.6460    1.5351    1.5384 H   0  0  0  0  0  0  0  0  0  0  0  0
    4.6018    1.1693    1.9108 H   0  0  0  0  0  0  0  0  0  0  0  0
   -3.9120    1.3668    1.7008 H   0  0  0  0  0  0  0  0  0  0  0  0
   -5.2469    3.3642    1.0360 H   0  0  0  0  0  0  0  0  0  0  0  0
   -5.6500    1.8546   -2.8703 H   0  0  0  0  0  0  0  0  0  0  0  0
   -4.3123   -0.1607   -2.2268 H   0  0  0  0  0  0  0  0  0  0  0  0
   -4.5932   -0.5502    1.9849 H   0  0  0  0  0  0  0  0  0  0  0  0
   -3.2548   -1.7950    2.1466 H   0  0  0  0  0  0  0  0  0  0  0  0
   -5.6013   -1.7134    0.0916 H   0  0  0  0  0  0  0  0  0  0  0  0
   -3.8707   -2.0066   -1.4685 H   0  0  0  0  0  0  0  0  0  0  0  0
   -2.6914   -2.7245   -0.2947 H   0  0  0  0  0  0  0  0  0  0  0  0
  1  2  1  0
  2  3  1  0
  3  4  1  0
  4  5  2  0
  5  6  1  0
  6  7  2  0
  7  8  1  0
  8  9  2  0
  9 10  1  0
 10 11  2  0
 11 12  1  0
 12 13  2  0
  7 14  1  0
 14 15  2  0
 15 16  1  0
  3 17  2  0
 17 18  1  0
 18 19  2  0
 19 20  1  0
 20 21  1  0
 21 22  2  0
 22 23  1  0
 23 24  2  0
 24 25  1  0
 24 26  1  0
 26 27  2  0
 20 28  1  0
 28 29  1  0
 29 30  1  0
 29 31  1  0
 19  2  1  0
 31 20  1  0
 15  4  1  0
 27 21  1  0
 13  8  1  0
  1 32  1  0
  1 33  1  0
  1 34  1  0
  5 35  1  0
  6 36  1  0
  9 37  1  0
 11 38  1  0
 12 39  1  0
 14 40  1  0
 22 41  1  0
 23 42  1  0
 26 43  1  0
 27 44  1  0
 28 45  1  0
 28 46  1  0
 29 47  1  0
 31 48  1  0
 31 49  1  0
M  END
$$$$
