@<TRIPOS>MOLECULE
*****
 49 53 0 0 0
SMALL
GASTEIGER

@<TRIPOS>ATOM
      1 C          -0.6396   -1.0441   -1.3861 C.3     1  UNL1        0.0150
      2 N          -0.6787   -0.5433   -0.0431 N.ar    1  UNL1       -0.3132
      3 C           0.3612   -0.1573    0.6870 C.ar    1  UNL1        0.1654
      4 C           1.7930   -0.1096    0.4408 C.ar    1  UNL1        0.0376
      5 C           2.4100   -0.6580   -0.6492 C.ar    1  UNL1       -0.0490
      6 C           3.7999   -0.5590   -0.8317 C.ar    1  UNL1       -0.0518
      7 C           4.6022    0.0834    0.0611 C.ar    1  UNL1        0.0032
      8 C           6.0393    0.2089   -0.0762 C.ar    1  UNL1        0.0890
      9 C           6.7556   -0.3228   -1.1454 C.ar    1  UNL1        0.0535
     10 N           8.0999   -0.1763   -1.2197 N.ar    1  UNL1       -0.2596
     11 C           8.7938    0.4809   -0.2760 C.ar    1  UNL1        0.0457
     12 C           8.0670    1.0009    0.7755 C.ar    1  UNL1        0.0464
     13 N           6.7353    0.8653    0.8651 N.ar    1  UNL1       -0.2520
     14 C           3.9987    0.6406    1.1633 C.ar    1  UNL1       -0.0335
     15 C           2.6419    0.5441    1.3409 C.ar    1  UNL1        0.0523
     16 CL          1.8936    1.2714    2.7600 Cl      1  UNL1       -0.0828
     17 N          -0.1854    0.2634    1.8819 N.ar    1  UNL1       -0.1291
     18 N          -1.4924    0.1167    1.8254 N.ar    1  UNL1       -0.1331
     19 C          -1.8440   -0.3888    0.6305 C.ar    1  UNL1        0.1442
     20 C          -3.2382   -0.6904    0.2187 C.3     1  UNL1        0.0606
     21 C          -4.0270    0.4643   -0.2388 C.ar    1  UNL1       -0.0336
     22 C          -4.2972    1.4657    0.6734 C.ar    1  UNL1       -0.0562
     23 C          -5.0340    2.5792    0.3248 C.ar    1  UNL1       -0.0431
     24 C          -5.5294    2.7330   -0.9527 C.ar    1  UNL1        0.0410
     25 CL         -6.4736    4.1564   -1.4037 Cl      1  UNL1       -0.0835
     26 C          -5.2674    1.7426   -1.8719 C.ar    1  UNL1       -0.0431
     27 C          -4.5198    0.6150   -1.5143 C.ar    1  UNL1       -0.0562
     28 C          -3.9486   -1.2712    1.4585 C.3     1  UNL1       -0.0050
     29 C          -4.6904   -2.1801    0.5039 C.3     1  UNL1        0.1034
     30 F          -4.8053   -3.4821    0.9053 F       1  UNL1       -0.2454
     31 C          -3.4921   -1.9985   -0.4368 C.3     1  UNL1       -0.0050
     32 H          -1.6801   -1.1043   -1.8144 H       1  UNL1        0.0457
     33 H          -0.2724   -2.0752   -1.4262 H       1  UNL1        0.0457
     34 H          -0.1337   -0.3524   -2.1153 H       1  UNL1        0.0457
     35 H           1.8367   -1.1923   -1.3912 H       1  UNL1        0.0625
     36 H           4.2191   -1.0095   -1.7056 H       1  UNL1        0.0624
     37 H           6.2224   -0.8551   -1.9161 H       1  UNL1        0.0851
     38 H           9.8646    0.5988   -0.3321 H       1  UNL1        0.0845
     39 H           8.6460    1.5351    1.5384 H       1  UNL1        0.0845
     40 H           4.6018    1.1693    1.9108 H       1  UNL1        0.0639
     41 H          -3.9120    1.3668    1.7008 H       1  UNL1        0.0621
     42 H          -5.2469    3.3642    1.0360 H       1  UNL1        0.0632
     43 H          -5.6500    1.8546   -2.8703 H       1  UNL1        0.0632
     44 H          -4.3123   -0.1607   -2.2268 H       1  UNL1        0.0621
     45 H          -4.5932   -0.5502    1.9849 H       1  UNL1        0.0306
     46 H          -3.2548   -1.7950    2.1466 H       1  UNL1        0.0306
     47 H          -5.6013   -1.7134    0.0916 H       1  UNL1        0.0652
     48 H          -3.8707   -2.0066   -1.4685 H       1  UNL1        0.0306
     49 H          -2.6914   -2.7245   -0.2947 H       1  UNL1        0.0306
@<TRIPOS>BOND
     1     1     2    1
     2     2     3   ar
     3     3     4    1
     4     4     5   ar
     5     5     6   ar
     6     6     7   ar
     7     7     8    1
     8     8     9   ar
     9     9    10   ar
    10    10    11   ar
    11    11    12   ar
    12    12    13   ar
    13     7    14   ar
    14    14    15   ar
    15    15    16    1
    16     3    17   ar
    17    17    18   ar
    18    18    19   ar
    19    19    20    1
    20    20    21    1
    21    21    22   ar
    22    22    23   ar
    23    23    24   ar
    24    24    25    1
    25    24    26   ar
    26    26    27   ar
    27    20    28    1
    28    28    29    1
    29    29    30    1
    30    29    31    1
    31    19     2   ar
    32    31    20    1
    33    15     4   ar
    34    27    21   ar
    35    13     8   ar
    36     1    32    1
    37     1    33    1
    38     1    34    1
    39     5    35    1
    40     6    36    1
    41     9    37    1
    42    11    38    1
    43    12    39    1
    44    14    40    1
    45    22    41    1
    46    23    42    1
    47    26    43    1
    48    27    44    1
    49    28    45    1
    50    28    46    1
    51    29    47    1
    52    31    48    1
    53    31    49    1
