
     RDKit          3D

 30 31  0  0  0  0  0  0  0  0999 V2000
    2.8037   -1.1782    1.8120 C   0  0  0  0  0  0  0  0  0  0  0  0
    2.7561   -0.2293    0.6702 C   0  0  0  0  0  0  0  0  0  0  0  0
    1.7341   -0.0694   -0.2793 C   0  0  0  0  0  0  0  0  0  0  0  0
    0.7420   -0.9447   -0.0002 O   0  0  0  0  0  0  0  0  0  0  0  0
   -0.4665   -1.1971   -0.6029 C   0  0  0  0  0  0  0  0  0  0  0  0
   -1.4571   -0.0786   -0.6671 C   0  0  2  0  0  0  0  0  0  0  0  0
   -2.0011    0.3151    0.6831 C   0  0  0  0  0  0  0  0  0  0  0  0
   -3.5135    0.2828    0.5810 C   0  0  0  0  0  0  0  0  0  0  0  0
   -3.7502    0.1609   -0.9081 C   0  0  0  0  0  0  0  0  0  0  0  0
   -2.6327   -0.6422   -1.3538 N   0  0  0  0  0  0  0  0  0  0  0  0
    1.9360    0.8915   -1.2489 C   0  0  0  0  0  0  0  0  0  0  0  0
    3.0843    1.6541   -1.2803 C   0  0  0  0  0  0  0  0  0  0  0  0
    4.0479    1.4638   -0.3389 C   0  0  0  0  0  0  0  0  0  0  0  0
    3.8931    0.5322    0.6315 N   0  0  0  0  0  0  0  0  0  0  0  0
    2.7515   -0.6924    2.8007 H   0  0  0  0  0  0  0  0  0  0  0  0
    2.0374   -1.9978    1.6815 H   0  0  0  0  0  0  0  0  0  0  0  0
    3.7710   -1.7226    1.7761 H   0  0  0  0  0  0  0  0  0  0  0  0
   -1.0211   -2.0627   -0.1427 H   0  0  0  0  0  0  0  0  0  0  0  0
   -0.2648   -1.4585   -1.6849 H   0  0  0  0  0  0  0  0  0  0  0  0
   -1.1512    0.7791   -1.2594 H   0  0  0  0  0  0  0  0  0  0  0  0
   -1.6274   -0.2992    1.5186 H   0  0  0  0  0  0  0  0  0  0  0  0
   -1.7130    1.3872    0.8487 H   0  0  0  0  0  0  0  0  0  0  0  0
   -3.9704    1.2221    0.9294 H   0  0  0  0  0  0  0  0  0  0  0  0
   -3.9256   -0.6305    1.0720 H   0  0  0  0  0  0  0  0  0  0  0  0
   -4.6818   -0.4052   -1.1421 H   0  0  0  0  0  0  0  0  0  0  0  0
   -3.6958    1.1193   -1.4280 H   0  0  0  0  0  0  0  0  0  0  0  0
   -2.7880   -1.5991   -0.9144 H   0  0  0  0  0  0  0  0  0  0  0  0
    1.1160    0.9409   -1.9247 H   0  0  0  0  0  0  0  0  0  0  0  0
    3.0709    2.3574   -2.1102 H   0  0  0  0  0  0  0  0  0  0  0  0
    4.9163    2.1010   -0.4332 H   0  0  0  0  0  0  0  0  0  0  0  0
  1  2  1  0
  2  3  2  0
  3  4  1  0
  4  5  1  0
  5  6  1  0
  6  7  1  0
  7  8  1  0
  8  9  1  0
  9 10  1  0
  3 11  1  0
 11 12  2  0
 12 13  1  0
 13 14  2  0
 14  2  1  0
 10  6  1  0
  1 15  1  0
  1 16  1  0
  1 17  1  0
  5 18  1  0
  5 19  1  0
  6 20  1  6
  7 21  1  0
  7 22  1  0
  8 23  1  0
  8 24  1  0
  9 25  1  0
  9 26  1  0
 10 27  1  0
 11 28  1  0
 12 29  1  0
 13 30  1  0
M  END
$$$$
