@<TRIPOS>MOLECULE
*****
 57 61 0 0 0
SMALL
GASTEIGER

@<TRIPOS>ATOM
      1 F          -8.7823    2.0520    0.7707 F       1  UNL1       -0.2055
      2 C          -7.5455    1.4945    0.6523 C.ar    1  UNL1        0.1235
      3 C          -7.1663    0.7968   -0.4876 C.ar    1  UNL1       -0.0245
      4 C          -5.9092    0.2662   -0.5353 C.ar    1  UNL1       -0.0351
      5 C          -4.9987    0.4024    0.5203 C.ar    1  UNL1        0.0468
      6 C          -5.3736    1.0860    1.6334 C.ar    1  UNL1       -0.0351
      7 C          -6.6409    1.6322    1.7052 C.ar    1  UNL1       -0.0245
      8 N          -3.7623   -0.2477    0.2062 N.ar    1  UNL1       -0.3156
      9 C          -2.5903    0.4549    0.2433 C.ar    1  UNL1        0.0144
     10 C          -1.6007   -0.4497   -0.1071 C.ar    1  UNL1       -0.0186
     11 C          -0.1716   -0.0710   -0.1870 C.3     1  UNL1       -0.0115
     12 C           0.5912   -0.1724    1.0814 C.3     1  UNL1       -0.0333
     13 C           1.6078    0.9215    1.2746 C.3     1  UNL1       -0.0005
     14 N           2.1831    1.4814    0.1295 N.3     1  UNL1       -0.3008
     15 C           3.5744    1.3879   -0.0761 C.3     1  UNL1        0.0148
     16 C           4.0896    0.0156   -0.3494 C.3     1  UNL1        0.0289
     17 N           5.5261    0.1328   -0.5364 N.am    1  UNL1       -0.2829
     18 C           6.3952    0.0203    0.6270 C.3     1  UNL1        0.0318
     19 C           7.7686    0.3831    0.1620 C.3     1  UNL1        0.0289
     20 N           7.7272    0.3595   -1.2734 N.am    1  UNL1       -0.2977
     21 C           6.3412    0.3494   -1.6622 C.2     1  UNL1        0.3023
     22 O           5.8737    0.5038   -2.8117 O.2     1  UNL1       -0.2526
     23 C           1.3890    1.5660   -1.0589 C.3     1  UNL1       -0.0005
     24 C          -0.0569    1.3491   -0.7434 C.3     1  UNL1       -0.0333
     25 C          -2.1804   -1.6769   -0.3495 C.ar    1  UNL1        0.0050
     26 C          -3.5459   -1.5411   -0.1497 C.ar    1  UNL1        0.0541
     27 C          -4.4356   -2.5813   -0.3097 C.ar    1  UNL1       -0.0359
     28 C          -3.9242   -3.8175   -0.6892 C.ar    1  UNL1       -0.0414
     29 C          -2.5544   -3.9633   -0.8921 C.ar    1  UNL1        0.0417
     30 CL         -1.9245   -5.5354   -1.3742 Cl      1  UNL1       -0.0835
     31 C          -1.6527   -2.9076   -0.7295 C.ar    1  UNL1       -0.0339
     32 H          -7.9141    0.7355   -1.2486 H       1  UNL1        0.0647
     33 H          -5.7261   -0.2604   -1.4828 H       1  UNL1        0.0639
     34 H          -4.5991    1.1285    2.3772 H       1  UNL1        0.0639
     35 H          -6.8767    2.1635    2.6191 H       1  UNL1        0.0647
     36 H          -2.4546    1.4903    0.4903 H       1  UNL1        0.0816
     37 H           0.3712   -0.7011   -0.9503 H       1  UNL1        0.0350
     38 H           1.0968   -1.1743    1.1982 H       1  UNL1        0.0283
     39 H          -0.1080   -0.1368    1.9447 H       1  UNL1        0.0283
     40 H           2.3960    0.5627    1.9481 H       1  UNL1        0.0427
     41 H           1.0941    1.7547    1.8389 H       1  UNL1        0.0427
     42 H           3.8323    2.0321   -0.9543 H       1  UNL1        0.0442
     43 H           4.0940    1.8370    0.7933 H       1  UNL1        0.0442
     44 H           3.8352   -0.6870    0.4412 H       1  UNL1        0.0478
     45 H           3.6366   -0.3441   -1.3117 H       1  UNL1        0.0478
     46 H           6.0833    0.7845    1.3843 H       1  UNL1        0.0480
     47 H           6.4244   -0.9880    1.0494 H       1  UNL1        0.0480
     48 H           8.5469   -0.3374    0.5158 H       1  UNL1        0.0478
     49 H           8.0780    1.3977    0.5347 H       1  UNL1        0.0478
     50 H           8.5566    0.3519   -1.8895 H       1  UNL1        0.1503
     51 H           1.5078    2.5838   -1.4824 H       1  UNL1        0.0427
     52 H           1.6819    0.8417   -1.8423 H       1  UNL1        0.0427
     53 H          -0.4725    2.0589   -0.0105 H       1  UNL1        0.0283
     54 H          -0.6857    1.3487   -1.6546 H       1  UNL1        0.0283
     55 H          -5.4970   -2.4500   -0.1487 H       1  UNL1        0.0639
     56 H          -4.5571   -4.6816   -0.8363 H       1  UNL1        0.0633
     57 H          -0.5953   -3.0022   -0.8815 H       1  UNL1        0.0639
@<TRIPOS>BOND
     1     1     2    1
     2     2     3   ar
     3     3     4   ar
     4     4     5   ar
     5     5     6   ar
     6     6     7   ar
     7     5     8    1
     8     8     9   ar
     9     9    10   ar
    10    10    11    1
    11    11    12    1
    12    12    13    1
    13    13    14    1
    14    14    15    1
    15    15    16    1
    16    16    17    1
    17    17    18    1
    18    18    19    1
    19    19    20    1
    20    20    21   am
    21    21    22    2
    22    14    23    1
    23    23    24    1
    24    10    25   ar
    25    25    26   ar
    26    26    27   ar
    27    27    28   ar
    28    28    29   ar
    29    29    30    1
    30    29    31   ar
    31     7     2   ar
    32    26     8   ar
    33    24    11    1
    34    31    25   ar
    35    21    17   am
    36     3    32    1
    37     4    33    1
    38     6    34    1
    39     7    35    1
    40     9    36    1
    41    11    37    1
    42    12    38    1
    43    12    39    1
    44    13    40    1
    45    13    41    1
    46    15    42    1
    47    15    43    1
    48    16    44    1
    49    16    45    1
    50    18    46    1
    51    18    47    1
    52    19    48    1
    53    19    49    1
    54    20    50    1
    55    23    51    1
    56    23    52    1
    57    24    53    1
    58    24    54    1
    59    27    55    1
    60    28    56    1
    61    31    57    1
