@<TRIPOS>MOLECULE
*****
 48 50 0 0 0
SMALL
GASTEIGER

@<TRIPOS>ATOM
      1 C          -2.7449    3.4156    4.2428 C.3     1  UNL1        0.0820
      2 O          -1.6637    2.7462    3.6753 O.3     1  UNL1       -0.4644
      3 C          -1.7406    1.9803    2.4954 C.2     1  UNL1        0.3422
      4 O          -2.8854    1.9542    2.0105 O.2     1  UNL1       -0.2448
      5 C          -0.5711    1.3273    1.9674 C.ar    1  UNL1        0.0979
      6 C           0.6628    1.5258    2.6299 C.ar    1  UNL1        0.0455
      7 N           1.8096    1.0014    2.1922 N.ar    1  UNL1       -0.2392
      8 C           1.8945    0.2396    1.0942 C.ar    1  UNL1        0.1257
      9 N           3.1514   -0.2144    0.5983 N.pl3   1  UNL1       -0.2831
     10 C           3.9565   -1.2396    1.0669 C.ar    1  UNL1        0.1423
     11 C           5.2334   -1.3764    0.5778 C.ar    1  UNL1        0.0691
     12 N           6.0705   -2.3366    0.9371 N.ar    1  UNL1       -0.2397
     13 C           5.6665   -3.2850    1.8669 C.ar    1  UNL1        0.1582
     14 C           6.5766   -4.2731    2.2276 C.1     1  UNL1        0.1206
     15 N           7.3980   -5.1360    2.5385 N.1     1  UNL1       -0.1892
     16 C           4.4118   -3.1703    2.3656 C.ar    1  UNL1        0.0655
     17 N           3.5646   -2.1688    1.9767 N.ar    1  UNL1       -0.2358
     18 C           0.7172    0.0102    0.4118 C.ar    1  UNL1        0.0001
     19 C          -0.5063    0.5473    0.8379 C.ar    1  UNL1        0.0460
     20 N          -1.6940    0.2851    0.1268 N.pl3   1  UNL1       -0.3428
     21 C          -1.7216   -0.4963   -1.0744 C.3     1  UNL1        0.0120
     22 C          -1.1711    0.1197   -2.3012 C.3     1  UNL1       -0.0232
     23 C          -1.2873   -0.8215   -3.4969 C.3     1  UNL1       -0.0361
     24 C          -2.7199   -1.2081   -3.7198 C.3     1  UNL1       -0.0038
     25 N          -3.6614   -0.1845   -3.5127 N.3     1  UNL1       -0.3160
     26 C          -3.2629    1.0970   -3.1371 C.3     1  UNL1       -0.0038
     27 C          -1.8769    1.3757   -2.7309 C.3     1  UNL1       -0.0361
     28 H          -3.4676    2.7961    4.8004 H       1  UNL1        0.0661
     29 H          -2.2806    4.1744    4.9372 H       1  UNL1        0.0661
     30 H          -3.3211    4.0245    3.4998 H       1  UNL1        0.0661
     31 H           0.6241    2.1324    3.5319 H       1  UNL1        0.0839
     32 H           3.4958    0.3294   -0.2862 H       1  UNL1        0.1550
     33 H           5.5624   -0.6360   -0.1469 H       1  UNL1        0.0865
     34 H           4.0232   -3.8956    3.1001 H       1  UNL1        0.0859
     35 H           0.7733   -0.6333   -0.4453 H       1  UNL1        0.0671
     36 H          -2.6242    0.6681    0.4913 H       1  UNL1        0.1461
     37 H          -2.7842   -0.8741   -1.2279 H       1  UNL1        0.0464
     38 H          -1.1121   -1.4320   -0.8716 H       1  UNL1        0.0464
     39 H          -0.1000    0.3513   -2.1949 H       1  UNL1        0.0317
     40 H          -0.6323   -1.6868   -3.3016 H       1  UNL1        0.0281
     41 H          -0.8781   -0.2875   -4.3682 H       1  UNL1        0.0281
     42 H          -2.8406   -1.6665   -4.7083 H       1  UNL1        0.0424
     43 H          -2.9495   -2.0226   -2.9668 H       1  UNL1        0.0424
     44 H          -4.4720   -0.2831   -4.1511 H       1  UNL1        0.1219
     45 H          -3.5066    1.8216   -3.9816 H       1  UNL1        0.0424
     46 H          -3.9601    1.4505   -2.3157 H       1  UNL1        0.0424
     47 H          -1.2589    1.9249   -3.4570 H       1  UNL1        0.0281
     48 H          -1.8972    2.0296   -1.8044 H       1  UNL1        0.0281
@<TRIPOS>BOND
     1     1     2    1
     2     2     3    1
     3     3     4    2
     4     3     5    1
     5     5     6   ar
     6     6     7   ar
     7     7     8   ar
     8     8     9    1
     9     9    10    1
    10    10    11   ar
    11    11    12   ar
    12    12    13   ar
    13    13    14    1
    14    14    15    3
    15    13    16   ar
    16    16    17   ar
    17     8    18   ar
    18    18    19   ar
    19    19    20    1
    20    20    21    1
    21    21    22    1
    22    22    23    1
    23    23    24    1
    24    24    25    1
    25    25    26    1
    26    26    27    1
    27    19     5   ar
    28    27    22    1
    29    17    10   ar
    30     1    28    1
    31     1    29    1
    32     1    30    1
    33     6    31    1
    34     9    32    1
    35    11    33    1
    36    16    34    1
    37    18    35    1
    38    20    36    1
    39    21    37    1
    40    21    38    1
    41    22    39    1
    42    23    40    1
    43    23    41    1
    44    24    42    1
    45    24    43    1
    46    25    44    1
    47    26    45    1
    48    26    46    1
    49    27    47    1
    50    27    48    1
