@<TRIPOS>MOLECULE
*****
 29 30 0 0 0
SMALL
GASTEIGER

@<TRIPOS>ATOM
      1 C          -3.7060    0.9162    0.4435 C.3     1  UNL1       -0.0155
      2 N          -3.2105    0.5267   -0.8589 N.3     1  UNL1       -0.3162
      3 C          -1.9278   -0.1449   -0.7105 C.3     1  UNL1        0.0085
      4 C          -2.1130   -1.3587    0.1429 C.3     1  UNL1       -0.0494
      5 C          -0.9846    0.8716   -0.1128 C.3     1  UNL1       -0.0124
      6 C           0.3827    0.3214    0.0990 C.ar    1  UNL1       -0.0422
      7 C           1.2872    0.4612   -0.9615 C.ar    1  UNL1       -0.0129
      8 C           2.5752   -0.0251   -0.8383 C.ar    1  UNL1        0.1665
      9 C           2.9935   -0.6548    0.3258 C.ar    1  UNL1        0.1662
     10 O           4.3291   -1.0045    0.0852 O.3     1  UNL1       -0.4526
     11 C           4.8526   -0.1726   -0.9355 C.3     1  UNL1        0.2332
     12 O           3.6656   -0.0181   -1.7315 O.3     1  UNL1       -0.4526
     13 C           2.0978   -0.7923    1.3734 C.ar    1  UNL1       -0.0159
     14 C           0.8047   -0.3113    1.2671 C.ar    1  UNL1       -0.0548
     15 H          -3.4923    0.1779    1.2186 H       1  UNL1        0.0388
     16 H          -3.3623    1.9315    0.7304 H       1  UNL1        0.0388
     17 H          -4.8283    0.9912    0.3663 H       1  UNL1        0.0388
     18 H          -3.1329    1.3928   -1.4442 H       1  UNL1        0.1219
     19 H          -1.5288   -0.4543   -1.6838 H       1  UNL1        0.0461
     20 H          -3.1530   -1.7395    0.0015 H       1  UNL1        0.0245
     21 H          -1.9949   -1.2073    1.2197 H       1  UNL1        0.0245
     22 H          -1.4705   -2.2050   -0.2381 H       1  UNL1        0.0245
     23 H          -1.4039    1.2970    0.8335 H       1  UNL1        0.0328
     24 H          -0.9266    1.7236   -0.8150 H       1  UNL1        0.0328
     25 H           0.9883    0.9483   -1.8815 H       1  UNL1        0.0658
     26 H           5.6869   -0.6111   -1.4740 H       1  UNL1        0.1166
     27 H           5.0306    0.8325   -0.4967 H       1  UNL1        0.1166
     28 H           2.4342   -1.2846    2.2759 H       1  UNL1        0.0655
     29 H           0.1070   -0.4078    2.0578 H       1  UNL1        0.0621
@<TRIPOS>BOND
     1     1     2    1
     2     2     3    1
     3     3     4    1
     4     3     5    1
     5     5     6    1
     6     6     7   ar
     7     7     8   ar
     8     8     9   ar
     9     9    10    1
    10    10    11    1
    11    11    12    1
    12     9    13   ar
    13    13    14   ar
    14    14     6   ar
    15    12     8    1
    16     1    15    1
    17     1    16    1
    18     1    17    1
    19     2    18    1
    20     3    19    1
    21     4    20    1
    22     4    21    1
    23     4    22    1
    24     5    23    1
    25     5    24    1
    26     7    25    1
    27    11    26    1
    28    11    27    1
    29    13    28    1
    30    14    29    1
