
     RDKit          3D

 29 30  0  0  0  0  0  0  0  0999 V2000
   -3.7060    0.9162    0.4435 C   0  0  0  0  0  0  0  0  0  0  0  0
   -3.2105    0.5267   -0.8589 N   0  0  0  0  0  0  0  0  0  0  0  0
   -1.9278   -0.1449   -0.7105 C   0  0  0  0  0  0  0  0  0  0  0  0
   -2.1130   -1.3587    0.1429 C   0  0  0  0  0  0  0  0  0  0  0  0
   -0.9846    0.8716   -0.1128 C   0  0  0  0  0  0  0  0  0  0  0  0
    0.3827    0.3214    0.0990 C   0  0  0  0  0  0  0  0  0  0  0  0
    1.2872    0.4612   -0.9615 C   0  0  0  0  0  0  0  0  0  0  0  0
    2.5752   -0.0251   -0.8383 C   0  0  0  0  0  0  0  0  0  0  0  0
    2.9935   -0.6548    0.3258 C   0  0  0  0  0  0  0  0  0  0  0  0
    4.3291   -1.0045    0.0852 O   0  0  0  0  0  0  0  0  0  0  0  0
    4.8526   -0.1726   -0.9355 C   0  0  0  0  0  0  0  0  0  0  0  0
    3.6656   -0.0181   -1.7315 O   0  0  0  0  0  0  0  0  0  0  0  0
    2.0978   -0.7923    1.3734 C   0  0  0  0  0  0  0  0  0  0  0  0
    0.8047   -0.3113    1.2671 C   0  0  0  0  0  0  0  0  0  0  0  0
   -3.4923    0.1779    1.2186 H   0  0  0  0  0  0  0  0  0  0  0  0
   -3.3623    1.9315    0.7304 H   0  0  0  0  0  0  0  0  0  0  0  0
   -4.8283    0.9912    0.3663 H   0  0  0  0  0  0  0  0  0  0  0  0
   -3.1329    1.3928   -1.4442 H   0  0  0  0  0  0  0  0  0  0  0  0
   -1.5288   -0.4543   -1.6838 H   0  0  0  0  0  0  0  0  0  0  0  0
   -3.1530   -1.7395    0.0015 H   0  0  0  0  0  0  0  0  0  0  0  0
   -1.9949   -1.2073    1.2197 H   0  0  0  0  0  0  0  0  0  0  0  0
   -1.4705   -2.2050   -0.2381 H   0  0  0  0  0  0  0  0  0  0  0  0
   -1.4039    1.2970    0.8335 H   0  0  0  0  0  0  0  0  0  0  0  0
   -0.9266    1.7236   -0.8150 H   0  0  0  0  0  0  0  0  0  0  0  0
    0.9883    0.9483   -1.8815 H   0  0  0  0  0  0  0  0  0  0  0  0
    5.6869   -0.6111   -1.4740 H   0  0  0  0  0  0  0  0  0  0  0  0
    5.0306    0.8325   -0.4967 H   0  0  0  0  0  0  0  0  0  0  0  0
    2.4342   -1.2846    2.2759 H   0  0  0  0  0  0  0  0  0  0  0  0
    0.1070   -0.4078    2.0578 H   0  0  0  0  0  0  0  0  0  0  0  0
  1  2  1  0
  2  3  1  0
  3  4  1  0
  3  5  1  0
  5  6  1  0
  6  7  2  0
  7  8  1  0
  8  9  2  0
  9 10  1  0
 10 11  1  0
 11 12  1  0
  9 13  1  0
 13 14  2  0
 14  6  1  0
 12  8  1  0
  1 15  1  0
  1 16  1  0
  1 17  1  0
  2 18  1  0
  3 19  1  0
  4 20  1  0
  4 21  1  0
  4 22  1  0
  5 23  1  0
  5 24  1  0
  7 25  1  0
 11 26  1  0
 11 27  1  0
 13 28  1  0
 14 29  1  0
M  END
$$$$
