@<TRIPOS>MOLECULE
*****
 48 51 0 0 0
SMALL
GASTEIGER

@<TRIPOS>ATOM
      1 C          -0.1399   -3.4142    1.4303 C.3     1  UNL1       -0.0633
      2 C          -0.4392   -3.7100   -0.0060 C.3     1  UNL1       -0.0328
      3 C          -0.4288   -2.4653   -0.8694 C.3     1  UNL1        0.0588
      4 C          -0.7367   -2.8264   -2.3063 C.3     1  UNL1        0.0650
      5 O          -1.9637   -3.4202   -2.4669 O.3     1  UNL1       -0.3930
      6 N          -1.3155   -1.4500   -0.3408 N.ar    1  UNL1       -0.3231
      7 C          -2.5476   -1.7180    0.1245 C.ar    1  UNL1        0.0974
      8 N          -3.1335   -0.5884    0.5489 N.ar    1  UNL1       -0.2351
      9 C          -2.2688    0.4193    0.3545 C.ar    1  UNL1        0.0982
     10 C          -2.5017    1.8393    0.6766 C.ar    1  UNL1        0.0027
     11 C          -1.6588    2.4187    1.5933 C.ar    1  UNL1       -0.0498
     12 C          -1.7983    3.7405    1.9598 C.ar    1  UNL1       -0.0258
     13 C          -2.8163    4.4632    1.3727 C.ar    1  UNL1        0.1234
     14 F          -2.9325    5.7753    1.7549 F       1  UNL1       -0.2055
     15 C          -3.6737    3.9182    0.4563 C.ar    1  UNL1       -0.0258
     16 C          -3.4999    2.5783    0.1118 C.ar    1  UNL1       -0.0498
     17 C          -1.1378   -0.1305   -0.2011 C.ar    1  UNL1        0.0969
     18 C           0.0808    0.5564   -0.5893 C.ar    1  UNL1        0.1103
     19 C           0.0239    1.5349   -1.5511 C.ar    1  UNL1       -0.0290
     20 C           1.1984    2.1629   -1.8950 C.ar    1  UNL1       -0.0153
     21 C           2.3766    1.7770   -1.2550 C.ar    1  UNL1        0.1549
     22 N           3.6565    2.1920   -1.3697 N.ar    1  UNL1       -0.2339
     23 C           4.4622    1.5171   -0.5340 C.ar    1  UNL1        0.0605
     24 C           3.6460    0.6204    0.1519 C.ar    1  UNL1        0.1470
     25 C           4.1134   -0.3142    1.1620 C.2     1  UNL1        0.2615
     26 N           5.4774   -0.3822    1.5283 N.am    1  UNL1       -0.3240
     27 O           3.2997   -1.0786    1.7248 O.2     1  UNL1       -0.2687
     28 N           2.4013    0.8147   -0.3163 N.ar    1  UNL1       -0.2076
     29 N           1.2506    0.2273   -0.0062 N.ar    1  UNL1       -0.1628
     30 H          -0.0882   -2.3294    1.6519 H       1  UNL1        0.0230
     31 H           0.8574   -3.8302    1.7036 H       1  UNL1        0.0230
     32 H          -0.8701   -3.9429    2.0781 H       1  UNL1        0.0230
     33 H          -1.4432   -4.1804   -0.1006 H       1  UNL1        0.0283
     34 H           0.2809   -4.4605   -0.3902 H       1  UNL1        0.0283
     35 H           0.6255   -2.0938   -0.8610 H       1  UNL1        0.0551
     36 H           0.0955   -3.4221   -2.6946 H       1  UNL1        0.0578
     37 H          -0.7303   -1.8498   -2.8701 H       1  UNL1        0.0578
     38 H          -1.8627   -4.4182   -2.3518 H       1  UNL1        0.2095
     39 H          -3.0537   -2.6930    0.1762 H       1  UNL1        0.1029
     40 H          -0.8629    1.8525    2.0517 H       1  UNL1        0.0625
     41 H          -1.1206    4.1802    2.6867 H       1  UNL1        0.0646
     42 H          -4.4500    4.5004    0.0199 H       1  UNL1        0.0646
     43 H          -4.1551    2.0995   -0.6111 H       1  UNL1        0.0625
     44 H          -0.9431    1.7855   -2.0115 H       1  UNL1        0.0641
     45 H           1.2028    2.9365   -2.6442 H       1  UNL1        0.0655
     46 H           5.5360    1.6133   -0.3859 H       1  UNL1        0.0854
     47 H           5.8017   -0.7718    2.4407 H       1  UNL1        0.1453
     48 H           6.1859   -0.0331    0.8687 H       1  UNL1        0.1453
@<TRIPOS>BOND
     1     1     2    1
     2     2     3    1
     3     3     4    1
     4     4     5    1
     5     3     6    1
     6     6     7   ar
     7     7     8   ar
     8     8     9   ar
     9     9    10    1
    10    10    11   ar
    11    11    12   ar
    12    12    13   ar
    13    13    14    1
    14    13    15   ar
    15    15    16   ar
    16     9    17   ar
    17    17    18    1
    18    18    19   ar
    19    19    20   ar
    20    20    21   ar
    21    21    22   ar
    22    22    23   ar
    23    23    24   ar
    24    24    25    1
    25    25    26   am
    26    25    27    2
    27    24    28   ar
    28    28    29   ar
    29    17     6   ar
    30    29    18   ar
    31    16    10   ar
    32    28    21   ar
    33     1    30    1
    34     1    31    1
    35     1    32    1
    36     2    33    1
    37     2    34    1
    38     3    35    1
    39     4    36    1
    40     4    37    1
    41     5    38    1
    42     7    39    1
    43    11    40    1
    44    12    41    1
    45    15    42    1
    46    16    43    1
    47    19    44    1
    48    20    45    1
    49    23    46    1
    50    26    47    1
    51    26    48    1
