
     RDKit          3D

 34 36  0  0  0  0  0  0  0  0999 V2000
   -3.1336    0.6895    0.5843 C   0  0  2  0  0  0  0  0  0  0  0  0
   -4.4838    1.2294    0.1766 C   0  0  0  0  0  0  0  0  0  0  0  0
   -5.0237    0.5344   -0.9510 N   0  0  0  0  0  0  0  0  0  0  0  0
   -2.2080    0.8645   -0.6113 C   0  0  0  0  0  0  0  0  0  0  0  0
   -0.8049    0.8000   -0.1746 N   0  0  0  0  0  0  0  0  0  0  0  0
   -0.0656   -0.3328    0.2531 C   0  0  0  0  0  0  0  0  0  0  0  0
   -0.7808   -1.4543    0.8241 C   0  0  0  0  0  0  0  0  0  0  0  0
    0.4996   -2.6708    1.2293 S   0  0  0  0  0  0  0  0  0  0  0  0
    1.8801   -1.6402    0.6293 C   0  0  0  0  0  0  0  0  0  0  0  0
    1.2901   -0.4774    0.1762 C   0  0  0  0  0  0  0  0  0  0  0  0
    2.1774    0.4478   -0.3257 C   0  0  0  0  0  0  0  0  0  0  0  0
    3.5093    0.1517   -0.3334 C   0  0  0  0  0  0  0  0  0  0  0  0
    4.3580    1.1342   -0.8568 O   0  0  0  0  0  0  0  0  0  0  0  0
    5.7440    0.9725   -0.9319 C   0  0  0  0  0  0  0  0  0  0  0  0
    4.1002   -0.9898    0.1103 C   0  0  0  0  0  0  0  0  0  0  0  0
    3.2369   -1.9309    0.6167 C   0  0  0  0  0  0  0  0  0  0  0  0
   -2.2089   -1.6786    1.0712 C   0  0  0  0  0  0  0  0  0  0  0  0
   -2.4359   -2.8706    1.4004 O   0  0  0  0  0  0  0  0  0  0  0  0
   -3.2445   -0.7129    0.9676 N   0  0  0  0  0  0  0  0  0  0  0  0
   -2.7213    1.2686    1.4130 H   0  0  0  0  0  0  0  0  0  0  0  0
   -4.3379    2.3182    0.0249 H   0  0  0  0  0  0  0  0  0  0  0  0
   -5.2059    1.1560    1.0248 H   0  0  0  0  0  0  0  0  0  0  0  0
   -5.2460    1.1386   -1.7665 H   0  0  0  0  0  0  0  0  0  0  0  0
   -4.6161   -0.3825   -1.1634 H   0  0  0  0  0  0  0  0  0  0  0  0
   -2.3921    1.7923   -1.1481 H   0  0  0  0  0  0  0  0  0  0  0  0
   -2.4028   -0.0220   -1.2576 H   0  0  0  0  0  0  0  0  0  0  0  0
   -0.2270    1.6944   -0.1616 H   0  0  0  0  0  0  0  0  0  0  0  0
    1.8444    1.4203   -0.7213 H   0  0  0  0  0  0  0  0  0  0  0  0
    6.1778    1.6819   -1.6980 H   0  0  0  0  0  0  0  0  0  0  0  0
    6.0489   -0.0578   -1.2238 H   0  0  0  0  0  0  0  0  0  0  0  0
    6.1862    1.2260    0.0542 H   0  0  0  0  0  0  0  0  0  0  0  0
    5.1247   -1.2588    0.1234 H   0  0  0  0  0  0  0  0  0  0  0  0
    3.5224   -2.8768    1.0056 H   0  0  0  0  0  0  0  0  0  0  0  0
   -4.1613   -1.1641    1.2178 H   0  0  0  0  0  0  0  0  0  0  0  0
  1  2  1  0
  2  3  1  0
  1  4  1  0
  4  5  1  0
  5  6  1  0
  6  7  2  0
  7  8  1  0
  8  9  1  0
  9 10  2  0
 10 11  1  0
 11 12  2  0
 12 13  1  0
 13 14  1  0
 12 15  1  0
 15 16  2  0
  7 17  1  0
 17 18  2  0
 17 19  1  0
 19  1  1  0
 10  6  1  0
 16  9  1  0
  1 20  1  1
  2 21  1  0
  2 22  1  0
  3 23  1  0
  3 24  1  0
  4 25  1  0
  4 26  1  0
  5 27  1  0
 11 28  1  0
 14 29  1  0
 14 30  1  0
 14 31  1  0
 15 32  1  0
 16 33  1  0
 19 34  1  0
M  END
$$$$
