
     RDKit          3D

 45 47  0  0  0  0  0  0  0  0999 V2000
   -2.4391   -0.4731   -2.0502 O   0  0  0  0  0  0  0  0  0  0  0  0
   -2.3085   -0.3841   -0.7694 C   0  0  0  0  0  0  0  0  0  0  0  0
   -3.4675   -0.4215   -0.0008 N   0  0  0  0  0  0  0  0  0  0  0  0
   -4.7566   -0.5843   -0.7131 C   0  0  0  0  0  0  0  0  0  0  0  0
   -5.5754    0.6302   -0.4281 C   0  0  0  0  0  0  0  0  0  0  0  0
   -5.5779    0.9756    0.9206 O   0  0  0  0  0  0  0  0  0  0  0  0
   -5.0788   -0.0562    1.7147 C   0  0  0  0  0  0  0  0  0  0  0  0
   -3.5972   -0.3111    1.4235 C   0  0  0  0  0  0  0  0  0  0  0  0
   -1.0112   -0.2588   -0.2963 N   0  0  0  0  0  0  0  0  0  0  0  0
    0.0781   -0.2099   -1.3152 C   0  0  0  0  0  0  0  0  0  0  0  0
    1.0433    0.8519   -0.8105 C   0  0  0  0  0  0  0  0  0  0  0  0
    1.7347    0.2474    0.3047 N   0  0  0  0  0  0  0  0  0  0  0  0
    3.1189    0.4438    0.5108 C   0  0  0  0  0  0  0  0  0  0  0  0
    3.5504    1.3275    1.5130 C   0  0  0  0  0  0  0  0  0  0  0  0
    4.8783    1.5858    1.7683 C   0  0  0  0  0  0  0  0  0  0  0  0
    5.8449    0.9712    1.0317 C   0  0  0  0  0  0  0  0  0  0  0  0
    7.5427    1.3164    1.3760 Cl  0  0  0  0  0  0  0  0  0  0  0  0
    5.4661    0.1054    0.0489 C   0  0  0  0  0  0  0  0  0  0  0  0
    4.1182   -0.1678   -0.2229 C   0  0  0  0  0  0  0  0  0  0  0  0
    3.8054   -1.1318   -1.2979 C   0  0  0  0  0  0  0  0  0  0  0  0
    3.4213   -0.4814   -2.4392 O   0  0  0  0  0  0  0  0  0  0  0  0
    0.9103   -0.5775    1.1754 C   0  0  0  0  0  0  0  0  0  0  0  0
   -0.5772   -0.1739    1.0897 C   0  0  0  0  0  0  0  0  0  0  0  0
   -4.6022   -0.6339   -1.8113 H   0  0  0  0  0  0  0  0  0  0  0  0
   -5.2702   -1.4781   -0.3195 H   0  0  0  0  0  0  0  0  0  0  0  0
   -6.6197    0.4415   -0.8060 H   0  0  0  0  0  0  0  0  0  0  0  0
   -5.1775    1.4871   -1.0051 H   0  0  0  0  0  0  0  0  0  0  0  0
   -5.6419   -1.0001    1.6229 H   0  0  0  0  0  0  0  0  0  0  0  0
   -5.1692    0.2742    2.7688 H   0  0  0  0  0  0  0  0  0  0  0  0
   -3.3845   -1.3196    1.8762 H   0  0  0  0  0  0  0  0  0  0  0  0
   -2.9801    0.4615    1.8791 H   0  0  0  0  0  0  0  0  0  0  0  0
   -0.3489    0.0395   -2.2856 H   0  0  0  0  0  0  0  0  0  0  0  0
    0.5925   -1.1777   -1.2502 H   0  0  0  0  0  0  0  0  0  0  0  0
    0.3755    1.6372   -0.3218 H   0  0  0  0  0  0  0  0  0  0  0  0
    1.6628    1.3093   -1.5715 H   0  0  0  0  0  0  0  0  0  0  0  0
    2.7810    1.8214    2.1056 H   0  0  0  0  0  0  0  0  0  0  0  0
    5.1800    2.2763    2.5512 H   0  0  0  0  0  0  0  0  0  0  0  0
    6.2388   -0.3834   -0.5384 H   0  0  0  0  0  0  0  0  0  0  0  0
    3.0901   -1.9159   -0.9674 H   0  0  0  0  0  0  0  0  0  0  0  0
    4.7330   -1.7117   -1.5532 H   0  0  0  0  0  0  0  0  0  0  0  0
    3.0861   -1.1250   -3.1172 H   0  0  0  0  0  0  0  0  0  0  0  0
    0.9191   -1.6168    0.7309 H   0  0  0  0  0  0  0  0  0  0  0  0
    1.2009   -0.5507    2.2241 H   0  0  0  0  0  0  0  0  0  0  0  0
   -0.6957    0.8539    1.4866 H   0  0  0  0  0  0  0  0  0  0  0  0
   -1.0934   -0.9129    1.7035 H   0  0  0  0  0  0  0  0  0  0  0  0
  1  2  2  0
  2  3  1  0
  3  4  1  0
  4  5  1  0
  5  6  1  0
  6  7  1  0
  7  8  1  0
  2  9  1  0
  9 10  1  0
 10 11  1  0
 11 12  1  0
 12 13  1  0
 13 14  2  0
 14 15  1  0
 15 16  2  0
 16 17  1  0
 16 18  1  0
 18 19  2  0
 19 20  1  0
 20 21  1  0
 12 22  1  0
 22 23  1  0
  8  3  1  0
 23  9  1  0
 19 13  1  0
  4 24  1  0
  4 25  1  0
  5 26  1  0
  5 27  1  0
  7 28  1  0
  7 29  1  0
  8 30  1  0
  8 31  1  0
 10 32  1  0
 10 33  1  0
 11 34  1  0
 11 35  1  0
 14 36  1  0
 15 37  1  0
 18 38  1  0
 20 39  1  0
 20 40  1  0
 21 41  1  0
 22 42  1  0
 22 43  1  0
 23 44  1  0
 23 45  1  0
M  END
$$$$
