@<TRIPOS>MOLECULE
*****
 45 47 0 0 0
SMALL
GASTEIGER

@<TRIPOS>ATOM
      1 O          -2.4391   -0.4731   -2.0502 O.2     1  UNL1       -0.2524
      2 C          -2.3085   -0.3841   -0.7694 C.2     1  UNL1        0.3050
      3 N          -3.4675   -0.4215   -0.0008 N.am    1  UNL1       -0.2811
      4 C          -4.7566   -0.5843   -0.7131 C.3     1  UNL1        0.0396
      5 C          -5.5754    0.6302   -0.4281 C.3     1  UNL1        0.0635
      6 O          -5.5779    0.9756    0.9206 O.3     1  UNL1       -0.3767
      7 C          -5.0788   -0.0562    1.7147 C.3     1  UNL1        0.0635
      8 C          -3.5972   -0.3111    1.4235 C.3     1  UNL1        0.0396
      9 N          -1.0112   -0.2588   -0.2963 N.am    1  UNL1       -0.2825
     10 C           0.0781   -0.2099   -1.3152 C.3     1  UNL1        0.0319
     11 C           1.0433    0.8519   -0.8105 C.3     1  UNL1        0.0281
     12 N           1.7347    0.2474    0.3047 N.pl3   1  UNL1       -0.3266
     13 C           3.1189    0.4438    0.5108 C.ar    1  UNL1        0.0353
     14 C           3.5504    1.3275    1.5130 C.ar    1  UNL1       -0.0389
     15 C           4.8783    1.5858    1.7683 C.ar    1  UNL1       -0.0416
     16 C           5.8449    0.9712    1.0317 C.ar    1  UNL1        0.0414
     17 CL          7.5427    1.3164    1.3760 Cl      1  UNL1       -0.0835
     18 C           5.4661    0.1054    0.0489 C.ar    1  UNL1       -0.0363
     19 C           4.1182   -0.1678   -0.2229 C.ar    1  UNL1        0.0002
     20 C           3.8054   -1.1318   -1.2979 C.3     1  UNL1        0.0710
     21 O           3.4213   -0.4814   -2.4392 O.3     1  UNL1       -0.3904
     22 C           0.9103   -0.5775    1.1754 C.3     1  UNL1        0.0281
     23 C          -0.5772   -0.1739    1.0897 C.3     1  UNL1        0.0319
     24 H          -4.6022   -0.6339   -1.8113 H       1  UNL1        0.0488
     25 H          -5.2702   -1.4781   -0.3195 H       1  UNL1        0.0488
     26 H          -6.6197    0.4415   -0.8060 H       1  UNL1        0.0575
     27 H          -5.1775    1.4871   -1.0051 H       1  UNL1        0.0575
     28 H          -5.6419   -1.0001    1.6229 H       1  UNL1        0.0575
     29 H          -5.1692    0.2742    2.7688 H       1  UNL1        0.0575
     30 H          -3.3845   -1.3196    1.8762 H       1  UNL1        0.0488
     31 H          -2.9801    0.4615    1.8791 H       1  UNL1        0.0488
     32 H          -0.3489    0.0395   -2.2856 H       1  UNL1        0.0480
     33 H           0.5925   -1.1777   -1.2502 H       1  UNL1        0.0480
     34 H           0.3755    1.6372   -0.3218 H       1  UNL1        0.0479
     35 H           1.6628    1.3093   -1.5715 H       1  UNL1        0.0479
     36 H           2.7810    1.8214    2.1056 H       1  UNL1        0.0637
     37 H           5.1800    2.2763    2.5512 H       1  UNL1        0.0633
     38 H           6.2388   -0.3834   -0.5384 H       1  UNL1        0.0636
     39 H           3.0901   -1.9159   -0.9674 H       1  UNL1        0.0608
     40 H           4.7330   -1.7117   -1.5532 H       1  UNL1        0.0608
     41 H           3.0861   -1.1250   -3.1172 H       1  UNL1        0.2098
     42 H           0.9191   -1.6168    0.7309 H       1  UNL1        0.0479
     43 H           1.2009   -0.5507    2.2241 H       1  UNL1        0.0479
     44 H          -0.6957    0.8539    1.4866 H       1  UNL1        0.0480
     45 H          -1.0934   -0.9129    1.7035 H       1  UNL1        0.0480
@<TRIPOS>BOND
     1     1     2    2
     2     2     3   am
     3     3     4    1
     4     4     5    1
     5     5     6    1
     6     6     7    1
     7     7     8    1
     8     2     9   am
     9     9    10    1
    10    10    11    1
    11    11    12    1
    12    12    13    1
    13    13    14   ar
    14    14    15   ar
    15    15    16   ar
    16    16    17    1
    17    16    18   ar
    18    18    19   ar
    19    19    20    1
    20    20    21    1
    21    12    22    1
    22    22    23    1
    23     8     3    1
    24    23     9    1
    25    19    13   ar
    26     4    24    1
    27     4    25    1
    28     5    26    1
    29     5    27    1
    30     7    28    1
    31     7    29    1
    32     8    30    1
    33     8    31    1
    34    10    32    1
    35    10    33    1
    36    11    34    1
    37    11    35    1
    38    14    36    1
    39    15    37    1
    40    18    38    1
    41    20    39    1
    42    20    40    1
    43    21    41    1
    44    22    42    1
    45    22    43    1
    46    23    44    1
    47    23    45    1
