@<TRIPOS>MOLECULE
*****
 36 38 0 0 0
SMALL
GASTEIGER

@<TRIPOS>ATOM
      1 N           5.7717    2.1310    2.7540 N.pl3   1  UNL1       -0.3262
      2 C           4.8254    1.2991    2.0986 C.ar    1  UNL1        0.2327
      3 N           3.8144    1.6971    1.3057 N.ar    1  UNL1       -0.1943
      4 C           3.1506    0.5877    0.8843 C.ar    1  UNL1        0.1582
      5 C           2.0472    0.4149    0.0632 C.ar    1  UNL1       -0.0095
      6 C           1.5602   -0.8547   -0.2126 C.ar    1  UNL1       -0.0114
      7 C           0.4010   -1.0156   -1.0746 C.ar    1  UNL1        0.0022
      8 C           0.2903   -2.1421   -1.8542 C.ar    1  UNL1        0.0354
      9 N          -0.7680   -2.2974   -2.6450 N.ar    1  UNL1       -0.2607
     10 C          -1.7321   -1.3620   -2.6894 C.ar    1  UNL1        0.0539
     11 C          -1.6872   -0.2039   -1.9330 C.ar    1  UNL1        0.1238
     12 S          -2.9772    0.9909   -2.0267 S.O2    1  UNL1        0.0601
     13 O          -2.4545    2.3822   -1.9238 O.2     1  UNL1       -0.1530
     14 O          -3.5860    0.8343   -3.4016 O.2     1  UNL1       -0.1530
     15 N          -4.1610    0.6146   -0.8615 N.3     1  UNL1       -0.1813
     16 C          -3.6901    0.6438    0.4882 C.3     1  UNL1        0.1126
     17 C          -4.8870    0.2826    1.3741 C.3     1  UNL1        0.4037
     18 F          -5.3559   -0.9862    1.0415 F       1  UNL1       -0.1692
     19 F          -5.8925    1.1866    1.1310 F       1  UNL1       -0.1692
     20 F          -4.4907    0.2675    2.6999 F       1  UNL1       -0.1692
     21 C          -0.5894   -0.0377   -1.1096 C.ar    1  UNL1       -0.0247
     22 C           2.2321   -1.9074    0.3714 C.ar    1  UNL1       -0.0356
     23 C           3.3324   -1.7354    1.1902 C.ar    1  UNL1        0.0321
     24 N           3.7681   -0.4906    1.4291 N.ar    1  UNL1       -0.2185
     25 N           4.7677   -0.0501    2.1526 N.ar    1  UNL1       -0.1293
     26 H           6.2812    2.8708    2.2349 H       1  UNL1        0.1452
     27 H           5.9741    2.0182    3.7624 H       1  UNL1        0.1452
     28 H           1.5746    1.2702   -0.3563 H       1  UNL1        0.0661
     29 H           1.0590   -2.9039   -1.8289 H       1  UNL1        0.0836
     30 H          -2.5709   -1.5000   -3.3252 H       1  UNL1        0.0849
     31 H          -5.0636    1.1152   -1.0073 H       1  UNL1        0.1483
     32 H          -2.9069   -0.1091    0.6107 H       1  UNL1        0.0530
     33 H          -3.2840    1.6148    0.8098 H       1  UNL1        0.0530
     34 H          -0.5013    0.8409   -0.5004 H       1  UNL1        0.0644
     35 H           1.8854   -2.9118    0.1823 H       1  UNL1        0.0639
     36 H           3.8627   -2.5545    1.6507 H       1  UNL1        0.0831
@<TRIPOS>BOND
     1     1     2    1
     2     2     3   ar
     3     3     4   ar
     4     4     5   ar
     5     5     6   ar
     6     6     7    1
     7     7     8   ar
     8     8     9   ar
     9     9    10   ar
    10    10    11   ar
    11    11    12    1
    12    12    13    2
    13    12    14    2
    14    12    15    1
    15    15    16    1
    16    16    17    1
    17    17    18    1
    18    17    19    1
    19    17    20    1
    20    11    21   ar
    21     6    22   ar
    22    22    23   ar
    23    23    24   ar
    24    24    25   ar
    25    25     2   ar
    26    24     4   ar
    27    21     7   ar
    28     1    26    1
    29     1    27    1
    30     5    28    1
    31     8    29    1
    32    10    30    1
    33    15    31    1
    34    16    32    1
    35    16    33    1
    36    21    34    1
    37    22    35    1
    38    23    36    1
