
     RDKit          3D

 38 38  0  0  0  0  0  0  0  0999 V2000
   -1.4797   -2.9378    1.1692 C   0  0  0  0  0  0  0  0  0  0  0  0
   -1.0464   -1.8956    0.1371 C   0  0  0  0  0  0  0  0  0  0  0  0
   -1.7969   -0.6129    0.3468 C   0  0  0  0  0  0  0  0  0  0  0  0
   -1.4239    0.3708   -0.5831 N   0  0  0  0  0  0  0  0  0  0  0  0
   -2.3882    0.7721   -1.5360 C   0  0  0  0  0  0  0  0  0  0  0  0
   -3.6221    1.4312   -1.0355 C   0  0  0  0  0  0  0  0  0  0  0  0
   -3.4079    2.6990   -0.2752 C   0  0  0  0  0  0  0  0  0  0  0  0
   -0.2020    1.4511   -0.1761 S   0  0  0  0  0  0  0  0  0  0  0  0
   -0.6144    2.2845    1.0297 O   0  0  0  0  0  0  0  0  0  0  0  0
   -0.0599    2.4677   -1.3006 O   0  0  0  0  0  0  0  0  0  0  0  0
    1.3363    0.6778    0.1288 C   0  0  0  0  0  0  0  0  0  0  0  0
    2.1282    0.5003   -0.9946 C   0  0  0  0  0  0  0  0  0  0  0  0
    3.3769   -0.0909   -0.9255 C   0  0  0  0  0  0  0  0  0  0  0  0
    3.8398   -0.5115    0.2914 C   0  0  0  0  0  0  0  0  0  0  0  0
    3.0701   -0.3457    1.4229 C   0  0  0  0  0  0  0  0  0  0  0  0
    1.8262    0.2443    1.3474 C   0  0  0  0  0  0  0  0  0  0  0  0
    5.1293   -1.1523    0.5414 C   0  0  0  0  0  0  0  0  0  0  0  0
    6.1255   -1.4614   -0.3645 O   0  0  0  0  0  0  0  0  0  0  0  0
    5.5896   -1.5550    1.6593 O   0  0  0  0  0  0  0  0  0  0  0  0
   -1.5979   -2.4485    2.1623 H   0  0  0  0  0  0  0  0  0  0  0  0
   -2.4632   -3.3621    0.9105 H   0  0  0  0  0  0  0  0  0  0  0  0
   -0.7402   -3.7483    1.2538 H   0  0  0  0  0  0  0  0  0  0  0  0
   -1.3336   -2.3001   -0.8695 H   0  0  0  0  0  0  0  0  0  0  0  0
    0.0277   -1.6999    0.2136 H   0  0  0  0  0  0  0  0  0  0  0  0
   -2.8804   -0.8140    0.4444 H   0  0  0  0  0  0  0  0  0  0  0  0
   -1.4954   -0.2579    1.3760 H   0  0  0  0  0  0  0  0  0  0  0  0
   -2.6703   -0.0530   -2.2215 H   0  0  0  0  0  0  0  0  0  0  0  0
   -1.8848    1.5241   -2.2113 H   0  0  0  0  0  0  0  0  0  0  0  0
   -4.2340    1.6980   -1.9315 H   0  0  0  0  0  0  0  0  0  0  0  0
   -4.2830    0.7685   -0.4424 H   0  0  0  0  0  0  0  0  0  0  0  0
   -3.3488    2.4354    0.8164 H   0  0  0  0  0  0  0  0  0  0  0  0
   -4.3313    3.3386   -0.3675 H   0  0  0  0  0  0  0  0  0  0  0  0
   -2.5724    3.3216   -0.5978 H   0  0  0  0  0  0  0  0  0  0  0  0
    1.8344    0.8047   -1.9882 H   0  0  0  0  0  0  0  0  0  0  0  0
    4.0309   -0.2500   -1.7787 H   0  0  0  0  0  0  0  0  0  0  0  0
    3.3380   -0.6413    2.4347 H   0  0  0  0  0  0  0  0  0  0  0  0
    1.1543    0.4152    2.1804 H   0  0  0  0  0  0  0  0  0  0  0  0
    7.0698   -1.0670   -0.2667 H   0  0  0  0  0  0  0  0  0  0  0  0
  1  2  1  0
  2  3  1  0
  3  4  1  0
  4  5  1  0
  5  6  1  0
  6  7  1  0
  4  8  1  0
  8  9  2  0
  8 10  2  0
  8 11  1  0
 11 12  2  0
 12 13  1  0
 13 14  2  0
 14 15  1  0
 15 16  2  0
 14 17  1  0
 17 18  1  0
 17 19  2  0
 16 11  1  0
  1 20  1  0
  1 21  1  0
  1 22  1  0
  2 23  1  0
  2 24  1  0
  3 25  1  0
  3 26  1  0
  5 27  1  0
  5 28  1  0
  6 29  1  0
  6 30  1  0
  7 31  1  0
  7 32  1  0
  7 33  1  0
 12 34  1  0
 13 35  1  0
 15 36  1  0
 16 37  1  0
 18 38  1  0
M  END
$$$$
