@<TRIPOS>MOLECULE
*****
 66 70 0 0 0
SMALL
GASTEIGER

@<TRIPOS>ATOM
      1 C           0.6606    0.6974    1.0490 C.3     1  UNL1       -0.0383
      2 C           0.3686   -0.5078    0.1389 C.3     1  UNL1        0.0930
      3 C           0.1524   -1.6647    1.1106 C.3     1  UNL1       -0.0383
      4 C          -0.9342   -0.2923   -0.5370 C.2     1  UNL1        0.2331
      5 O          -0.9667   -0.3262   -1.7908 O.2     1  UNL1       -0.2738
      6 N          -2.1251   -0.0521    0.2032 N.am    1  UNL1       -0.3104
      7 C          -3.4046    0.1601   -0.4338 C.3     1  UNL1        0.0290
      8 C          -4.3033   -0.9840    0.0019 C.3     1  UNL1       -0.0195
      9 C          -4.5809   -0.9516    1.4817 C.3     1  UNL1       -0.0455
     10 C          -5.2660    0.3356    1.8319 C.3     1  UNL1       -0.0378
     11 C          -4.3766    1.4803    1.4573 C.3     1  UNL1       -0.0455
     12 C          -4.0716    1.4368   -0.0227 C.3     1  UNL1       -0.0195
     13 C          -5.3967    1.5172   -0.7590 C.3     1  UNL1       -0.0195
     14 C          -6.2965    0.3484   -0.4231 C.3     1  UNL1        0.0670
     15 O          -7.4591    0.4609   -1.1464 O.3     1  UNL1       -0.3885
     16 C          -6.5746    0.3989    1.0588 C.3     1  UNL1       -0.0211
     17 C          -5.6078   -0.9558   -0.7653 C.3     1  UNL1       -0.0195
     18 N           1.3737   -0.7163   -0.7963 N.3     1  UNL1       -0.2864
     19 C           1.6999    0.2840   -1.7204 C.3     1  UNL1        0.0157
     20 C           3.1583    0.6729   -1.7431 C.3     1  UNL1        0.0263
     21 N           4.0264   -0.3213   -1.1450 N.pl3   1  UNL1       -0.3127
     22 C           5.3877    0.0661   -0.9666 C.ar    1  UNL1        0.1213
     23 C           6.2822   -0.8329   -0.4411 C.ar    1  UNL1       -0.0212
     24 C           7.5996   -0.4636   -0.2652 C.ar    1  UNL1       -0.0454
     25 C           8.0312    0.7950   -0.6093 C.ar    1  UNL1        0.0730
     26 C           9.4439    1.1798   -0.4168 C.3     1  UNL1        0.4188
     27 F          10.2697    0.1318   -0.8138 F       1  UNL1       -0.1658
     28 F           9.6682    1.3870    0.9446 F       1  UNL1       -0.1658
     29 F           9.7250    2.3440   -1.1024 F       1  UNL1       -0.1658
     30 C           7.1137    1.6615   -1.1287 C.ar    1  UNL1        0.0413
     31 N           5.8452    1.2967   -1.2950 N.ar    1  UNL1       -0.2398
     32 C           3.6195   -1.6224   -0.7349 C.3     1  UNL1        0.0263
     33 C           2.1536   -1.8779   -0.8043 C.3     1  UNL1        0.0157
     34 H           0.5972    1.6403    0.4841 H       1  UNL1        0.0252
     35 H          -0.1152    0.6996    1.8332 H       1  UNL1        0.0252
     36 H           1.6345    0.5308    1.5177 H       1  UNL1        0.0252
     37 H          -0.6451   -1.3265    1.8054 H       1  UNL1        0.0252
     38 H          -0.1993   -2.5729    0.6264 H       1  UNL1        0.0252
     39 H           1.0548   -1.8180    1.7478 H       1  UNL1        0.0252
     40 H          -2.1064   -0.0218    1.2465 H       1  UNL1        0.1490
     41 H          -3.3361    0.1201   -1.5297 H       1  UNL1        0.0504
     42 H          -3.7845   -1.9297   -0.2487 H       1  UNL1        0.0320
     43 H          -3.6456   -1.0892    2.0491 H       1  UNL1        0.0271
     44 H          -5.2359   -1.8216    1.7019 H       1  UNL1        0.0271
     45 H          -5.4989    0.4235    2.9012 H       1  UNL1        0.0302
     46 H          -3.4341    1.4061    2.0314 H       1  UNL1        0.0271
     47 H          -4.8972    2.4494    1.6438 H       1  UNL1        0.0271
     48 H          -3.5047    2.3376   -0.2747 H       1  UNL1        0.0320
     49 H          -5.2595    1.6477   -1.8583 H       1  UNL1        0.0296
     50 H          -5.9103    2.4321   -0.3835 H       1  UNL1        0.0296
     51 H          -8.1252   -0.2162   -0.8118 H       1  UNL1        0.2102
     52 H          -7.1510   -0.5141    1.3325 H       1  UNL1        0.0296
     53 H          -7.1406    1.3242    1.2844 H       1  UNL1        0.0296
     54 H          -6.2536   -1.7646   -0.3678 H       1  UNL1        0.0296
     55 H          -5.4053   -1.0176   -1.8354 H       1  UNL1        0.0296
     56 H           1.0950    1.1813   -1.6259 H       1  UNL1        0.0442
     57 H           1.4847   -0.1207   -2.7550 H       1  UNL1        0.0442
     58 H           3.5209    0.8451   -2.7764 H       1  UNL1        0.0477
     59 H           3.3520    1.6287   -1.1878 H       1  UNL1        0.0477
     60 H           5.9894   -1.8539   -0.1492 H       1  UNL1        0.0652
     61 H           8.3047   -1.1794    0.1514 H       1  UNL1        0.0625
     62 H           7.4298    2.6588   -1.4073 H       1  UNL1        0.0836
     63 H           4.0043   -1.7923    0.2935 H       1  UNL1        0.0477
     64 H           4.1714   -2.3577   -1.3746 H       1  UNL1        0.0477
     65 H           1.8338   -2.5966   -0.0276 H       1  UNL1        0.0442
     66 H           1.9606   -2.4176   -1.7802 H       1  UNL1        0.0442
@<TRIPOS>BOND
     1     1     2    1
     2     2     3    1
     3     2     4    1
     4     4     5    2
     5     4     6   am
     6     6     7    1
     7     7     8    1
     8     8     9    1
     9     9    10    1
    10    10    11    1
    11    11    12    1
    12    12    13    1
    13    13    14    1
    14    14    15    1
    15    14    16    1
    16    14    17    1
    17     2    18    1
    18    18    19    1
    19    19    20    1
    20    20    21    1
    21    21    22    1
    22    22    23   ar
    23    23    24   ar
    24    24    25   ar
    25    25    26    1
    26    26    27    1
    27    26    28    1
    28    26    29    1
    29    25    30   ar
    30    30    31   ar
    31    21    32    1
    32    32    33    1
    33    12     7    1
    34    33    18    1
    35    17     8    1
    36    31    22   ar
    37    16    10    1
    38     1    34    1
    39     1    35    1
    40     1    36    1
    41     3    37    1
    42     3    38    1
    43     3    39    1
    44     6    40    1
    45     7    41    1
    46     8    42    1
    47     9    43    1
    48     9    44    1
    49    10    45    1
    50    11    46    1
    51    11    47    1
    52    12    48    1
    53    13    49    1
    54    13    50    1
    55    15    51    1
    56    16    52    1
    57    16    53    1
    58    17    54    1
    59    17    55    1
    60    19    56    1
    61    19    57    1
    62    20    58    1
    63    20    59    1
    64    23    60    1
    65    24    61    1
    66    30    62    1
    67    32    63    1
    68    32    64    1
    69    33    65    1
    70    33    66    1
