
     RDKit          3D

 39 40  0  0  0  0  0  0  0  0999 V2000
    2.5808    2.9507    0.5645 C   0  0  0  0  0  0  0  0  0  0  0  0
    1.5807    1.8272    0.2494 C   0  0  0  0  0  0  0  0  0  0  0  0
    2.3608    0.5463    0.1963 C   0  0  0  0  0  0  0  0  0  0  0  0
    3.7128    0.5367    0.4147 C   0  0  0  0  0  0  0  0  0  0  0  0
    4.4561   -0.6221    0.3822 C   0  0  0  0  0  0  0  0  0  0  0  0
    6.1813   -0.6171    0.6598 Cl  0  0  0  0  0  0  0  0  0  0  0  0
    3.8360   -1.8272    0.1226 C   0  0  0  0  0  0  0  0  0  0  0  0
    2.4771   -1.8466   -0.1017 C   0  0  0  0  0  0  0  0  0  0  0  0
    1.7198   -0.6861   -0.0712 C   0  0  0  0  0  0  0  0  0  0  0  0
    0.4098   -0.6598   -0.2794 O   0  0  0  0  0  0  0  0  0  0  0  0
   -0.6619   -1.4447   -0.4486 C   0  0  0  0  0  0  0  0  0  0  0  0
   -0.7186   -2.8040   -0.2126 C   0  0  0  0  0  0  0  0  0  0  0  0
   -1.8572   -3.5783   -0.4299 C   0  0  0  0  0  0  0  0  0  0  0  0
   -2.9755   -3.0021   -0.8912 N   0  0  0  0  0  0  0  0  0  0  0  0
   -2.9833   -1.7080   -1.1328 C   0  0  0  0  0  0  0  0  0  0  0  0
   -1.8837   -0.9122   -0.9307 C   0  0  0  0  0  0  0  0  0  0  0  0
   -1.9743    0.5441   -1.1105 C   0  0  0  0  0  0  0  0  0  0  0  0
   -2.5788    1.2254   -0.0215 N   0  0  0  0  0  0  0  0  0  0  0  0
   -2.2306    0.9021    1.2921 C   0  0  0  0  0  0  0  0  0  0  0  0
   -3.9735    1.5513   -0.2543 C   0  0  0  0  0  0  0  0  0  0  0  0
    3.2086    3.1346   -0.3167 H   0  0  0  0  0  0  0  0  0  0  0  0
    3.1052    2.7839    1.5121 H   0  0  0  0  0  0  0  0  0  0  0  0
    1.9548    3.8628    0.6942 H   0  0  0  0  0  0  0  0  0  0  0  0
    1.1864    2.0348   -0.7529 H   0  0  0  0  0  0  0  0  0  0  0  0
    0.8555    1.8079    1.0667 H   0  0  0  0  0  0  0  0  0  0  0  0
    4.2790    1.4434    0.6219 H   0  0  0  0  0  0  0  0  0  0  0  0
    4.4303   -2.7419    0.1010 H   0  0  0  0  0  0  0  0  0  0  0  0
    2.0383   -2.8277   -0.3408 H   0  0  0  0  0  0  0  0  0  0  0  0
    0.1045   -3.3570    0.1861 H   0  0  0  0  0  0  0  0  0  0  0  0
   -1.8376   -4.6398   -0.2249 H   0  0  0  0  0  0  0  0  0  0  0  0
   -3.9155   -1.2670   -1.5083 H   0  0  0  0  0  0  0  0  0  0  0  0
   -2.4889    0.7980   -2.0469 H   0  0  0  0  0  0  0  0  0  0  0  0
   -0.9087    0.9333   -1.1717 H   0  0  0  0  0  0  0  0  0  0  0  0
   -1.1890    1.1490    1.5110 H   0  0  0  0  0  0  0  0  0  0  0  0
   -2.8229    1.5808    1.9890 H   0  0  0  0  0  0  0  0  0  0  0  0
   -2.5063   -0.1266    1.6179 H   0  0  0  0  0  0  0  0  0  0  0  0
   -4.1117    2.6225   -0.0027 H   0  0  0  0  0  0  0  0  0  0  0  0
   -4.6591    0.9763    0.4040 H   0  0  0  0  0  0  0  0  0  0  0  0
   -4.2005    1.4569   -1.3361 H   0  0  0  0  0  0  0  0  0  0  0  0
  1  2  1  0
  2  3  1  0
  3  4  2  0
  4  5  1  0
  5  6  1  0
  5  7  2  0
  7  8  1  0
  8  9  2  0
  9 10  1  0
 10 11  1  0
 11 12  2  0
 12 13  1  0
 13 14  2  0
 14 15  1  0
 15 16  2  0
 16 17  1  0
 17 18  1  0
 18 19  1  0
 18 20  1  0
  9  3  1  0
 16 11  1  0
  1 21  1  0
  1 22  1  0
  1 23  1  0
  2 24  1  0
  2 25  1  0
  4 26  1  0
  7 27  1  0
  8 28  1  0
 12 29  1  0
 13 30  1  0
 15 31  1  0
 17 32  1  0
 17 33  1  0
 19 34  1  0
 19 35  1  0
 19 36  1  0
 20 37  1  0
 20 38  1  0
 20 39  1  0
M  END
$$$$
