@<TRIPOS>MOLECULE
*****
 39 40 0 0 0
SMALL
GASTEIGER

@<TRIPOS>ATOM
      1 C           2.5808    2.9507    0.5645 C.3     1  UNL1       -0.0611
      2 C           1.5807    1.8272    0.2494 C.3     1  UNL1       -0.0270
      3 C           2.3608    0.5463    0.1963 C.ar    1  UNL1       -0.0040
      4 C           3.7128    0.5367    0.4147 C.ar    1  UNL1       -0.0367
      5 C           4.4561   -0.6221    0.3822 C.ar    1  UNL1        0.0415
      6 CL          6.1813   -0.6171    0.6598 Cl      1  UNL1       -0.0835
      7 C           3.8360   -1.8272    0.1226 C.ar    1  UNL1       -0.0399
      8 C           2.4771   -1.8466   -0.1017 C.ar    1  UNL1       -0.0177
      9 C           1.7198   -0.6861   -0.0712 C.ar    1  UNL1        0.1317
     10 O           0.4098   -0.6598   -0.2794 O.3     1  UNL1       -0.4553
     11 C          -0.6619   -1.4447   -0.4486 C.ar    1  UNL1        0.1357
     12 C          -0.7186   -2.8040   -0.2126 C.ar    1  UNL1       -0.0009
     13 C          -1.8572   -3.5783   -0.4299 C.ar    1  UNL1        0.0310
     14 N          -2.9755   -3.0021   -0.8912 N.ar    1  UNL1       -0.2627
     15 C          -2.9833   -1.7080   -1.1328 C.ar    1  UNL1        0.0355
     16 C          -1.8837   -0.9122   -0.9307 C.ar    1  UNL1        0.0269
     17 C          -1.9743    0.5441   -1.1105 C.3     1  UNL1        0.0284
     18 N          -2.5788    1.2254   -0.0215 N.3     1  UNL1       -0.3040
     19 C          -2.2306    0.9021    1.2921 C.3     1  UNL1       -0.0127
     20 C          -3.9735    1.5513   -0.2543 C.3     1  UNL1       -0.0127
     21 H           3.2086    3.1346   -0.3167 H       1  UNL1        0.0233
     22 H           3.1052    2.7839    1.5121 H       1  UNL1        0.0233
     23 H           1.9548    3.8628    0.6942 H       1  UNL1        0.0233
     24 H           1.1864    2.0348   -0.7529 H       1  UNL1        0.0312
     25 H           0.8555    1.8079    1.0667 H       1  UNL1        0.0312
     26 H           4.2790    1.4434    0.6219 H       1  UNL1        0.0636
     27 H           4.4303   -2.7419    0.1010 H       1  UNL1        0.0633
     28 H           2.0383   -2.8277   -0.3408 H       1  UNL1        0.0655
     29 H           0.1045   -3.3570    0.1861 H       1  UNL1        0.0670
     30 H          -1.8376   -4.6398   -0.2249 H       1  UNL1        0.0831
     31 H          -3.9155   -1.2670   -1.5083 H       1  UNL1        0.0834
     32 H          -2.4889    0.7980   -2.0469 H       1  UNL1        0.0477
     33 H          -0.9087    0.9333   -1.1717 H       1  UNL1        0.0477
     34 H          -1.1890    1.1490    1.5110 H       1  UNL1        0.0391
     35 H          -2.8229    1.5808    1.9890 H       1  UNL1        0.0391
     36 H          -2.5063   -0.1266    1.6179 H       1  UNL1        0.0391
     37 H          -4.1117    2.6225   -0.0027 H       1  UNL1        0.0391
     38 H          -4.6591    0.9763    0.4040 H       1  UNL1        0.0391
     39 H          -4.2005    1.4569   -1.3361 H       1  UNL1        0.0391
@<TRIPOS>BOND
     1     1     2    1
     2     2     3    1
     3     3     4   ar
     4     4     5   ar
     5     5     6    1
     6     5     7   ar
     7     7     8   ar
     8     8     9   ar
     9     9    10    1
    10    10    11    1
    11    11    12   ar
    12    12    13   ar
    13    13    14   ar
    14    14    15   ar
    15    15    16   ar
    16    16    17    1
    17    17    18    1
    18    18    19    1
    19    18    20    1
    20     9     3   ar
    21    16    11   ar
    22     1    21    1
    23     1    22    1
    24     1    23    1
    25     2    24    1
    26     2    25    1
    27     4    26    1
    28     7    27    1
    29     8    28    1
    30    12    29    1
    31    13    30    1
    32    15    31    1
    33    17    32    1
    34    17    33    1
    35    19    34    1
    36    19    35    1
    37    19    36    1
    38    20    37    1
    39    20    38    1
    40    20    39    1
