@<TRIPOS>MOLECULE
*****
 49 54 0 0 0
SMALL
GASTEIGER

@<TRIPOS>ATOM
      1 C          -8.1405   -1.0543    0.1328 C.3     1  UNL1        0.0085
      2 N          -6.9839   -0.2417   -0.2130 N.am    1  UNL1       -0.2674
      3 C          -7.0825    0.8910   -1.0599 C.2     1  UNL1        0.2573
      4 O          -8.2193    1.3008   -1.3859 O.2     1  UNL1       -0.2715
      5 C          -5.9002    1.6186   -1.5858 C.3     1  UNL1        0.1658
      6 O          -4.7734    1.3290   -0.8310 O.3     1  UNL1       -0.4802
      7 C          -4.6643    0.2342   -0.0061 C.ar    1  UNL1        0.1531
      8 C          -5.7121   -0.5744    0.3329 C.ar    1  UNL1        0.0970
      9 C          -5.4799   -1.6439    1.1672 C.ar    1  UNL1        0.0532
     10 N          -4.2271   -1.8836    1.6400 N.ar    1  UNL1       -0.2529
     11 C          -3.1647   -1.1097    1.3315 C.ar    1  UNL1        0.0747
     12 C          -1.8990   -1.3120    1.8120 C.ar    1  UNL1       -0.0346
     13 C          -0.8496   -0.4594    1.4780 C.ar    1  UNL1       -0.0458
     14 C          -1.0243    0.6113    0.6616 C.ar    1  UNL1        0.0164
     15 S           0.1999    1.8182    0.1958 S.3     1  UNL1       -0.0496
     16 C           1.1365    1.2639   -1.2014 C.ar    1  UNL1        0.2007
     17 N           0.6564    1.2831   -2.4794 N.ar    1  UNL1       -0.1214
     18 N           1.6024    0.8932   -3.3030 N.ar    1  UNL1       -0.1256
     19 C           2.6790    0.6299   -2.5443 C.ar    1  UNL1        0.1972
     20 C           3.9433    0.2297   -2.9725 C.ar    1  UNL1        0.1684
     21 F           4.2154   -0.0022   -4.2689 F       1  UNL1       -0.2016
     22 C           4.9356    0.0656   -2.0426 C.ar    1  UNL1       -0.0135
     23 C           4.6709    0.2994   -0.6826 C.ar    1  UNL1        0.0045
     24 C           5.7700    0.1723    0.2782 C.ar    1  UNL1        0.0210
     25 C           5.9340    0.8797    1.4520 C.ar    1  UNL1        0.0571
     26 N           7.0793    0.4892    2.0259 N.ar    1  UNL1       -0.1793
     27 N           7.6651   -0.4341    1.2858 N.ar    1  UNL1       -0.2739
     28 C           8.9328   -1.0617    1.6126 C.3     1  UNL1        0.0302
     29 C           6.8733   -0.6419    0.2052 C.ar    1  UNL1        0.0329
     30 C           3.4060    0.6853   -0.3323 C.ar    1  UNL1        0.0216
     31 N           2.4086    0.8547   -1.2354 N.ar    1  UNL1       -0.2744
     32 C          -2.3345    0.7915    0.1808 C.ar    1  UNL1       -0.0351
     33 C          -3.3771   -0.0315    0.4957 C.ar    1  UNL1        0.0450
     34 H          -7.9758   -2.1160   -0.0877 H       1  UNL1        0.0433
     35 H          -8.3142   -0.8508    1.2261 H       1  UNL1        0.0433
     36 H          -9.0323   -0.7250   -0.4449 H       1  UNL1        0.0433
     37 H          -5.7138    1.3065   -2.6401 H       1  UNL1        0.0795
     38 H          -6.0786    2.7099   -1.5748 H       1  UNL1        0.0795
     39 H          -6.3127   -2.2711    1.4228 H       1  UNL1        0.0850
     40 H          -1.7123   -2.1680    2.4755 H       1  UNL1        0.0639
     41 H           0.1353   -0.6625    1.8839 H       1  UNL1        0.0629
     42 H           5.9350   -0.2389   -2.2822 H       1  UNL1        0.0654
     43 H           5.2089    1.6177    1.7896 H       1  UNL1        0.0854
     44 H           9.1553   -0.9394    2.6686 H       1  UNL1        0.0473
     45 H           8.9611   -2.1387    1.3560 H       1  UNL1        0.0473
     46 H           9.7451   -0.5961    0.9922 H       1  UNL1        0.0473
     47 H           7.0849   -1.3401   -0.5742 H       1  UNL1        0.0832
     48 H           3.1484    0.8777    0.7129 H       1  UNL1        0.0820
     49 H          -2.5103    1.6444   -0.4801 H       1  UNL1        0.0636
@<TRIPOS>BOND
     1     1     2    1
     2     2     3   am
     3     3     4    2
     4     3     5    1
     5     5     6    1
     6     6     7    1
     7     7     8   ar
     8     8     9   ar
     9     9    10   ar
    10    10    11   ar
    11    11    12   ar
    12    12    13   ar
    13    13    14   ar
    14    14    15    1
    15    15    16    1
    16    16    17   ar
    17    17    18   ar
    18    18    19   ar
    19    19    20   ar
    20    20    21    1
    21    20    22   ar
    22    22    23   ar
    23    23    24    1
    24    24    25   ar
    25    25    26   ar
    26    26    27   ar
    27    27    28    1
    28    27    29   ar
    29    23    30   ar
    30    30    31   ar
    31    14    32   ar
    32    32    33   ar
    33     8     2    1
    34    33    11   ar
    35    33     7   ar
    36    31    16   ar
    37    31    19   ar
    38    29    24   ar
    39     1    34    1
    40     1    35    1
    41     1    36    1
    42     5    37    1
    43     5    38    1
    44     9    39    1
    45    12    40    1
    46    13    41    1
    47    22    42    1
    48    25    43    1
    49    28    44    1
    50    28    45    1
    51    28    46    1
    52    29    47    1
    53    30    48    1
    54    32    49    1
