
     RDKit          3D

 49 54  0  0  0  0  0  0  0  0999 V2000
   -8.1405   -1.0543    0.1328 C   0  0  0  0  0  0  0  0  0  0  0  0
   -6.9839   -0.2417   -0.2130 N   0  0  0  0  0  0  0  0  0  0  0  0
   -7.0825    0.8910   -1.0599 C   0  0  0  0  0  0  0  0  0  0  0  0
   -8.2193    1.3008   -1.3859 O   0  0  0  0  0  0  0  0  0  0  0  0
   -5.9002    1.6186   -1.5858 C   0  0  0  0  0  0  0  0  0  0  0  0
   -4.7734    1.3290   -0.8310 O   0  0  0  0  0  0  0  0  0  0  0  0
   -4.6643    0.2342   -0.0061 C   0  0  0  0  0  0  0  0  0  0  0  0
   -5.7121   -0.5744    0.3329 C   0  0  0  0  0  0  0  0  0  0  0  0
   -5.4799   -1.6439    1.1672 C   0  0  0  0  0  0  0  0  0  0  0  0
   -4.2271   -1.8836    1.6400 N   0  0  0  0  0  0  0  0  0  0  0  0
   -3.1647   -1.1097    1.3315 C   0  0  0  0  0  0  0  0  0  0  0  0
   -1.8990   -1.3120    1.8120 C   0  0  0  0  0  0  0  0  0  0  0  0
   -0.8496   -0.4594    1.4780 C   0  0  0  0  0  0  0  0  0  0  0  0
   -1.0243    0.6113    0.6616 C   0  0  0  0  0  0  0  0  0  0  0  0
    0.1999    1.8182    0.1958 S   0  0  0  0  0  0  0  0  0  0  0  0
    1.1365    1.2639   -1.2014 C   0  0  0  0  0  0  0  0  0  0  0  0
    0.6564    1.2831   -2.4794 N   0  0  0  0  0  0  0  0  0  0  0  0
    1.6024    0.8932   -3.3030 N   0  0  0  0  0  0  0  0  0  0  0  0
    2.6790    0.6299   -2.5443 C   0  0  0  0  0  0  0  0  0  0  0  0
    3.9433    0.2297   -2.9725 C   0  0  0  0  0  0  0  0  0  0  0  0
    4.2154   -0.0022   -4.2689 F   0  0  0  0  0  0  0  0  0  0  0  0
    4.9356    0.0656   -2.0426 C   0  0  0  0  0  0  0  0  0  0  0  0
    4.6709    0.2994   -0.6826 C   0  0  0  0  0  0  0  0  0  0  0  0
    5.7700    0.1723    0.2782 C   0  0  0  0  0  0  0  0  0  0  0  0
    5.9340    0.8797    1.4520 C   0  0  0  0  0  0  0  0  0  0  0  0
    7.0793    0.4892    2.0259 N   0  0  0  0  0  0  0  0  0  0  0  0
    7.6651   -0.4341    1.2858 N   0  0  0  0  0  0  0  0  0  0  0  0
    8.9328   -1.0617    1.6126 C   0  0  0  0  0  0  0  0  0  0  0  0
    6.8733   -0.6419    0.2052 C   0  0  0  0  0  0  0  0  0  0  0  0
    3.4060    0.6853   -0.3323 C   0  0  0  0  0  0  0  0  0  0  0  0
    2.4086    0.8547   -1.2354 N   0  0  0  0  0  0  0  0  0  0  0  0
   -2.3345    0.7915    0.1808 C   0  0  0  0  0  0  0  0  0  0  0  0
   -3.3771   -0.0315    0.4957 C   0  0  0  0  0  0  0  0  0  0  0  0
   -7.9758   -2.1160   -0.0877 H   0  0  0  0  0  0  0  0  0  0  0  0
   -8.3142   -0.8508    1.2261 H   0  0  0  0  0  0  0  0  0  0  0  0
   -9.0323   -0.7250   -0.4449 H   0  0  0  0  0  0  0  0  0  0  0  0
   -5.7138    1.3065   -2.6401 H   0  0  0  0  0  0  0  0  0  0  0  0
   -6.0786    2.7099   -1.5748 H   0  0  0  0  0  0  0  0  0  0  0  0
   -6.3127   -2.2711    1.4228 H   0  0  0  0  0  0  0  0  0  0  0  0
   -1.7123   -2.1680    2.4755 H   0  0  0  0  0  0  0  0  0  0  0  0
    0.1353   -0.6625    1.8839 H   0  0  0  0  0  0  0  0  0  0  0  0
    5.9350   -0.2389   -2.2822 H   0  0  0  0  0  0  0  0  0  0  0  0
    5.2089    1.6177    1.7896 H   0  0  0  0  0  0  0  0  0  0  0  0
    9.1553   -0.9394    2.6686 H   0  0  0  0  0  0  0  0  0  0  0  0
    8.9611   -2.1387    1.3560 H   0  0  0  0  0  0  0  0  0  0  0  0
    9.7451   -0.5961    0.9922 H   0  0  0  0  0  0  0  0  0  0  0  0
    7.0849   -1.3401   -0.5742 H   0  0  0  0  0  0  0  0  0  0  0  0
    3.1484    0.8777    0.7129 H   0  0  0  0  0  0  0  0  0  0  0  0
   -2.5103    1.6444   -0.4801 H   0  0  0  0  0  0  0  0  0  0  0  0
  1  2  1  0
  2  3  1  0
  3  4  2  0
  3  5  1  0
  5  6  1  0
  6  7  1  0
  7  8  2  0
  8  9  1  0
  9 10  2  0
 10 11  1  0
 11 12  2  0
 12 13  1  0
 13 14  2  0
 14 15  1  0
 15 16  1  0
 16 17  2  0
 17 18  1  0
 18 19  2  0
 19 20  1  0
 20 21  1  0
 20 22  2  0
 22 23  1  0
 23 24  1  0
 24 25  1  0
 25 26  2  0
 26 27  1  0
 27 28  1  0
 27 29  1  0
 23 30  2  0
 30 31  1  0
 14 32  1  0
 32 33  2  0
  8  2  1  0
 33 11  1  0
 33  7  1  0
 31 16  1  0
 31 19  1  0
 29 24  2  0
  1 34  1  0
  1 35  1  0
  1 36  1  0
  5 37  1  0
  5 38  1  0
  9 39  1  0
 12 40  1  0
 13 41  1  0
 22 42  1  0
 25 43  1  0
 28 44  1  0
 28 45  1  0
 28 46  1  0
 29 47  1  0
 30 48  1  0
 32 49  1  0
M  END
$$$$
