@<TRIPOS>MOLECULE
*****
 39 41 0 0 0
SMALL
GASTEIGER

@<TRIPOS>ATOM
      1 O          -5.5732   -0.7735    1.4140 O.2     1  UNL1       -0.2507
      2 C          -5.0123   -0.6282    0.3039 C.2     1  UNL1        0.3091
      3 O          -5.5925   -1.1670   -0.8267 O.3     1  UNL1       -0.4804
      4 C          -3.7566    0.1062    0.2176 C.3     1  UNL1        0.0706
      5 C          -3.8352    1.3232   -0.6786 C.3     1  UNL1       -0.0377
      6 C          -2.5056    2.0314   -0.5659 C.3     1  UNL1       -0.0378
      7 C          -1.4232    1.1953    0.0116 C.3     1  UNL1        0.0205
      8 N          -1.4321   -0.1762   -0.3515 N.3     1  UNL1       -0.1758
      9 S          -0.4385   -1.0456    0.7677 S.O2    1  UNL1        0.0609
     10 O          -0.4815   -2.5080    0.4347 O.2     1  UNL1       -0.1528
     11 O          -1.0363   -0.8567    2.1402 O.2     1  UNL1       -0.1528
     12 C           1.2050   -0.5139    0.7341 C.ar    1  UNL1        0.1061
     13 C           1.6143    0.5064    1.5657 C.ar    1  UNL1       -0.0348
     14 C           2.9556    0.8899    1.4906 C.ar    1  UNL1       -0.0522
     15 C           3.8200    0.2613    0.6136 C.ar    1  UNL1       -0.0178
     16 C           5.1506    0.6366    0.5341 C.ar    1  UNL1       -0.0540
     17 C           5.9980   -0.0053   -0.3498 C.ar    1  UNL1       -0.0612
     18 C           5.5655   -1.0163   -1.1651 C.ar    1  UNL1       -0.0612
     19 C           4.2433   -1.3918   -1.0885 C.ar    1  UNL1       -0.0540
     20 C           3.4052   -0.7524   -0.2100 C.ar    1  UNL1       -0.0160
     21 C           2.0835   -1.1317   -0.1372 C.ar    1  UNL1       -0.0276
     22 C          -2.7098   -0.8036   -0.3864 C.3     1  UNL1        0.0334
     23 H          -6.3207   -1.8748   -0.7813 H       1  UNL1        0.2951
     24 H          -3.3765    0.4409    1.1899 H       1  UNL1        0.0427
     25 H          -4.6873    1.9606   -0.3821 H       1  UNL1        0.0274
     26 H          -3.9376    1.0115   -1.7466 H       1  UNL1        0.0274
     27 H          -2.2253    2.5224   -1.5328 H       1  UNL1        0.0278
     28 H          -2.6789    2.8920    0.1448 H       1  UNL1        0.0278
     29 H          -0.4407    1.6312   -0.3383 H       1  UNL1        0.0444
     30 H          -1.3896    1.3101    1.1329 H       1  UNL1        0.0444
     31 H           0.9347    0.9871    2.2424 H       1  UNL1        0.0637
     32 H           3.3070    1.6821    2.1253 H       1  UNL1        0.0624
     33 H           5.4962    1.4309    1.1728 H       1  UNL1        0.0624
     34 H           7.0382    0.3392   -0.3636 H       1  UNL1        0.0618
     35 H           6.2077   -1.5186   -1.8500 H       1  UNL1        0.0618
     36 H           3.8451   -2.1926   -1.7162 H       1  UNL1        0.0624
     37 H           1.7179   -1.9423   -0.7848 H       1  UNL1        0.0643
     38 H          -2.9846   -1.0969   -1.4348 H       1  UNL1        0.0452
     39 H          -2.7499   -1.7629    0.1987 H       1  UNL1        0.0452
@<TRIPOS>BOND
     1     1     2    2
     2     2     3    1
     3     2     4    1
     4     4     5    1
     5     5     6    1
     6     6     7    1
     7     7     8    1
     8     8     9    1
     9     9    10    2
    10     9    11    2
    11     9    12    1
    12    12    13   ar
    13    13    14   ar
    14    14    15   ar
    15    15    16   ar
    16    16    17   ar
    17    17    18   ar
    18    18    19   ar
    19    19    20   ar
    20    20    21   ar
    21     8    22    1
    22    22     4    1
    23    21    12   ar
    24    20    15   ar
    25     3    23    1
    26     4    24    1
    27     5    25    1
    28     5    26    1
    29     6    27    1
    30     6    28    1
    31     7    29    1
    32     7    30    1
    33    13    31    1
    34    14    32    1
    35    16    33    1
    36    17    34    1
    37    18    35    1
    38    19    36    1
    39    21    37    1
    40    22    38    1
    41    22    39    1
