
     RDKit          3D

 54 57  0  0  0  0  0  0  0  0999 V2000
   -2.3324   -5.0892   -0.5069 C   0  0  0  0  0  0  0  0  0  0  0  0
   -1.2954   -4.0588   -0.2481 C   0  0  0  0  0  0  0  0  0  0  0  0
   -0.1998   -4.5233    0.2687 O   0  0  0  0  0  0  0  0  0  0  0  0
   -1.3775   -2.6986   -0.4986 N   0  0  0  0  0  0  0  0  0  0  0  0
   -0.1443   -1.8872   -0.4404 C   0  0  0  0  0  0  0  0  0  0  0  0
    1.0632   -2.4846   -0.6796 C   0  0  0  0  0  0  0  0  0  0  0  0
    2.2402   -1.7294   -0.6043 C   0  0  0  0  0  0  0  0  0  0  0  0
    2.1925   -0.4014   -0.2955 C   0  0  0  0  0  0  0  0  0  0  0  0
    3.4164    0.3648   -0.2210 C   0  0  0  0  0  0  0  0  0  0  0  0
    3.5872    1.4381    0.6232 C   0  0  0  0  0  0  0  0  0  0  0  0
    4.7923    2.0991    0.6152 C   0  0  0  0  0  0  0  0  0  0  0  0
    5.8429    1.7434   -0.1960 C   0  0  0  0  0  0  0  0  0  0  0  0
    7.1096    2.4626   -0.1834 C   0  0  0  0  0  0  0  0  0  0  0  0
    7.2306    3.4335    0.5961 O   0  0  0  0  0  0  0  0  0  0  0  0
    8.1579    2.1014   -0.9981 O   0  0  0  0  0  0  0  0  0  0  0  0
    5.6513    0.6591   -1.0397 C   0  0  0  0  0  0  0  0  0  0  0  0
    4.4567   -0.0175   -1.0501 C   0  0  0  0  0  0  0  0  0  0  0  0
    0.9798    0.1674   -0.0651 C   0  0  0  0  0  0  0  0  0  0  0  0
   -0.2137   -0.5503   -0.1309 C   0  0  0  0  0  0  0  0  0  0  0  0
   -1.5113    0.1213    0.0651 C   0  0  2  0  0  0  0  0  0  0  0  0
   -1.4429    1.2050    0.9894 N   0  0  0  0  0  0  0  0  0  0  0  0
   -2.4883    2.1477    1.0797 C   0  0  0  0  0  0  0  0  0  0  0  0
   -2.4614    3.1609    2.0363 C   0  0  0  0  0  0  0  0  0  0  0  0
   -3.4701    4.0670    2.0770 C   0  0  0  0  0  0  0  0  0  0  0  0
   -4.5427    4.0589    1.2232 C   0  0  0  0  0  0  0  0  0  0  0  0
   -5.8047    5.2732    1.3494 Cl  0  0  0  0  0  0  0  0  0  0  0  0
   -4.5734    3.0610    0.2770 C   0  0  0  0  0  0  0  0  0  0  0  0
   -3.5480    2.1170    0.2140 C   0  0  0  0  0  0  0  0  0  0  0  0
   -2.5456   -0.8940    0.4391 C   0  0  0  0  0  0  0  0  0  0  0  0
   -2.5663   -1.9240   -0.7365 C   0  0  2  0  0  0  0  0  0  0  0  0
   -3.8755   -2.5823   -0.8056 C   0  0  0  0  0  0  0  0  0  0  0  0
   -1.8258   -6.1027   -0.6536 H   0  0  0  0  0  0  0  0  0  0  0  0
   -2.9254   -5.2468    0.4117 H   0  0  0  0  0  0  0  0  0  0  0  0
   -2.9562   -4.8873   -1.3834 H   0  0  0  0  0  0  0  0  0  0  0  0
    1.1450   -3.5257   -0.9566 H   0  0  0  0  0  0  0  0  0  0  0  0
    3.1595   -2.2462   -0.7993 H   0  0  0  0  0  0  0  0  0  0  0  0
    2.7990    1.7431    1.2648 H   0  0  0  0  0  0  0  0  0  0  0  0
    4.9487    2.9522    1.2763 H   0  0  0  0  0  0  0  0  0  0  0  0
    8.9818    2.6732   -1.1533 H   0  0  0  0  0  0  0  0  0  0  0  0
    6.4676    0.3657   -1.6847 H   0  0  0  0  0  0  0  0  0  0  0  0
    4.3640   -0.8667   -1.7386 H   0  0  0  0  0  0  0  0  0  0  0  0
    0.8900    1.2135    0.1819 H   0  0  0  0  0  0  0  0  0  0  0  0
   -1.8133    0.5554   -0.9242 H   0  0  0  0  0  0  0  0  0  0  0  0
   -0.6186    1.3063    1.6042 H   0  0  0  0  0  0  0  0  0  0  0  0
   -1.6161    3.1955    2.7350 H   0  0  0  0  0  0  0  0  0  0  0  0
   -3.4479    4.8576    2.8245 H   0  0  0  0  0  0  0  0  0  0  0  0
   -5.4131    3.0463   -0.3990 H   0  0  0  0  0  0  0  0  0  0  0  0
   -3.6732    1.3871   -0.5874 H   0  0  0  0  0  0  0  0  0  0  0  0
   -2.1035   -1.4643    1.3153 H   0  0  0  0  0  0  0  0  0  0  0  0
   -3.5381   -0.5295    0.6693 H   0  0  0  0  0  0  0  0  0  0  0  0
   -2.3941   -1.2669   -1.6490 H   0  0  0  0  0  0  0  0  0  0  0  0
   -4.0607   -2.9523   -1.8433 H   0  0  0  0  0  0  0  0  0  0  0  0
   -4.6480   -1.7341   -0.7070 H   0  0  0  0  0  0  0  0  0  0  0  0
   -4.0490   -3.3144   -0.0300 H   0  0  0  0  0  0  0  0  0  0  0  0
  1  2  1  0
  2  3  2  0
  2  4  1  0
  4  5  1  0
  5  6  2  0
  6  7  1  0
  7  8  2  0
  8  9  1  0
  9 10  2  0
 10 11  1  0
 11 12  2  0
 12 13  1  0
 13 14  2  0
 13 15  1  0
 12 16  1  0
 16 17  2  0
  8 18  1  0
 18 19  2  0
 19 20  1  0
 20 21  1  0
 21 22  1  0
 22 23  2  0
 23 24  1  0
 24 25  2  0
 25 26  1  0
 25 27  1  0
 27 28  2  0
 20 29  1  0
 29 30  1  0
 30 31  1  0
 30  4  1  0
 19  5  1  0
 28 22  1  0
 17  9  1  0
  1 32  1  0
  1 33  1  0
  1 34  1  0
  6 35  1  0
  7 36  1  0
 10 37  1  0
 11 38  1  0
 15 39  1  0
 16 40  1  0
 17 41  1  0
 18 42  1  0
 20 43  1  6
 21 44  1  0
 23 45  1  0
 24 46  1  0
 27 47  1  0
 28 48  1  0
 29 49  1  0
 29 50  1  0
 30 51  1  6
 31 52  1  0
 31 53  1  0
 31 54  1  0
M  END
$$$$
