@<TRIPOS>MOLECULE
*****
 54 57 0 0 0
SMALL
GASTEIGER

@<TRIPOS>ATOM
      1 C          -2.3324   -5.0892   -0.5069 C.3     1  UNL1        0.0127
      2 C          -1.2954   -4.0588   -0.2481 C.2     1  UNL1        0.2169
      3 O          -0.1998   -4.5233    0.2687 O.2     1  UNL1       -0.2756
      4 N          -1.3775   -2.6986   -0.4986 N.am    1  UNL1       -0.2685
      5 C          -0.1443   -1.8872   -0.4404 C.ar    1  UNL1        0.0415
      6 C           1.0632   -2.4846   -0.6796 C.ar    1  UNL1       -0.0394
      7 C           2.2402   -1.7294   -0.6043 C.ar    1  UNL1       -0.0523
      8 C           2.1925   -0.4014   -0.2955 C.ar    1  UNL1       -0.0175
      9 C           3.4164    0.3648   -0.2210 C.ar    1  UNL1       -0.0178
     10 C           3.5872    1.4381    0.6232 C.ar    1  UNL1       -0.0533
     11 C           4.7923    2.0991    0.6152 C.ar    1  UNL1       -0.0472
     12 C           5.8429    1.7434   -0.1960 C.ar    1  UNL1        0.0589
     13 C           7.1096    2.4626   -0.1834 C.2     1  UNL1        0.3368
     14 O           7.2306    3.4335    0.5961 O.2     1  UNL1       -0.2451
     15 O           8.1579    2.1014   -0.9981 O.3     1  UNL1       -0.4771
     16 C           5.6513    0.6591   -1.0397 C.ar    1  UNL1       -0.0472
     17 C           4.4567   -0.0175   -1.0501 C.ar    1  UNL1       -0.0533
     18 C           0.9798    0.1674   -0.0651 C.ar    1  UNL1       -0.0473
     19 C          -0.2137   -0.5503   -0.1309 C.ar    1  UNL1       -0.0053
     20 C          -1.5113    0.1213    0.0651 C.3     1  UNL1        0.0493
     21 N          -1.4429    1.2050    0.9894 N.pl3   1  UNL1       -0.3369
     22 C          -2.4883    2.1477    1.0797 C.ar    1  UNL1        0.0277
     23 C          -2.4614    3.1609    2.0363 C.ar    1  UNL1       -0.0395
     24 C          -3.4701    4.0670    2.0770 C.ar    1  UNL1       -0.0416
     25 C          -4.5427    4.0589    1.2232 C.ar    1  UNL1        0.0411
     26 CL         -5.8047    5.2732    1.3494 Cl      1  UNL1       -0.0835
     27 C          -4.5734    3.0610    0.2770 C.ar    1  UNL1       -0.0416
     28 C          -3.5480    2.1170    0.2140 C.ar    1  UNL1       -0.0395
     29 C          -2.5456   -0.8940    0.4391 C.3     1  UNL1       -0.0115
     30 C          -2.5663   -1.9240   -0.7365 C.3     1  UNL1        0.0303
     31 C          -3.8755   -2.5823   -0.8056 C.3     1  UNL1       -0.0460
     32 H          -1.8258   -6.1027   -0.6536 H       1  UNL1        0.0323
     33 H          -2.9254   -5.2468    0.4117 H       1  UNL1        0.0323
     34 H          -2.9562   -4.8873   -1.3834 H       1  UNL1        0.0323
     35 H           1.1450   -3.5257   -0.9566 H       1  UNL1        0.0636
     36 H           3.1595   -2.2462   -0.7993 H       1  UNL1        0.0624
     37 H           2.7990    1.7431    1.2648 H       1  UNL1        0.0624
     38 H           4.9487    2.9522    1.2763 H       1  UNL1        0.0626
     39 H           8.9818    2.6732   -1.1533 H       1  UNL1        0.2954
     40 H           6.4676    0.3657   -1.6847 H       1  UNL1        0.0626
     41 H           4.3640   -0.8667   -1.7386 H       1  UNL1        0.0624
     42 H           0.8900    1.2135    0.1819 H       1  UNL1        0.0628
     43 H          -1.8133    0.5554   -0.9242 H       1  UNL1        0.0549
     44 H          -0.6186    1.3063    1.6042 H       1  UNL1        0.1467
     45 H          -1.6161    3.1955    2.7350 H       1  UNL1        0.0636
     46 H          -3.4479    4.8576    2.8245 H       1  UNL1        0.0633
     47 H          -5.4131    3.0463   -0.3990 H       1  UNL1        0.0633
     48 H          -3.6732    1.3871   -0.5874 H       1  UNL1        0.0636
     49 H          -2.1035   -1.4643    1.3153 H       1  UNL1        0.0304
     50 H          -3.5381   -0.5295    0.6693 H       1  UNL1        0.0304
     51 H          -2.3941   -1.2669   -1.6490 H       1  UNL1        0.0502
     52 H          -4.0607   -2.9523   -1.8433 H       1  UNL1        0.0248
     53 H          -4.6480   -1.7341   -0.7070 H       1  UNL1        0.0248
     54 H          -4.0490   -3.3144   -0.0300 H       1  UNL1        0.0248
@<TRIPOS>BOND
     1     1     2    1
     2     2     3    2
     3     2     4   am
     4     4     5    1
     5     5     6   ar
     6     6     7   ar
     7     7     8   ar
     8     8     9    1
     9     9    10   ar
    10    10    11   ar
    11    11    12   ar
    12    12    13    1
    13    13    14    2
    14    13    15    1
    15    12    16   ar
    16    16    17   ar
    17     8    18   ar
    18    18    19   ar
    19    19    20    1
    20    20    21    1
    21    21    22    1
    22    22    23   ar
    23    23    24   ar
    24    24    25   ar
    25    25    26    1
    26    25    27   ar
    27    27    28   ar
    28    20    29    1
    29    29    30    1
    30    30    31    1
    31    30     4    1
    32    19     5   ar
    33    28    22   ar
    34    17     9   ar
    35     1    32    1
    36     1    33    1
    37     1    34    1
    38     6    35    1
    39     7    36    1
    40    10    37    1
    41    11    38    1
    42    15    39    1
    43    16    40    1
    44    17    41    1
    45    18    42    1
    46    20    43    1
    47    21    44    1
    48    23    45    1
    49    24    46    1
    50    27    47    1
    51    28    48    1
    52    29    49    1
    53    29    50    1
    54    30    51    1
    55    31    52    1
    56    31    53    1
    57    31    54    1
