@<TRIPOS>MOLECULE
*****
 71 74 0 0 0
SMALL
GASTEIGER

@<TRIPOS>ATOM
      1 C          14.0129    0.9704   -1.8059 C.2     1  UNL1       -0.0938
      2 C          12.7676    0.6687   -1.5298 C.2     1  UNL1       -0.0069
      3 C          12.1593    1.1419   -0.3088 C.2     1  UNL1        0.2367
      4 O          12.8095    1.8472    0.4951 O.2     1  UNL1       -0.2709
      5 N          10.7953    0.7983   -0.0252 N.am    1  UNL1       -0.3032
      6 C          10.1938    1.2704    1.1614 C.3     1  UNL1        0.0887
      7 C           8.7737    0.8651    1.3700 C.2     1  UNL1        0.2344
      8 O           8.1788    1.2981    2.4126 O.2     1  UNL1       -0.2737
      9 N           8.0493    0.0396    0.4903 N.am    1  UNL1       -0.2842
     10 C           6.6809   -0.3013    0.7174 C.ar    1  UNL1        0.0352
     11 C           6.2344   -1.5741    0.3916 C.ar    1  UNL1       -0.0404
     12 C           4.9157   -1.9506    0.5317 C.ar    1  UNL1       -0.0583
     13 C           4.0105   -1.0127    1.0158 C.ar    1  UNL1       -0.0404
     14 C           4.4206    0.2583    1.3464 C.ar    1  UNL1        0.0353
     15 N           3.4587    1.1947    1.7887 N.pl3   1  UNL1       -0.2836
     16 C           2.1306    1.0800    1.2210 C.ar    1  UNL1        0.2195
     17 N           1.0747    1.5776    1.8562 N.ar    1  UNL1       -0.2208
     18 C          -0.1634    1.4634    1.2758 C.ar    1  UNL1        0.0539
     19 C          -0.3425    0.8582    0.0721 C.ar    1  UNL1        0.0704
     20 N          -1.6332    0.6438   -0.5190 N.am    1  UNL1       -0.2790
     21 C          -2.1844   -0.6481   -0.3249 C.2     1  UNL1        0.2486
     22 O          -1.5012   -1.5017    0.3578 O.2     1  UNL1       -0.2698
     23 C          -3.4483   -1.1456   -0.8102 C.ar    1  UNL1        0.0417
     24 C          -4.6176   -0.7678   -0.2406 C.ar    1  UNL1       -0.0281
     25 C          -5.8477   -1.2938   -0.6659 C.ar    1  UNL1        0.0344
     26 N          -7.0319   -0.8824   -0.0351 N.am    1  UNL1       -0.2815
     27 C          -7.9608    0.0687   -0.5136 C.2     1  UNL1        0.2483
     28 O          -7.7862    0.6275   -1.5929 O.2     1  UNL1       -0.2699
     29 C          -9.1527    0.3895    0.2864 C.ar    1  UNL1        0.0376
     30 C          -9.1196    0.3074    1.6871 C.ar    1  UNL1       -0.0496
     31 C         -10.2420    0.5565    2.4421 C.ar    1  UNL1       -0.0605
     32 C         -11.4124    0.8887    1.8148 C.ar    1  UNL1       -0.0501
     33 C         -11.4732    0.9779    0.4216 C.ar    1  UNL1        0.0555
     34 C         -12.7458    1.3138   -0.2533 C.3     1  UNL1        0.4174
     35 F         -12.7921    2.6034   -0.7166 F       1  UNL1       -0.1659
     36 F         -13.0044    0.3962   -1.2629 F       1  UNL1       -0.1659
     37 F         -13.7683    1.1786    0.6652 F       1  UNL1       -0.1659
     38 C         -10.3171    0.7206   -0.2985 C.ar    1  UNL1       -0.0380
     39 C          -5.8230   -2.2097   -1.6898 C.ar    1  UNL1       -0.0402
     40 C          -4.6271   -2.5989   -2.2776 C.ar    1  UNL1       -0.0564
     41 C          -3.4249   -2.0798   -1.8536 C.ar    1  UNL1       -0.0382
     42 C          -2.1124   -2.4347   -2.4185 C.3     1  UNL1       -0.0390
     43 C           0.7902    0.3433   -0.5827 C.ar    1  UNL1        0.0539
     44 N           1.9690    0.4818    0.0294 N.ar    1  UNL1       -0.2208
     45 C           5.7294    0.5827    1.1936 C.ar    1  UNL1       -0.0192
     46 H          14.5827    1.5739   -1.1162 H       1  UNL1        0.0536
     47 H          14.4616    0.6180   -2.7276 H       1  UNL1        0.0536
     48 H          12.1902    0.0764   -2.2120 H       1  UNL1        0.0663
     49 H          10.3150    0.2118   -0.7119 H       1  UNL1        0.1495
     50 H          10.2120    2.3929    1.2383 H       1  UNL1        0.0558
     51 H          10.8044    0.8882    2.0302 H       1  UNL1        0.0558
     52 H           8.5330   -0.3569   -0.3785 H       1  UNL1        0.1549
     53 H           6.9918   -2.2663    0.0218 H       1  UNL1        0.0636
     54 H           4.5707   -2.9451    0.2977 H       1  UNL1        0.0619
     55 H           2.9786   -1.3348    1.1221 H       1  UNL1        0.0636
     56 H           3.7011    1.9165    2.4693 H       1  UNL1        0.1550
     57 H          -1.0389    1.8738    1.8079 H       1  UNL1        0.0850
     58 H          -2.1530    1.3463   -1.0502 H       1  UNL1        0.1552
     59 H          -4.6088   -0.0349    0.5825 H       1  UNL1        0.0644
     60 H          -7.2700   -1.3179    0.9093 H       1  UNL1        0.1551
     61 H          -8.1797    0.0505    2.1423 H       1  UNL1        0.0625
     62 H         -10.2046    0.4920    3.5342 H       1  UNL1        0.0618
     63 H         -12.3150    1.0902    2.3910 H       1  UNL1        0.0623
     64 H         -10.3998    0.7990   -1.3802 H       1  UNL1        0.0631
     65 H          -6.7336   -2.6571   -2.0719 H       1  UNL1        0.0636
     66 H          -4.6040   -3.3292   -3.0947 H       1  UNL1        0.0621
     67 H          -1.5865   -3.2184   -1.8319 H       1  UNL1        0.0278
     68 H          -1.4049   -1.5601   -2.4112 H       1  UNL1        0.0278
     69 H          -2.1484   -2.7647   -3.4725 H       1  UNL1        0.0278
     70 H           0.6205   -0.1304   -1.5333 H       1  UNL1        0.0850
     71 H           6.0630    1.5750    1.4535 H       1  UNL1        0.0655
@<TRIPOS>BOND
     1     1     2    2
     2     2     3    1
     3     3     4    2
     4     3     5   am
     5     5     6    1
     6     6     7    1
     7     7     8    2
     8     7     9   am
     9     9    10    1
    10    10    11   ar
    11    11    12   ar
    12    12    13   ar
    13    13    14   ar
    14    14    15    1
    15    15    16    1
    16    16    17   ar
    17    17    18   ar
    18    18    19   ar
    19    19    20    1
    20    20    21   am
    21    21    22    2
    22    21    23    1
    23    23    24   ar
    24    24    25   ar
    25    25    26    1
    26    26    27   am
    27    27    28    2
    28    27    29    1
    29    29    30   ar
    30    30    31   ar
    31    31    32   ar
    32    32    33   ar
    33    33    34    1
    34    34    35    1
    35    34    36    1
    36    34    37    1
    37    33    38   ar
    38    25    39   ar
    39    39    40   ar
    40    40    41   ar
    41    41    42    1
    42    19    43   ar
    43    43    44   ar
    44    14    45   ar
    45    45    10   ar
    46    44    16   ar
    47    41    23   ar
    48    38    29   ar
    49     1    46    1
    50     1    47    1
    51     2    48    1
    52     5    49    1
    53     6    50    1
    54     6    51    1
    55     9    52    1
    56    11    53    1
    57    12    54    1
    58    13    55    1
    59    15    56    1
    60    18    57    1
    61    20    58    1
    62    24    59    1
    63    26    60    1
    64    30    61    1
    65    31    62    1
    66    32    63    1
    67    38    64    1
    68    39    65    1
    69    40    66    1
    70    42    67    1
    71    42    68    1
    72    42    69    1
    73    43    70    1
    74    45    71    1
