
     RDKit          3D

 71 74  0  0  0  0  0  0  0  0999 V2000
   14.0129    0.9704   -1.8059 C   0  0  0  0  0  0  0  0  0  0  0  0
   12.7676    0.6687   -1.5298 C   0  0  0  0  0  0  0  0  0  0  0  0
   12.1593    1.1419   -0.3088 C   0  0  0  0  0  0  0  0  0  0  0  0
   12.8095    1.8472    0.4951 O   0  0  0  0  0  0  0  0  0  0  0  0
   10.7953    0.7983   -0.0252 N   0  0  0  0  0  0  0  0  0  0  0  0
   10.1938    1.2704    1.1614 C   0  0  0  0  0  0  0  0  0  0  0  0
    8.7737    0.8651    1.3700 C   0  0  0  0  0  0  0  0  0  0  0  0
    8.1788    1.2981    2.4126 O   0  0  0  0  0  0  0  0  0  0  0  0
    8.0493    0.0396    0.4903 N   0  0  0  0  0  0  0  0  0  0  0  0
    6.6809   -0.3013    0.7174 C   0  0  0  0  0  0  0  0  0  0  0  0
    6.2344   -1.5741    0.3916 C   0  0  0  0  0  0  0  0  0  0  0  0
    4.9157   -1.9506    0.5317 C   0  0  0  0  0  0  0  0  0  0  0  0
    4.0105   -1.0127    1.0158 C   0  0  0  0  0  0  0  0  0  0  0  0
    4.4206    0.2583    1.3464 C   0  0  0  0  0  0  0  0  0  0  0  0
    3.4587    1.1947    1.7887 N   0  0  0  0  0  0  0  0  0  0  0  0
    2.1306    1.0800    1.2210 C   0  0  0  0  0  0  0  0  0  0  0  0
    1.0747    1.5776    1.8562 N   0  0  0  0  0  0  0  0  0  0  0  0
   -0.1634    1.4634    1.2758 C   0  0  0  0  0  0  0  0  0  0  0  0
   -0.3425    0.8582    0.0721 C   0  0  0  0  0  0  0  0  0  0  0  0
   -1.6332    0.6438   -0.5190 N   0  0  0  0  0  0  0  0  0  0  0  0
   -2.1844   -0.6481   -0.3249 C   0  0  0  0  0  0  0  0  0  0  0  0
   -1.5012   -1.5017    0.3578 O   0  0  0  0  0  0  0  0  0  0  0  0
   -3.4483   -1.1456   -0.8102 C   0  0  0  0  0  0  0  0  0  0  0  0
   -4.6176   -0.7678   -0.2406 C   0  0  0  0  0  0  0  0  0  0  0  0
   -5.8477   -1.2938   -0.6659 C   0  0  0  0  0  0  0  0  0  0  0  0
   -7.0319   -0.8824   -0.0351 N   0  0  0  0  0  0  0  0  0  0  0  0
   -7.9608    0.0687   -0.5136 C   0  0  0  0  0  0  0  0  0  0  0  0
   -7.7862    0.6275   -1.5929 O   0  0  0  0  0  0  0  0  0  0  0  0
   -9.1527    0.3895    0.2864 C   0  0  0  0  0  0  0  0  0  0  0  0
   -9.1196    0.3074    1.6871 C   0  0  0  0  0  0  0  0  0  0  0  0
  -10.2420    0.5565    2.4421 C   0  0  0  0  0  0  0  0  0  0  0  0
  -11.4124    0.8887    1.8148 C   0  0  0  0  0  0  0  0  0  0  0  0
  -11.4732    0.9779    0.4216 C   0  0  0  0  0  0  0  0  0  0  0  0
  -12.7458    1.3138   -0.2533 C   0  0  0  0  0  0  0  0  0  0  0  0
  -12.7921    2.6034   -0.7166 F   0  0  0  0  0  0  0  0  0  0  0  0
  -13.0044    0.3962   -1.2629 F   0  0  0  0  0  0  0  0  0  0  0  0
  -13.7683    1.1786    0.6652 F   0  0  0  0  0  0  0  0  0  0  0  0
  -10.3171    0.7206   -0.2985 C   0  0  0  0  0  0  0  0  0  0  0  0
   -5.8230   -2.2097   -1.6898 C   0  0  0  0  0  0  0  0  0  0  0  0
   -4.6271   -2.5989   -2.2776 C   0  0  0  0  0  0  0  0  0  0  0  0
   -3.4249   -2.0798   -1.8536 C   0  0  0  0  0  0  0  0  0  0  0  0
   -2.1124   -2.4347   -2.4185 C   0  0  0  0  0  0  0  0  0  0  0  0
    0.7902    0.3433   -0.5827 C   0  0  0  0  0  0  0  0  0  0  0  0
    1.9690    0.4818    0.0294 N   0  0  0  0  0  0  0  0  0  0  0  0
    5.7294    0.5827    1.1936 C   0  0  0  0  0  0  0  0  0  0  0  0
   14.5827    1.5739   -1.1162 H   0  0  0  0  0  0  0  0  0  0  0  0
   14.4616    0.6180   -2.7276 H   0  0  0  0  0  0  0  0  0  0  0  0
   12.1902    0.0764   -2.2120 H   0  0  0  0  0  0  0  0  0  0  0  0
   10.3150    0.2118   -0.7119 H   0  0  0  0  0  0  0  0  0  0  0  0
   10.2120    2.3929    1.2383 H   0  0  0  0  0  0  0  0  0  0  0  0
   10.8044    0.8882    2.0302 H   0  0  0  0  0  0  0  0  0  0  0  0
    8.5330   -0.3569   -0.3785 H   0  0  0  0  0  0  0  0  0  0  0  0
    6.9918   -2.2663    0.0218 H   0  0  0  0  0  0  0  0  0  0  0  0
    4.5707   -2.9451    0.2977 H   0  0  0  0  0  0  0  0  0  0  0  0
    2.9786   -1.3348    1.1221 H   0  0  0  0  0  0  0  0  0  0  0  0
    3.7011    1.9165    2.4693 H   0  0  0  0  0  0  0  0  0  0  0  0
   -1.0389    1.8738    1.8079 H   0  0  0  0  0  0  0  0  0  0  0  0
   -2.1530    1.3463   -1.0502 H   0  0  0  0  0  0  0  0  0  0  0  0
   -4.6088   -0.0349    0.5825 H   0  0  0  0  0  0  0  0  0  0  0  0
   -7.2700   -1.3179    0.9093 H   0  0  0  0  0  0  0  0  0  0  0  0
   -8.1797    0.0505    2.1423 H   0  0  0  0  0  0  0  0  0  0  0  0
  -10.2046    0.4920    3.5342 H   0  0  0  0  0  0  0  0  0  0  0  0
  -12.3150    1.0902    2.3910 H   0  0  0  0  0  0  0  0  0  0  0  0
  -10.3998    0.7990   -1.3802 H   0  0  0  0  0  0  0  0  0  0  0  0
   -6.7336   -2.6571   -2.0719 H   0  0  0  0  0  0  0  0  0  0  0  0
   -4.6040   -3.3292   -3.0947 H   0  0  0  0  0  0  0  0  0  0  0  0
   -1.5865   -3.2184   -1.8319 H   0  0  0  0  0  0  0  0  0  0  0  0
   -1.4049   -1.5601   -2.4112 H   0  0  0  0  0  0  0  0  0  0  0  0
   -2.1484   -2.7647   -3.4725 H   0  0  0  0  0  0  0  0  0  0  0  0
    0.6205   -0.1304   -1.5333 H   0  0  0  0  0  0  0  0  0  0  0  0
    6.0630    1.5750    1.4535 H   0  0  0  0  0  0  0  0  0  0  0  0
  1  2  2  3
  2  3  1  0
  3  4  2  0
  3  5  1  0
  5  6  1  0
  6  7  1  0
  7  8  2  0
  7  9  1  0
  9 10  1  0
 10 11  2  0
 11 12  1  0
 12 13  2  0
 13 14  1  0
 14 15  1  0
 15 16  1  0
 16 17  2  0
 17 18  1  0
 18 19  2  0
 19 20  1  0
 20 21  1  0
 21 22  2  0
 21 23  1  0
 23 24  2  0
 24 25  1  0
 25 26  1  0
 26 27  1  0
 27 28  2  0
 27 29  1  0
 29 30  2  0
 30 31  1  0
 31 32  2  0
 32 33  1  0
 33 34  1  0
 34 35  1  0
 34 36  1  0
 34 37  1  0
 33 38  2  0
 25 39  2  0
 39 40  1  0
 40 41  2  0
 41 42  1  0
 19 43  1  0
 43 44  2  0
 14 45  2  0
 45 10  1  0
 44 16  1  0
 41 23  1  0
 38 29  1  0
  1 46  1  0
  1 47  1  0
  2 48  1  0
  5 49  1  0
  6 50  1  0
  6 51  1  0
  9 52  1  0
 11 53  1  0
 12 54  1  0
 13 55  1  0
 15 56  1  0
 18 57  1  0
 20 58  1  0
 24 59  1  0
 26 60  1  0
 30 61  1  0
 31 62  1  0
 32 63  1  0
 38 64  1  0
 39 65  1  0
 40 66  1  0
 42 67  1  0
 42 68  1  0
 42 69  1  0
 43 70  1  0
 45 71  1  0
M  END
$$$$
