@<TRIPOS>MOLECULE
*****
 80 83 0 0 0
SMALL
GASTEIGER

@<TRIPOS>ATOM
      1 C           1.2042    2.5816   -2.5518 C.3     1  UNL1       -0.0494
      2 C           0.2835    3.7057   -2.2017 C.3     1  UNL1        0.0097
      3 N          -0.7077    3.3535   -1.1748 N.pl3   1  UNL1       -0.3267
      4 C          -0.6325    2.0738   -0.6083 C.ar    1  UNL1        0.0347
      5 C          -1.5881    1.1036   -0.8942 C.ar    1  UNL1       -0.0249
      6 C          -1.5447   -0.1583   -0.3896 C.ar    1  UNL1        0.0274
      7 C          -2.4909   -1.1536   -0.6737 C.1     1  UNL1       -0.0659
      8 C          -3.3115   -2.0455   -0.9337 C.1     1  UNL1       -0.0935
      9 C          -4.3199   -3.1639   -1.2549 C.3     1  UNL1        0.0233
     10 C          -4.4903   -3.9361    0.0562 C.3     1  UNL1       -0.0264
     11 C          -4.2807   -5.4015   -0.1306 C.3     1  UNL1       -0.0003
     12 N          -4.8721   -5.8800   -1.3565 N.3     1  UNL1       -0.3053
     13 C          -6.3139   -5.5777   -1.3100 C.3     1  UNL1       -0.0128
     14 C          -4.2792   -5.2602   -2.5235 C.3     1  UNL1       -0.0003
     15 C          -3.5209   -4.0108   -2.1834 C.3     1  UNL1       -0.0264
     16 C          -0.4600   -0.4779    0.4653 C.ar    1  UNL1       -0.0338
     17 C           0.4994    0.4567    0.7623 C.ar    1  UNL1        0.0425
     18 C           1.6390    0.0228    1.5721 C.2     1  UNL1        0.2447
     19 O           2.2077    0.8392    2.3064 O.2     1  UNL1       -0.2702
     20 N           2.0985   -1.2988    1.5302 N.am    1  UNL1       -0.3070
     21 C           3.1464   -1.9934    2.1595 C.3     1  UNL1        0.0425
     22 C           4.5279   -1.6407    1.7762 C.ar    1  UNL1        0.0368
     23 C           5.3331   -0.6957    2.3220 C.ar    1  UNL1       -0.0390
     24 C           4.8886    0.0762    3.5286 C.3     1  UNL1       -0.0392
     25 C           6.6311   -0.4464    1.8269 C.ar    1  UNL1       -0.0393
     26 C           7.1315   -1.1602    0.7654 C.ar    1  UNL1        0.0162
     27 C           8.4927   -0.9438    0.2360 C.3     1  UNL1       -0.0244
     28 N           6.3244   -2.0930    0.2333 N.ar    1  UNL1       -0.3262
     29 C           5.0897   -2.3464    0.6857 C.ar    1  UNL1        0.2539
     30 O           4.3855   -3.2235    0.1518 O.2     1  UNL1       -0.2675
     31 C           0.4136    1.7156    0.2354 C.ar    1  UNL1       -0.0173
     32 C           1.4362    2.6864    0.6078 C.3     1  UNL1       -0.0372
     33 C          -1.6598    4.3936   -0.8151 C.3     1  UNL1        0.0277
     34 C          -1.0090    5.5340   -0.0974 C.3     1  UNL1       -0.0108
     35 C          -2.0424    6.4056    0.5545 C.3     1  UNL1        0.0493
     36 O          -3.2562    6.3014   -0.1569 O.3     1  UNL1       -0.3796
     37 C          -3.7812    5.0652    0.2273 C.3     1  UNL1        0.0493
     38 C          -2.8512    3.9107   -0.0557 C.3     1  UNL1       -0.0108
     39 H           1.2451    2.5108   -3.6845 H       1  UNL1        0.0245
     40 H           0.9220    1.6177   -2.1290 H       1  UNL1        0.0245
     41 H           2.2709    2.7868   -2.2760 H       1  UNL1        0.0245
     42 H           0.8947    4.5956   -1.9097 H       1  UNL1        0.0461
     43 H          -0.2679    4.0857   -3.1225 H       1  UNL1        0.0461
     44 H          -2.4094    1.3168   -1.5586 H       1  UNL1        0.0648
     45 H          -5.2076   -2.7196   -1.6346 H       1  UNL1        0.0434
     46 H          -3.6147   -3.6018    0.7190 H       1  UNL1        0.0289
     47 H          -5.3748   -3.6520    0.6317 H       1  UNL1        0.0289
     48 H          -3.2012   -5.6643   -0.0757 H       1  UNL1        0.0427
     49 H          -4.7994   -5.9107    0.7163 H       1  UNL1        0.0427
     50 H          -6.6490   -5.4538   -2.3533 H       1  UNL1        0.0391
     51 H          -6.7853   -6.4408   -0.7866 H       1  UNL1        0.0391
     52 H          -6.4517   -4.6081   -0.7855 H       1  UNL1        0.0391
     53 H          -5.1449   -4.9837   -3.2036 H       1  UNL1        0.0427
     54 H          -3.5993   -5.9911   -3.0438 H       1  UNL1        0.0427
     55 H          -3.2036   -3.4961   -3.1164 H       1  UNL1        0.0289
     56 H          -2.5621   -4.3095   -1.6798 H       1  UNL1        0.0289
     57 H          -0.4513   -1.4950    0.8794 H       1  UNL1        0.0637
     58 H           1.4829   -1.9021    0.8260 H       1  UNL1        0.1493
     59 H           3.0269   -1.9622    3.2856 H       1  UNL1        0.0513
     60 H           3.0189   -3.0867    1.9191 H       1  UNL1        0.0513
     61 H           3.9901   -0.3293    3.9993 H       1  UNL1        0.0278
     62 H           4.8082    1.1609    3.3023 H       1  UNL1        0.0278
     63 H           5.7265   -0.0312    4.2720 H       1  UNL1        0.0278
     64 H           7.2119    0.3112    2.3019 H       1  UNL1        0.0637
     65 H           8.4761   -0.0296   -0.3643 H       1  UNL1        0.0292
     66 H           9.2715   -0.8273    1.0132 H       1  UNL1        0.0292
     67 H           8.8207   -1.8098   -0.3912 H       1  UNL1        0.0292
     68 H           6.7303   -2.6284   -0.5973 H       1  UNL1        0.1686
     69 H           1.3895    3.6697    0.1560 H       1  UNL1        0.0278
     70 H           2.4790    2.3065    0.4202 H       1  UNL1        0.0278
     71 H           1.4085    2.8881    1.7275 H       1  UNL1        0.0278
     72 H          -2.0733    4.7793   -1.7985 H       1  UNL1        0.0501
     73 H          -0.3860    6.1767   -0.7526 H       1  UNL1        0.0305
     74 H          -0.4123    5.0845    0.7525 H       1  UNL1        0.0305
     75 H          -2.2100    6.1060    1.6344 H       1  UNL1        0.0560
     76 H          -1.7813    7.4809    0.5822 H       1  UNL1        0.0560
     77 H          -4.0373    5.1507    1.3125 H       1  UNL1        0.0560
     78 H          -4.7839    4.9560   -0.2719 H       1  UNL1        0.0560
     79 H          -3.4773    3.2033   -0.6867 H       1  UNL1        0.0305
     80 H          -2.6108    3.4277    0.9228 H       1  UNL1        0.0305
@<TRIPOS>BOND
     1     1     2    1
     2     2     3    1
     3     3     4    1
     4     4     5   ar
     5     5     6   ar
     6     6     7    1
     7     7     8    3
     8     8     9    1
     9     9    10    1
    10    10    11    1
    11    11    12    1
    12    12    13    1
    13    12    14    1
    14    14    15    1
    15     6    16   ar
    16    16    17   ar
    17    17    18    1
    18    18    19    2
    19    18    20   am
    20    20    21    1
    21    21    22    1
    22    22    23   ar
    23    23    24    1
    24    23    25   ar
    25    25    26   ar
    26    26    27    1
    27    26    28   ar
    28    28    29   ar
    29    29    30    2
    30    17    31   ar
    31    31    32    1
    32     3    33    1
    33    33    34    1
    34    34    35    1
    35    35    36    1
    36    36    37    1
    37    37    38    1
    38    31     4   ar
    39    38    33    1
    40    15     9    1
    41    29    22   ar
    42     1    39    1
    43     1    40    1
    44     1    41    1
    45     2    42    1
    46     2    43    1
    47     5    44    1
    48     9    45    1
    49    10    46    1
    50    10    47    1
    51    11    48    1
    52    11    49    1
    53    13    50    1
    54    13    51    1
    55    13    52    1
    56    14    53    1
    57    14    54    1
    58    15    55    1
    59    15    56    1
    60    16    57    1
    61    20    58    1
    62    21    59    1
    63    21    60    1
    64    24    61    1
    65    24    62    1
    66    24    63    1
    67    25    64    1
    68    27    65    1
    69    27    66    1
    70    27    67    1
    71    28    68    1
    72    32    69    1
    73    32    70    1
    74    32    71    1
    75    33    72    1
    76    34    73    1
    77    34    74    1
    78    35    75    1
    79    35    76    1
    80    37    77    1
    81    37    78    1
    82    38    79    1
    83    38    80    1
