
     RDKit          3D

 80 83  0  0  0  0  0  0  0  0999 V2000
    1.2042    2.5816   -2.5518 C   0  0  0  0  0  0  0  0  0  0  0  0
    0.2835    3.7057   -2.2017 C   0  0  0  0  0  0  0  0  0  0  0  0
   -0.7077    3.3535   -1.1748 N   0  0  0  0  0  0  0  0  0  0  0  0
   -0.6325    2.0738   -0.6083 C   0  0  0  0  0  0  0  0  0  0  0  0
   -1.5881    1.1036   -0.8942 C   0  0  0  0  0  0  0  0  0  0  0  0
   -1.5447   -0.1583   -0.3896 C   0  0  0  0  0  0  0  0  0  0  0  0
   -2.4909   -1.1536   -0.6737 C   0  0  0  0  0  0  0  0  0  0  0  0
   -3.3115   -2.0455   -0.9337 C   0  0  0  0  0  0  0  0  0  0  0  0
   -4.3199   -3.1639   -1.2549 C   0  0  0  0  0  0  0  0  0  0  0  0
   -4.4903   -3.9361    0.0562 C   0  0  0  0  0  0  0  0  0  0  0  0
   -4.2807   -5.4015   -0.1306 C   0  0  0  0  0  0  0  0  0  0  0  0
   -4.8721   -5.8800   -1.3565 N   0  0  0  0  0  0  0  0  0  0  0  0
   -6.3139   -5.5777   -1.3100 C   0  0  0  0  0  0  0  0  0  0  0  0
   -4.2792   -5.2602   -2.5235 C   0  0  0  0  0  0  0  0  0  0  0  0
   -3.5209   -4.0108   -2.1834 C   0  0  0  0  0  0  0  0  0  0  0  0
   -0.4600   -0.4779    0.4653 C   0  0  0  0  0  0  0  0  0  0  0  0
    0.4994    0.4567    0.7623 C   0  0  0  0  0  0  0  0  0  0  0  0
    1.6390    0.0228    1.5721 C   0  0  0  0  0  0  0  0  0  0  0  0
    2.2077    0.8392    2.3064 O   0  0  0  0  0  0  0  0  0  0  0  0
    2.0985   -1.2988    1.5302 N   0  0  0  0  0  0  0  0  0  0  0  0
    3.1464   -1.9934    2.1595 C   0  0  0  0  0  0  0  0  0  0  0  0
    4.5279   -1.6407    1.7762 C   0  0  0  0  0  0  0  0  0  0  0  0
    5.3331   -0.6957    2.3220 C   0  0  0  0  0  0  0  0  0  0  0  0
    4.8886    0.0762    3.5286 C   0  0  0  0  0  0  0  0  0  0  0  0
    6.6311   -0.4464    1.8269 C   0  0  0  0  0  0  0  0  0  0  0  0
    7.1315   -1.1602    0.7654 C   0  0  0  0  0  0  0  0  0  0  0  0
    8.4927   -0.9438    0.2360 C   0  0  0  0  0  0  0  0  0  0  0  0
    6.3244   -2.0930    0.2333 N   0  0  0  0  0  0  0  0  0  0  0  0
    5.0897   -2.3464    0.6857 C   0  0  0  0  0  0  0  0  0  0  0  0
    4.3855   -3.2235    0.1518 O   0  0  0  0  0  0  0  0  0  0  0  0
    0.4136    1.7156    0.2354 C   0  0  0  0  0  0  0  0  0  0  0  0
    1.4362    2.6864    0.6078 C   0  0  0  0  0  0  0  0  0  0  0  0
   -1.6598    4.3936   -0.8151 C   0  0  0  0  0  0  0  0  0  0  0  0
   -1.0090    5.5340   -0.0974 C   0  0  0  0  0  0  0  0  0  0  0  0
   -2.0424    6.4056    0.5545 C   0  0  0  0  0  0  0  0  0  0  0  0
   -3.2562    6.3014   -0.1569 O   0  0  0  0  0  0  0  0  0  0  0  0
   -3.7812    5.0652    0.2273 C   0  0  0  0  0  0  0  0  0  0  0  0
   -2.8512    3.9107   -0.0557 C   0  0  0  0  0  0  0  0  0  0  0  0
    1.2451    2.5108   -3.6845 H   0  0  0  0  0  0  0  0  0  0  0  0
    0.9220    1.6177   -2.1290 H   0  0  0  0  0  0  0  0  0  0  0  0
    2.2709    2.7868   -2.2760 H   0  0  0  0  0  0  0  0  0  0  0  0
    0.8947    4.5956   -1.9097 H   0  0  0  0  0  0  0  0  0  0  0  0
   -0.2679    4.0857   -3.1225 H   0  0  0  0  0  0  0  0  0  0  0  0
   -2.4094    1.3168   -1.5586 H   0  0  0  0  0  0  0  0  0  0  0  0
   -5.2076   -2.7196   -1.6346 H   0  0  0  0  0  0  0  0  0  0  0  0
   -3.6147   -3.6018    0.7190 H   0  0  0  0  0  0  0  0  0  0  0  0
   -5.3748   -3.6520    0.6317 H   0  0  0  0  0  0  0  0  0  0  0  0
   -3.2012   -5.6643   -0.0757 H   0  0  0  0  0  0  0  0  0  0  0  0
   -4.7994   -5.9107    0.7163 H   0  0  0  0  0  0  0  0  0  0  0  0
   -6.6490   -5.4538   -2.3533 H   0  0  0  0  0  0  0  0  0  0  0  0
   -6.7853   -6.4408   -0.7866 H   0  0  0  0  0  0  0  0  0  0  0  0
   -6.4517   -4.6081   -0.7855 H   0  0  0  0  0  0  0  0  0  0  0  0
   -5.1449   -4.9837   -3.2036 H   0  0  0  0  0  0  0  0  0  0  0  0
   -3.5993   -5.9911   -3.0438 H   0  0  0  0  0  0  0  0  0  0  0  0
   -3.2036   -3.4961   -3.1164 H   0  0  0  0  0  0  0  0  0  0  0  0
   -2.5621   -4.3095   -1.6798 H   0  0  0  0  0  0  0  0  0  0  0  0
   -0.4513   -1.4950    0.8794 H   0  0  0  0  0  0  0  0  0  0  0  0
    1.4829   -1.9021    0.8260 H   0  0  0  0  0  0  0  0  0  0  0  0
    3.0269   -1.9622    3.2856 H   0  0  0  0  0  0  0  0  0  0  0  0
    3.0189   -3.0867    1.9191 H   0  0  0  0  0  0  0  0  0  0  0  0
    3.9901   -0.3293    3.9993 H   0  0  0  0  0  0  0  0  0  0  0  0
    4.8082    1.1609    3.3023 H   0  0  0  0  0  0  0  0  0  0  0  0
    5.7265   -0.0312    4.2720 H   0  0  0  0  0  0  0  0  0  0  0  0
    7.2119    0.3112    2.3019 H   0  0  0  0  0  0  0  0  0  0  0  0
    8.4761   -0.0296   -0.3643 H   0  0  0  0  0  0  0  0  0  0  0  0
    9.2715   -0.8273    1.0132 H   0  0  0  0  0  0  0  0  0  0  0  0
    8.8207   -1.8098   -0.3912 H   0  0  0  0  0  0  0  0  0  0  0  0
    6.7303   -2.6284   -0.5973 H   0  0  0  0  0  0  0  0  0  0  0  0
    1.3895    3.6697    0.1560 H   0  0  0  0  0  0  0  0  0  0  0  0
    2.4790    2.3065    0.4202 H   0  0  0  0  0  0  0  0  0  0  0  0
    1.4085    2.8881    1.7275 H   0  0  0  0  0  0  0  0  0  0  0  0
   -2.0733    4.7793   -1.7985 H   0  0  0  0  0  0  0  0  0  0  0  0
   -0.3860    6.1767   -0.7526 H   0  0  0  0  0  0  0  0  0  0  0  0
   -0.4123    5.0845    0.7525 H   0  0  0  0  0  0  0  0  0  0  0  0
   -2.2100    6.1060    1.6344 H   0  0  0  0  0  0  0  0  0  0  0  0
   -1.7813    7.4809    0.5822 H   0  0  0  0  0  0  0  0  0  0  0  0
   -4.0373    5.1507    1.3125 H   0  0  0  0  0  0  0  0  0  0  0  0
   -4.7839    4.9560   -0.2719 H   0  0  0  0  0  0  0  0  0  0  0  0
   -3.4773    3.2033   -0.6867 H   0  0  0  0  0  0  0  0  0  0  0  0
   -2.6108    3.4277    0.9228 H   0  0  0  0  0  0  0  0  0  0  0  0
  1  2  1  0
  2  3  1  0
  3  4  1  0
  4  5  2  0
  5  6  1  0
  6  7  1  0
  7  8  3  0
  8  9  1  0
  9 10  1  0
 10 11  1  0
 11 12  1  0
 12 13  1  0
 12 14  1  0
 14 15  1  0
  6 16  2  0
 16 17  1  0
 17 18  1  0
 18 19  2  0
 18 20  1  0
 20 21  1  0
 21 22  1  0
 22 23  2  0
 23 24  1  0
 23 25  1  0
 25 26  2  0
 26 27  1  0
 26 28  1  0
 28 29  1  0
 29 30  2  0
 17 31  2  0
 31 32  1  0
  3 33  1  0
 33 34  1  0
 34 35  1  0
 35 36  1  0
 36 37  1  0
 37 38  1  0
 31  4  1  0
 38 33  1  0
 15  9  1  0
 29 22  1  0
  1 39  1  0
  1 40  1  0
  1 41  1  0
  2 42  1  0
  2 43  1  0
  5 44  1  0
  9 45  1  0
 10 46  1  0
 10 47  1  0
 11 48  1  0
 11 49  1  0
 13 50  1  0
 13 51  1  0
 13 52  1  0
 14 53  1  0
 14 54  1  0
 15 55  1  0
 15 56  1  0
 16 57  1  0
 20 58  1  0
 21 59  1  0
 21 60  1  0
 24 61  1  0
 24 62  1  0
 24 63  1  0
 25 64  1  0
 27 65  1  0
 27 66  1  0
 27 67  1  0
 28 68  1  0
 32 69  1  0
 32 70  1  0
 32 71  1  0
 33 72  1  0
 34 73  1  0
 34 74  1  0
 35 75  1  0
 35 76  1  0
 37 77  1  0
 37 78  1  0
 38 79  1  0
 38 80  1  0
M  END
$$$$
