
     RDKit          3D

 61 64  0  0  0  0  0  0  0  0999 V2000
   -9.4851    0.1906   -0.8431 C   0  0  0  0  0  0  0  0  0  0  0  0
   -8.5568    0.3182    0.2226 O   0  0  0  0  0  0  0  0  0  0  0  0
   -7.2125    0.4272   -0.0851 C   0  0  0  0  0  0  0  0  0  0  0  0
   -6.2438    0.5533    0.9097 C   0  0  0  0  0  0  0  0  0  0  0  0
   -4.9101    0.6619    0.6043 C   0  0  0  0  0  0  0  0  0  0  0  0
   -4.4334    0.6549   -0.6913 C   0  0  0  0  0  0  0  0  0  0  0  0
   -3.0441    0.7651   -1.0661 C   0  0  0  0  0  0  0  0  0  0  0  0
   -2.7850    1.2806   -2.2143 O   0  0  0  0  0  0  0  0  0  0  0  0
   -1.9557    0.3309   -0.2131 C   0  0  0  0  0  0  0  0  0  0  0  0
   -0.6815    0.9324   -0.1844 C   0  0  0  0  0  0  0  0  0  0  0  0
   -0.3356    2.1350   -1.0074 C   0  0  0  0  0  0  0  0  0  0  0  0
    0.0913    0.2526    0.6675 N   0  0  0  0  0  0  0  0  0  0  0  0
    1.4343    0.6138    0.9859 C   0  0  0  0  0  0  0  0  0  0  0  0
    2.5038    0.1511    0.1182 C   0  0  0  0  0  0  0  0  0  0  0  0
    3.7250    0.8226    0.2275 C   0  0  0  0  0  0  0  0  0  0  0  0
    4.8226    0.5054   -0.5331 C   0  0  0  0  0  0  0  0  0  0  0  0
    5.9905    1.2017   -0.3832 O   0  0  0  0  0  0  0  0  0  0  0  0
    7.2037    1.0556   -1.0262 C   0  0  1  0  0  0  0  0  0  0  0  0
    7.5664    2.2662   -1.8746 C   0  0  0  0  0  0  0  0  0  0  0  0
    8.3034    0.9158   -0.0059 C   0  0  0  0  0  0  0  0  0  0  0  0
    8.0293    0.9395    1.2081 O   0  0  0  0  0  0  0  0  0  0  0  0
    9.6225    0.7608   -0.3994 O   0  0  0  0  0  0  0  0  0  0  0  0
    4.7331   -0.5145   -1.4445 C   0  0  0  0  0  0  0  0  0  0  0  0
    3.5440   -1.2002   -1.5800 C   0  0  0  0  0  0  0  0  0  0  0  0
    2.4399   -0.8631   -0.7994 C   0  0  0  0  0  0  0  0  0  0  0  0
    0.9507   -1.7709   -1.0517 Cl  0  0  0  0  0  0  0  0  0  0  0  0
   -0.5994   -0.7763    1.2113 C   0  0  0  0  0  0  0  0  0  0  0  0
   -0.2222   -1.7339    2.1160 N   0  0  0  0  0  0  0  0  0  0  0  0
   -1.0590   -2.6917    2.5315 C   0  0  0  0  0  0  0  0  0  0  0  0
   -0.6567   -3.6646    3.4618 O   0  0  0  0  0  0  0  0  0  0  0  0
    0.6878   -3.6187    3.9635 C   0  0  0  0  0  0  0  0  0  0  0  0
   -2.3260   -2.6757    2.0064 C   0  0  0  0  0  0  0  0  0  0  0  0
   -2.7303   -1.7123    1.0867 C   0  0  0  0  0  0  0  0  0  0  0  0
   -1.8603   -0.7225    0.6644 C   0  0  0  0  0  0  0  0  0  0  0  0
   -5.4122    0.5278   -1.6842 C   0  0  0  0  0  0  0  0  0  0  0  0
   -6.7429    0.4197   -1.3796 C   0  0  0  0  0  0  0  0  0  0  0  0
   -9.1378   -0.6304   -1.4867 H   0  0  0  0  0  0  0  0  0  0  0  0
  -10.5185   -0.0212   -0.4649 H   0  0  0  0  0  0  0  0  0  0  0  0
   -9.5095    1.1052   -1.4940 H   0  0  0  0  0  0  0  0  0  0  0  0
   -6.6193    0.5584    1.9374 H   0  0  0  0  0  0  0  0  0  0  0  0
   -4.1932    0.7600    1.4284 H   0  0  0  0  0  0  0  0  0  0  0  0
    0.5376    2.6567   -0.5989 H   0  0  0  0  0  0  0  0  0  0  0  0
   -0.2168    1.8190   -2.0585 H   0  0  0  0  0  0  0  0  0  0  0  0
   -1.2540    2.7822   -0.9799 H   0  0  0  0  0  0  0  0  0  0  0  0
    1.6538    0.1765    2.0158 H   0  0  0  0  0  0  0  0  0  0  0  0
    1.5193    1.7313    1.1933 H   0  0  0  0  0  0  0  0  0  0  0  0
    3.8387    1.6474    0.9500 H   0  0  0  0  0  0  0  0  0  0  0  0
    7.2704    0.1547   -1.6696 H   0  0  0  0  0  0  0  0  0  0  0  0
    8.4547    2.7658   -1.4485 H   0  0  0  0  0  0  0  0  0  0  0  0
    7.8117    1.9864   -2.9150 H   0  0  0  0  0  0  0  0  0  0  0  0
    6.7384    3.0166   -1.8058 H   0  0  0  0  0  0  0  0  0  0  0  0
   10.3769    0.5644    0.2570 H   0  0  0  0  0  0  0  0  0  0  0  0
    5.5852   -0.8096   -2.0806 H   0  0  0  0  0  0  0  0  0  0  0  0
    3.4788   -2.0158   -2.3102 H   0  0  0  0  0  0  0  0  0  0  0  0
    0.9562   -2.5385    4.0381 H   0  0  0  0  0  0  0  0  0  0  0  0
    0.7904   -4.0575    4.9565 H   0  0  0  0  0  0  0  0  0  0  0  0
    1.3829   -4.0599    3.2168 H   0  0  0  0  0  0  0  0  0  0  0  0
   -3.0250   -3.4384    2.3226 H   0  0  0  0  0  0  0  0  0  0  0  0
   -3.7183   -1.7306    0.6616 H   0  0  0  0  0  0  0  0  0  0  0  0
   -5.1193    0.5149   -2.7278 H   0  0  0  0  0  0  0  0  0  0  0  0
   -7.4794    0.3241   -2.1791 H   0  0  0  0  0  0  0  0  0  0  0  0
  1  2  1  0
  2  3  1  0
  3  4  2  0
  4  5  1  0
  5  6  2  0
  6  7  1  0
  7  8  2  0
  7  9  1  0
  9 10  2  0
 10 11  1  0
 10 12  1  0
 12 13  1  0
 13 14  1  0
 14 15  2  0
 15 16  1  0
 16 17  1  0
 17 18  1  0
 18 19  1  0
 18 20  1  0
 20 21  2  0
 20 22  1  0
 16 23  2  0
 23 24  1  0
 24 25  2  0
 25 26  1  0
 12 27  1  0
 27 28  2  0
 28 29  1  0
 29 30  1  0
 30 31  1  0
 29 32  2  0
 32 33  1  0
 33 34  2  0
  6 35  1  0
 35 36  2  0
 36  3  1  0
 34  9  1  0
 25 14  1  0
 34 27  1  0
  1 37  1  0
  1 38  1  0
  1 39  1  0
  4 40  1  0
  5 41  1  0
 11 42  1  0
 11 43  1  0
 11 44  1  0
 13 45  1  0
 13 46  1  0
 15 47  1  0
 18 48  1  6
 19 49  1  0
 19 50  1  0
 19 51  1  0
 22 52  1  0
 23 53  1  0
 24 54  1  0
 31 55  1  0
 31 56  1  0
 31 57  1  0
 32 58  1  0
 33 59  1  0
 35 60  1  0
 36 61  1  0
M  END
$$$$
