@<TRIPOS>MOLECULE
*****
 61 64 0 0 0
SMALL
GASTEIGER

@<TRIPOS>ATOM
      1 C          -9.4851    0.1906   -0.8431 C.3     1  UNL1        0.0788
      2 O          -8.5568    0.3182    0.2226 O.3     1  UNL1       -0.4951
      3 C          -7.2125    0.4272   -0.0851 C.ar    1  UNL1        0.1201
      4 C          -6.2438    0.5533    0.9097 C.ar    1  UNL1       -0.0193
      5 C          -4.9101    0.6619    0.6043 C.ar    1  UNL1       -0.0475
      6 C          -4.4334    0.6549   -0.6913 C.ar    1  UNL1        0.0226
      7 C          -3.0441    0.7651   -1.0661 C.2     1  UNL1        0.1955
      8 O          -2.7850    1.2806   -2.2143 O.2     1  UNL1       -0.2866
      9 C          -1.9557    0.3309   -0.2131 C.ar    1  UNL1        0.0520
     10 C          -0.6815    0.9324   -0.1844 C.ar    1  UNL1        0.0293
     11 C          -0.3356    2.1350   -1.0074 C.3     1  UNL1       -0.0235
     12 N           0.0913    0.2526    0.6675 N.ar    1  UNL1       -0.3241
     13 C           1.4343    0.6138    0.9859 C.3     1  UNL1        0.0514
     14 C           2.5038    0.1511    0.1182 C.ar    1  UNL1       -0.0060
     15 C           3.7250    0.8226    0.2275 C.ar    1  UNL1       -0.0136
     16 C           4.8226    0.5054   -0.5331 C.ar    1  UNL1        0.1221
     17 O           5.9905    1.2017   -0.3832 O.3     1  UNL1       -0.4779
     18 C           7.2037    1.0556   -1.0262 C.3     1  UNL1        0.1931
     19 C           7.5664    2.2662   -1.8746 C.3     1  UNL1       -0.0172
     20 C           8.3034    0.9158   -0.0059 C.2     1  UNL1        0.3456
     21 O           8.0293    0.9395    1.2081 O.2     1  UNL1       -0.2468
     22 O           9.6225    0.7608   -0.3994 O.3     1  UNL1       -0.4781
     23 C           4.7331   -0.5145   -1.4445 C.ar    1  UNL1       -0.0185
     24 C           3.5440   -1.2002   -1.5800 C.ar    1  UNL1       -0.0396
     25 C           2.4399   -0.8631   -0.7994 C.ar    1  UNL1        0.0461
     26 CL          0.9507   -1.7709   -1.0517 Cl      1  UNL1       -0.0832
     27 C          -0.5994   -0.7763    1.2113 C.ar    1  UNL1        0.1457
     28 N          -0.2222   -1.7339    2.1160 N.ar    1  UNL1       -0.1949
     29 C          -1.0590   -2.6917    2.5315 C.ar    1  UNL1        0.2163
     30 O          -0.6567   -3.6646    3.4618 O.3     1  UNL1       -0.4796
     31 C           0.6878   -3.6187    3.9635 C.3     1  UNL1        0.0804
     32 C          -2.3260   -2.6757    2.0064 C.ar    1  UNL1        0.0007
     33 C          -2.7303   -1.7123    1.0867 C.ar    1  UNL1       -0.0453
     34 C          -1.8603   -0.7225    0.6644 C.ar    1  UNL1        0.0302
     35 C          -5.4122    0.5278   -1.6842 C.ar    1  UNL1       -0.0475
     36 C          -6.7429    0.4197   -1.3796 C.ar    1  UNL1       -0.0193
     37 H          -9.1378   -0.6304   -1.4867 H       1  UNL1        0.0660
     38 H         -10.5185   -0.0212   -0.4649 H       1  UNL1        0.0660
     39 H          -9.5095    1.1052   -1.4940 H       1  UNL1        0.0660
     40 H          -6.6193    0.5584    1.9374 H       1  UNL1        0.0654
     41 H          -4.1932    0.7600    1.4284 H       1  UNL1        0.0626
     42 H           0.5376    2.6567   -0.5989 H       1  UNL1        0.0292
     43 H          -0.2168    1.8190   -2.0585 H       1  UNL1        0.0292
     44 H          -1.2540    2.7822   -0.9799 H       1  UNL1        0.0292
     45 H           1.6538    0.1765    2.0158 H       1  UNL1        0.0542
     46 H           1.5193    1.7313    1.1933 H       1  UNL1        0.0542
     47 H           3.8387    1.6474    0.9500 H       1  UNL1        0.0658
     48 H           7.2704    0.1547   -1.6696 H       1  UNL1        0.0849
     49 H           8.4547    2.7658   -1.4485 H       1  UNL1        0.0271
     50 H           7.8117    1.9864   -2.9150 H       1  UNL1        0.0271
     51 H           6.7384    3.0166   -1.8058 H       1  UNL1        0.0271
     52 H          10.3769    0.5644    0.2570 H       1  UNL1        0.2952
     53 H           5.5852   -0.8096   -2.0806 H       1  UNL1        0.0654
     54 H           3.4788   -2.0158   -2.3102 H       1  UNL1        0.0633
     55 H           0.9562   -2.5385    4.0381 H       1  UNL1        0.0660
     56 H           0.7904   -4.0575    4.9565 H       1  UNL1        0.0660
     57 H           1.3829   -4.0599    3.2168 H       1  UNL1        0.0660
     58 H          -3.0250   -3.4384    2.3226 H       1  UNL1        0.0671
     59 H          -3.7183   -1.7306    0.6616 H       1  UNL1        0.0626
     60 H          -5.1193    0.5149   -2.7278 H       1  UNL1        0.0626
     61 H          -7.4794    0.3241   -2.1791 H       1  UNL1        0.0654
@<TRIPOS>BOND
     1     1     2    1
     2     2     3    1
     3     3     4   ar
     4     4     5   ar
     5     5     6   ar
     6     6     7    1
     7     7     8    2
     8     7     9    1
     9     9    10   ar
    10    10    11    1
    11    10    12   ar
    12    12    13    1
    13    13    14    1
    14    14    15   ar
    15    15    16   ar
    16    16    17    1
    17    17    18    1
    18    18    19    1
    19    18    20    1
    20    20    21    2
    21    20    22    1
    22    16    23   ar
    23    23    24   ar
    24    24    25   ar
    25    25    26    1
    26    12    27   ar
    27    27    28   ar
    28    28    29   ar
    29    29    30    1
    30    30    31    1
    31    29    32   ar
    32    32    33   ar
    33    33    34   ar
    34     6    35   ar
    35    35    36   ar
    36    36     3   ar
    37    34     9   ar
    38    25    14   ar
    39    34    27   ar
    40     1    37    1
    41     1    38    1
    42     1    39    1
    43     4    40    1
    44     5    41    1
    45    11    42    1
    46    11    43    1
    47    11    44    1
    48    13    45    1
    49    13    46    1
    50    15    47    1
    51    18    48    1
    52    19    49    1
    53    19    50    1
    54    19    51    1
    55    22    52    1
    56    23    53    1
    57    24    54    1
    58    31    55    1
    59    31    56    1
    60    31    57    1
    61    32    58    1
    62    33    59    1
    63    35    60    1
    64    36    61    1
