@<TRIPOS>MOLECULE
*****
 63 68 0 0 0
SMALL
GASTEIGER

@<TRIPOS>ATOM
      1 C          12.3874    0.8396   -2.0387 C.3     1  UNL1        0.0788
      2 O          11.4253   -0.1164   -2.3571 O.3     1  UNL1       -0.4951
      3 C          10.2040   -0.2129   -1.7234 C.ar    1  UNL1        0.1201
      4 C           9.2990   -1.2114   -2.1108 C.ar    1  UNL1       -0.0192
      5 C           8.0737   -1.3691   -1.5298 C.ar    1  UNL1       -0.0460
      6 C           7.6684   -0.5223   -0.5069 C.ar    1  UNL1        0.0387
      7 C           6.3567   -0.7066    0.1011 C.ar    1  UNL1        0.2489
      8 N           5.4771   -1.6872   -0.1820 N.ar    1  UNL1       -0.1068
      9 N           4.4219   -1.4938    0.5796 N.ar    1  UNL1       -0.1021
     10 C           4.6235   -0.4057    1.3382 C.ar    1  UNL1        0.3042
     11 C           3.7168    0.1809    2.3229 C.2     1  UNL1        0.3035
     12 O           4.1314    0.4801    3.4516 O.2     1  UNL1       -0.2647
     13 N           2.3513    0.4117    1.9934 N.am    1  UNL1       -0.2865
     14 C           1.1699    0.9372    2.6005 C.3     1  UNL1        0.0538
     15 C           0.3144    0.2540    1.5873 C.3     1  UNL1        0.1314
     16 O          -0.6344    0.9977    0.8956 O.3     1  UNL1       -0.4857
     17 C          -1.7823    0.4515    0.3692 C.ar    1  UNL1        0.1211
     18 C          -2.1832   -0.8544    0.4882 C.ar    1  UNL1       -0.0196
     19 C          -3.3603   -1.3053   -0.0916 C.ar    1  UNL1       -0.0539
     20 C          -4.2011   -0.4624   -0.8268 C.ar    1  UNL1       -0.0331
     21 C          -5.4013   -1.0132   -1.4449 C.3     1  UNL1        0.0241
     22 N          -6.6314   -0.9279   -0.7818 N.3     1  UNL1       -0.2969
     23 C          -7.3410    0.3523   -1.0258 C.3     1  UNL1        0.0082
     24 C          -7.9762    0.1145    0.3293 C.3     1  UNL1        0.0216
     25 C          -9.1713   -0.8102    0.2959 C.3     1  UNL1       -0.0194
     26 C         -10.2916    0.2480    0.3446 C.3     1  UNL1        0.0483
     27 O          -9.8261    1.2061    1.2114 O.3     1  UNL1       -0.3791
     28 C          -8.4273    1.3128    1.0556 C.3     1  UNL1        0.0557
     29 C          -6.6522   -0.5200    0.6280 C.3     1  UNL1        0.0082
     30 C          -3.7814    0.8317   -0.9292 C.ar    1  UNL1       -0.0539
     31 C          -2.6255    1.3006   -0.3660 C.ar    1  UNL1       -0.0196
     32 C           1.6190    0.1596    0.7805 C.3     1  UNL1        0.0538
     33 O           5.8068    0.0542    1.0304 O.2     1  UNL1       -0.4123
     34 C           8.5349    0.4560   -0.1175 C.ar    1  UNL1       -0.0460
     35 C           9.7775    0.6084   -0.7119 C.ar    1  UNL1       -0.0192
     36 H          13.1976    0.3323   -1.4421 H       1  UNL1        0.0660
     37 H          12.8940    1.1279   -3.0119 H       1  UNL1        0.0660
     38 H          12.0240    1.7417   -1.5466 H       1  UNL1        0.0660
     39 H           9.6149   -1.8656   -2.9064 H       1  UNL1        0.0654
     40 H           7.4131   -2.1422   -1.8526 H       1  UNL1        0.0626
     41 H           1.0915    2.0500    2.6047 H       1  UNL1        0.0502
     42 H           1.0012    0.5757    3.6621 H       1  UNL1        0.0502
     43 H          -0.0162   -0.7542    1.9165 H       1  UNL1        0.0765
     44 H          -1.5514   -1.5383    1.0502 H       1  UNL1        0.0654
     45 H          -3.6328   -2.3309    0.0286 H       1  UNL1        0.0622
     46 H          -5.2544   -2.1156   -1.7079 H       1  UNL1        0.0476
     47 H          -5.5506   -0.5758   -2.5000 H       1  UNL1        0.0476
     48 H          -6.6874    1.2180   -1.0938 H       1  UNL1        0.0433
     49 H          -8.0241    0.1740   -1.8814 H       1  UNL1        0.0433
     50 H          -9.2043   -1.3960   -0.6353 H       1  UNL1        0.0294
     51 H          -9.2270   -1.4751    1.1637 H       1  UNL1        0.0294
     52 H         -10.5190    0.6062   -0.6785 H       1  UNL1        0.0560
     53 H         -11.1794   -0.2687    0.7022 H       1  UNL1        0.0560
     54 H          -8.2715    2.2516    0.4524 H       1  UNL1        0.0566
     55 H          -8.0121    1.4910    2.0554 H       1  UNL1        0.0566
     56 H          -6.7608   -1.3346    1.3600 H       1  UNL1        0.0433
     57 H          -5.8792    0.1792    0.9441 H       1  UNL1        0.0433
     58 H          -4.3692    1.5663   -1.4849 H       1  UNL1        0.0622
     59 H          -2.3353    2.3387   -0.4746 H       1  UNL1        0.0654
     60 H           1.7636   -0.8313    0.3007 H       1  UNL1        0.0502
     61 H           1.6883    0.9515    0.0379 H       1  UNL1        0.0502
     62 H           8.2538    1.1188    0.6629 H       1  UNL1        0.0626
     63 H          10.4604    1.3941   -0.3846 H       1  UNL1        0.0654
@<TRIPOS>BOND
     1     1     2    1
     2     2     3    1
     3     3     4   ar
     4     4     5   ar
     5     5     6   ar
     6     6     7    1
     7     7     8   ar
     8     8     9   ar
     9     9    10   ar
    10    10    11    1
    11    11    12    2
    12    11    13   am
    13    13    14    1
    14    14    15    1
    15    15    16    1
    16    16    17    1
    17    17    18   ar
    18    18    19   ar
    19    19    20   ar
    20    20    21    1
    21    21    22    1
    22    22    23    1
    23    23    24    1
    24    24    25    1
    25    25    26    1
    26    26    27    1
    27    27    28    1
    28    24    29    1
    29    20    30   ar
    30    30    31   ar
    31    15    32    1
    32    10    33   ar
    33     6    34   ar
    34    34    35   ar
    35    35     3   ar
    36    33     7   ar
    37    32    13    1
    38    31    17   ar
    39    29    22    1
    40    28    24    1
    41     1    36    1
    42     1    37    1
    43     1    38    1
    44     4    39    1
    45     5    40    1
    46    14    41    1
    47    14    42    1
    48    15    43    1
    49    18    44    1
    50    19    45    1
    51    21    46    1
    52    21    47    1
    53    23    48    1
    54    23    49    1
    55    25    50    1
    56    25    51    1
    57    26    52    1
    58    26    53    1
    59    28    54    1
    60    28    55    1
    61    29    56    1
    62    29    57    1
    63    30    58    1
    64    31    59    1
    65    32    60    1
    66    32    61    1
    67    34    62    1
    68    35    63    1
