@<TRIPOS>MOLECULE
*****
 52 56 0 0 0
SMALL
GASTEIGER

@<TRIPOS>ATOM
      1 C          -3.1215    5.7441   -0.8554 C.3     1  UNL1        0.0004
      2 N          -3.0821    4.4248   -0.2614 N.am    1  UNL1       -0.3144
      3 C          -2.9367    3.2599   -1.0576 C.2     1  UNL1        0.2460
      4 O          -2.8388    3.3599   -2.3019 O.2     1  UNL1       -0.2701
      5 C          -2.8993    1.9475   -0.4517 C.ar    1  UNL1        0.0666
      6 C          -3.9248    1.1277   -0.0457 C.ar    1  UNL1        0.0175
      7 N          -3.4259   -0.0095    0.4661 N.ar    1  UNL1       -0.3503
      8 C          -4.1407   -1.1573    1.0151 C.3     1  UNL1        0.0117
      9 C          -2.0562    0.0761    0.3900 C.ar    1  UNL1        0.0570
     10 C          -1.7101    1.2706   -0.1707 C.ar    1  UNL1        0.0722
     11 C          -0.2589    1.3234   -0.2322 C.2     1  UNL1        0.2553
     12 O           0.3740    2.3149   -0.7065 O.2     1  UNL1       -0.2695
     13 N           0.2643    0.1211    0.3102 N.am    1  UNL1       -0.2374
     14 C           1.6610   -0.1338    0.3977 C.ar    1  UNL1        0.1499
     15 C           2.1563   -1.3252    0.9273 C.ar    1  UNL1       -0.0131
     16 C           3.5174   -1.5374    0.9975 C.ar    1  UNL1       -0.0012
     17 C           4.1184   -2.7830    1.5487 C.3     1  UNL1       -0.0360
     18 C           4.4001   -0.5731    0.5445 C.ar    1  UNL1        0.1811
     19 N           5.7277   -0.4535    0.4657 N.ar    1  UNL1       -0.1275
     20 N           6.0283    0.7192   -0.0702 N.ar    1  UNL1       -0.1263
     21 C           4.8936    1.3743   -0.3453 C.ar    1  UNL1        0.2205
     22 C           4.7075    2.7178   -0.9478 C.3     1  UNL1        0.2993
     23 F           5.3138    2.8114   -2.1826 F       1  UNL1       -0.2005
     24 F           5.2948    3.6455   -0.1240 F       1  UNL1       -0.2005
     25 N           3.8778    0.5750    0.0350 N.ar    1  UNL1       -0.1896
     26 N           2.5887    0.7383   -0.0145 N.ar    1  UNL1       -0.1476
     27 C          -0.8277   -0.6833    0.7060 C.3     1  UNL1        0.0986
     28 C          -0.8721   -2.0194    0.0784 C.ar    1  UNL1       -0.0207
     29 C          -0.6429   -2.2200   -1.2475 C.ar    1  UNL1       -0.0550
     30 C          -0.7034   -3.5103   -1.7767 C.ar    1  UNL1       -0.0431
     31 C          -0.9949   -4.6091   -0.9770 C.ar    1  UNL1        0.0410
     32 CL         -1.0747   -6.2401   -1.6275 Cl      1  UNL1       -0.0835
     33 C          -1.2249   -4.3885    0.3658 C.ar    1  UNL1       -0.0431
     34 C          -1.1597   -3.1201    0.8563 C.ar    1  UNL1       -0.0550
     35 H          -3.6901    6.4646   -0.2079 H       1  UNL1        0.0426
     36 H          -3.6079    5.6903   -1.8627 H       1  UNL1        0.0426
     37 H          -2.1181    6.1716   -1.0348 H       1  UNL1        0.0426
     38 H          -3.1625    4.3152    0.7890 H       1  UNL1        0.1487
     39 H          -4.9820    1.3713   -0.1298 H       1  UNL1        0.0817
     40 H          -5.2287   -0.8841    1.0091 H       1  UNL1        0.0456
     41 H          -3.7762   -1.4488    2.0129 H       1  UNL1        0.0456
     42 H          -4.0369   -1.9927    0.2927 H       1  UNL1        0.0456
     43 H           1.5057   -2.0816    1.2823 H       1  UNL1        0.0656
     44 H           3.4001   -3.6082    1.6407 H       1  UNL1        0.0279
     45 H           4.5391   -2.5127    2.5471 H       1  UNL1        0.0279
     46 H           4.9654   -3.1138    0.9243 H       1  UNL1        0.0279
     47 H           3.6368    2.9687   -1.0400 H       1  UNL1        0.1105
     48 H          -0.7260   -0.8286    1.8255 H       1  UNL1        0.0620
     49 H          -0.4162   -1.3628   -1.8677 H       1  UNL1        0.0621
     50 H          -0.5246   -3.6781   -2.8163 H       1  UNL1        0.0632
     51 H          -1.4555   -5.2581    0.9951 H       1  UNL1        0.0632
     52 H          -1.3507   -2.9998    1.9329 H       1  UNL1        0.0621
@<TRIPOS>BOND
     1     1     2    1
     2     2     3   am
     3     3     4    2
     4     3     5    1
     5     5     6   ar
     6     6     7   ar
     7     7     8    1
     8     7     9   ar
     9     9    10   ar
    10    10    11    1
    11    11    12    2
    12    11    13   am
    13    13    14    1
    14    14    15   ar
    15    15    16   ar
    16    16    17    1
    17    16    18   ar
    18    18    19   ar
    19    19    20   ar
    20    20    21   ar
    21    21    22    1
    22    22    23    1
    23    22    24    1
    24    21    25   ar
    25    25    26   ar
    26    13    27    1
    27    27    28    1
    28    28    29   ar
    29    29    30   ar
    30    30    31   ar
    31    31    32    1
    32    31    33   ar
    33    33    34   ar
    34    10     5   ar
    35    26    14   ar
    36    34    28   ar
    37    27     9    1
    38    25    18   ar
    39     1    35    1
    40     1    36    1
    41     1    37    1
    42     2    38    1
    43     6    39    1
    44     8    40    1
    45     8    41    1
    46     8    42    1
    47    15    43    1
    48    17    44    1
    49    17    45    1
    50    17    46    1
    51    22    47    1
    52    27    48    1
    53    29    49    1
    54    30    50    1
    55    33    51    1
    56    34    52    1
