
     RDKit          3D

 52 56  0  0  0  0  0  0  0  0999 V2000
   -3.1215    5.7441   -0.8554 C   0  0  0  0  0  0  0  0  0  0  0  0
   -3.0821    4.4248   -0.2614 N   0  0  0  0  0  0  0  0  0  0  0  0
   -2.9367    3.2599   -1.0576 C   0  0  0  0  0  0  0  0  0  0  0  0
   -2.8388    3.3599   -2.3019 O   0  0  0  0  0  0  0  0  0  0  0  0
   -2.8993    1.9475   -0.4517 C   0  0  0  0  0  0  0  0  0  0  0  0
   -3.9248    1.1277   -0.0457 C   0  0  0  0  0  0  0  0  0  0  0  0
   -3.4259   -0.0095    0.4661 N   0  0  0  0  0  0  0  0  0  0  0  0
   -4.1407   -1.1573    1.0151 C   0  0  0  0  0  0  0  0  0  0  0  0
   -2.0562    0.0761    0.3900 C   0  0  0  0  0  0  0  0  0  0  0  0
   -1.7101    1.2706   -0.1707 C   0  0  0  0  0  0  0  0  0  0  0  0
   -0.2589    1.3234   -0.2322 C   0  0  0  0  0  0  0  0  0  0  0  0
    0.3740    2.3149   -0.7065 O   0  0  0  0  0  0  0  0  0  0  0  0
    0.2643    0.1211    0.3102 N   0  0  0  0  0  0  0  0  0  0  0  0
    1.6610   -0.1338    0.3977 C   0  0  0  0  0  0  0  0  0  0  0  0
    2.1563   -1.3252    0.9273 C   0  0  0  0  0  0  0  0  0  0  0  0
    3.5174   -1.5374    0.9975 C   0  0  0  0  0  0  0  0  0  0  0  0
    4.1184   -2.7830    1.5487 C   0  0  0  0  0  0  0  0  0  0  0  0
    4.4001   -0.5731    0.5445 C   0  0  0  0  0  0  0  0  0  0  0  0
    5.7277   -0.4535    0.4657 N   0  0  0  0  0  0  0  0  0  0  0  0
    6.0283    0.7192   -0.0702 N   0  0  0  0  0  0  0  0  0  0  0  0
    4.8936    1.3743   -0.3453 C   0  0  0  0  0  0  0  0  0  0  0  0
    4.7075    2.7178   -0.9478 C   0  0  0  0  0  0  0  0  0  0  0  0
    5.3138    2.8114   -2.1826 F   0  0  0  0  0  0  0  0  0  0  0  0
    5.2948    3.6455   -0.1240 F   0  0  0  0  0  0  0  0  0  0  0  0
    3.8778    0.5750    0.0350 N   0  0  0  0  0  0  0  0  0  0  0  0
    2.5887    0.7383   -0.0145 N   0  0  0  0  0  0  0  0  0  0  0  0
   -0.8277   -0.6833    0.7060 C   0  0  0  0  0  0  0  0  0  0  0  0
   -0.8721   -2.0194    0.0784 C   0  0  0  0  0  0  0  0  0  0  0  0
   -0.6429   -2.2200   -1.2475 C   0  0  0  0  0  0  0  0  0  0  0  0
   -0.7034   -3.5103   -1.7767 C   0  0  0  0  0  0  0  0  0  0  0  0
   -0.9949   -4.6091   -0.9770 C   0  0  0  0  0  0  0  0  0  0  0  0
   -1.0747   -6.2401   -1.6275 Cl  0  0  0  0  0  0  0  0  0  0  0  0
   -1.2249   -4.3885    0.3658 C   0  0  0  0  0  0  0  0  0  0  0  0
   -1.1597   -3.1201    0.8563 C   0  0  0  0  0  0  0  0  0  0  0  0
   -3.6901    6.4646   -0.2079 H   0  0  0  0  0  0  0  0  0  0  0  0
   -3.6079    5.6903   -1.8627 H   0  0  0  0  0  0  0  0  0  0  0  0
   -2.1181    6.1716   -1.0348 H   0  0  0  0  0  0  0  0  0  0  0  0
   -3.1625    4.3152    0.7890 H   0  0  0  0  0  0  0  0  0  0  0  0
   -4.9820    1.3713   -0.1298 H   0  0  0  0  0  0  0  0  0  0  0  0
   -5.2287   -0.8841    1.0091 H   0  0  0  0  0  0  0  0  0  0  0  0
   -3.7762   -1.4488    2.0129 H   0  0  0  0  0  0  0  0  0  0  0  0
   -4.0369   -1.9927    0.2927 H   0  0  0  0  0  0  0  0  0  0  0  0
    1.5057   -2.0816    1.2823 H   0  0  0  0  0  0  0  0  0  0  0  0
    3.4001   -3.6082    1.6407 H   0  0  0  0  0  0  0  0  0  0  0  0
    4.5391   -2.5127    2.5471 H   0  0  0  0  0  0  0  0  0  0  0  0
    4.9654   -3.1138    0.9243 H   0  0  0  0  0  0  0  0  0  0  0  0
    3.6368    2.9687   -1.0400 H   0  0  0  0  0  0  0  0  0  0  0  0
   -0.7260   -0.8286    1.8255 H   0  0  0  0  0  0  0  0  0  0  0  0
   -0.4162   -1.3628   -1.8677 H   0  0  0  0  0  0  0  0  0  0  0  0
   -0.5246   -3.6781   -2.8163 H   0  0  0  0  0  0  0  0  0  0  0  0
   -1.4555   -5.2581    0.9951 H   0  0  0  0  0  0  0  0  0  0  0  0
   -1.3507   -2.9998    1.9329 H   0  0  0  0  0  0  0  0  0  0  0  0
  1  2  1  0
  2  3  1  0
  3  4  2  0
  3  5  1  0
  5  6  2  0
  6  7  1  0
  7  8  1  0
  7  9  1  0
  9 10  2  0
 10 11  1  0
 11 12  2  0
 11 13  1  0
 13 14  1  0
 14 15  1  0
 15 16  2  0
 16 17  1  0
 16 18  1  0
 18 19  2  0
 19 20  1  0
 20 21  2  0
 21 22  1  0
 22 23  1  0
 22 24  1  0
 21 25  1  0
 25 26  1  0
 13 27  1  0
 27 28  1  0
 28 29  2  0
 29 30  1  0
 30 31  2  0
 31 32  1  0
 31 33  1  0
 33 34  2  0
 10  5  1  0
 26 14  2  0
 34 28  1  0
 27  9  1  0
 25 18  1  0
  1 35  1  0
  1 36  1  0
  1 37  1  0
  2 38  1  0
  6 39  1  0
  8 40  1  0
  8 41  1  0
  8 42  1  0
 15 43  1  0
 17 44  1  0
 17 45  1  0
 17 46  1  0
 22 47  1  0
 27 48  1  0
 29 49  1  0
 30 50  1  0
 33 51  1  0
 34 52  1  0
M  END
$$$$
