@<TRIPOS>MOLECULE
*****
 76 81 0 0 0
SMALL
GASTEIGER

@<TRIPOS>ATOM
      1 C          -3.3826    7.0253   -0.0670 C.3     1  UNL1       -0.0151
      2 N          -2.2008    6.8485   -0.8467 N.3     1  UNL1       -0.3089
      3 C          -1.0014    6.5667   -0.1797 C.3     1  UNL1        0.0820
      4 C          -0.5788    7.4697    0.9301 C.3     1  UNL1       -0.0411
      5 C          -0.8296    5.1223    0.1826 C.2     1  UNL1        0.2350
      6 O           0.1001    4.5830    0.7025 O.2     1  UNL1       -0.2737
      7 N          -1.9808    4.2735   -0.1805 N.am    1  UNL1       -0.2691
      8 C          -1.8873    2.8718    0.0127 C.ar    1  UNL1        0.1263
      9 C          -3.0508    2.1481   -0.2794 C.ar    1  UNL1       -0.0208
     10 C          -3.0355    0.8079   -0.3396 C.ar    1  UNL1       -0.0466
     11 C          -1.8564    0.0876   -0.1196 C.ar    1  UNL1        0.0349
     12 C          -1.8700   -1.3283   -0.3338 C.ar    1  UNL1        0.0837
     13 C          -2.3723   -2.3589    0.3574 C.ar    1  UNL1        0.0992
     14 C          -3.0957   -2.4832    1.6119 C.ar    1  UNL1        0.0208
     15 C          -4.2803   -1.8527    1.8814 C.ar    1  UNL1       -0.0460
     16 C          -4.9832   -2.0377    3.0197 C.ar    1  UNL1        0.0006
     17 C          -4.4755   -2.9035    3.9490 C.ar    1  UNL1        0.2144
     18 O          -5.1488   -3.1452    5.1481 O.3     1  UNL1       -0.4796
     19 C          -4.5212   -4.0579    6.0552 C.3     1  UNL1        0.0804
     20 N          -3.2787   -3.5542    3.7066 N.ar    1  UNL1       -0.2207
     21 C          -2.5801   -3.3696    2.5749 C.ar    1  UNL1        0.0406
     22 N          -2.1891   -3.5584   -0.3529 N.ar    1  UNL1       -0.2271
     23 C          -1.5834   -3.1842   -1.4618 C.ar    1  UNL1        0.1390
     24 C          -1.2665   -3.9985   -2.5747 C.ar    1  UNL1       -0.0158
     25 C          -0.7436   -3.3962   -3.6804 C.ar    1  UNL1       -0.0456
     26 C          -0.4310   -4.1613   -4.9120 C.3     1  UNL1       -0.0395
     27 C          -0.5306   -2.0297   -3.6867 C.ar    1  UNL1       -0.0421
     28 C          -0.8544   -1.2593   -2.5665 C.ar    1  UNL1        0.0120
     29 N          -1.3631   -1.8723   -1.5089 N.ar    1  UNL1       -0.2986
     30 C          -0.7207    0.7820    0.1615 C.ar    1  UNL1        0.1250
     31 C           0.5889    0.2300    0.0996 C.1     1  UNL1       -0.0404
     32 C           1.6531   -0.2364    0.0367 C.1     1  UNL1       -0.0595
     33 C           2.9962   -0.8446   -0.0534 C.ar    1  UNL1        0.0260
     34 C           3.3658   -2.0135    0.4707 C.ar    1  UNL1       -0.0443
     35 C           4.7332   -2.3673    0.3781 C.ar    1  UNL1       -0.0364
     36 C           5.6557   -1.5587   -0.2187 C.ar    1  UNL1        0.0518
     37 C           5.2505   -0.3391   -0.7628 C.ar    1  UNL1       -0.0001
     38 C           6.0997    0.5601   -1.3703 C.ar    1  UNL1       -0.0475
     39 C           7.4258    0.2442   -1.4493 C.ar    1  UNL1        0.0036
     40 C           7.8368   -0.9647   -0.9034 C.ar    1  UNL1        0.2515
     41 O           9.0815   -1.2224   -0.9810 O.2     1  UNL1       -0.2677
     42 N           6.9819   -1.8379   -0.3090 N.ar    1  UNL1       -0.3112
     43 C           7.5125   -3.0815    0.2378 C.3     1  UNL1        0.0153
     44 C           3.9443   -0.0171   -0.6650 C.ar    1  UNL1       -0.0372
     45 N          -0.7993    2.1541    0.2211 N.ar    1  UNL1       -0.2229
     46 H          -3.8311    8.0427   -0.3130 H       1  UNL1        0.0388
     47 H          -4.2231    6.3399   -0.2630 H       1  UNL1        0.0388
     48 H          -3.0445    7.0259    1.0154 H       1  UNL1        0.0388
     49 H          -2.3531    6.2273   -1.6521 H       1  UNL1        0.1223
     50 H          -0.1770    6.7403   -0.9829 H       1  UNL1        0.0554
     51 H          -0.0658    8.3668    0.4773 H       1  UNL1        0.0249
     52 H          -1.3247    7.7399    1.6763 H       1  UNL1        0.0249
     53 H           0.2571    6.9305    1.4588 H       1  UNL1        0.0249
     54 H          -2.8091    4.7256   -0.5405 H       1  UNL1        0.1563
     55 H          -3.9553    2.7146   -0.4887 H       1  UNL1        0.0652
     56 H          -3.9449    0.2342   -0.5901 H       1  UNL1        0.0626
     57 H          -4.7364   -1.1475    1.1549 H       1  UNL1        0.0626
     58 H          -5.9255   -1.5168    3.1995 H       1  UNL1        0.0671
     59 H          -3.4537   -3.7891    6.1030 H       1  UNL1        0.0660
     60 H          -4.6496   -5.1142    5.8012 H       1  UNL1        0.0660
     61 H          -5.0514   -3.8349    7.0462 H       1  UNL1        0.0660
     62 H          -1.6748   -3.8715    2.3533 H       1  UNL1        0.0837
     63 H          -1.4306   -5.0493   -2.5236 H       1  UNL1        0.0657
     64 H           0.6371   -4.2765   -5.0902 H       1  UNL1        0.0278
     65 H          -0.9553   -5.1593   -4.8992 H       1  UNL1        0.0278
     66 H          -0.9127   -3.6470   -5.8110 H       1  UNL1        0.0278
     67 H          -0.1135   -1.5286   -4.5523 H       1  UNL1        0.0635
     68 H          -0.6870   -0.1713   -2.5958 H       1  UNL1        0.0813
     69 H           2.6451   -2.6442    0.9351 H       1  UNL1        0.0630
     70 H           5.0604   -3.2972    0.7902 H       1  UNL1        0.0639
     71 H           5.7105    1.5086   -1.7754 H       1  UNL1        0.0626
     72 H           8.1136    0.9409   -1.9271 H       1  UNL1        0.0672
     73 H           7.2986   -3.9080   -0.4783 H       1  UNL1        0.0457
     74 H           8.6202   -2.9324    0.4332 H       1  UNL1        0.0457
     75 H           7.0461   -3.3301    1.2075 H       1  UNL1        0.0457
     76 H           3.5959    0.9398   -1.1030 H       1  UNL1        0.0636
@<TRIPOS>BOND
     1     1     2    1
     2     2     3    1
     3     3     4    1
     4     3     5    1
     5     5     6    2
     6     5     7   am
     7     7     8    1
     8     8     9   ar
     9     9    10   ar
    10    10    11   ar
    11    11    12    1
    12    12    13   ar
    13    13    14    1
    14    14    15   ar
    15    15    16   ar
    16    16    17   ar
    17    17    18    1
    18    18    19    1
    19    17    20   ar
    20    20    21   ar
    21    13    22   ar
    22    22    23   ar
    23    23    24   ar
    24    24    25   ar
    25    25    26    1
    26    25    27   ar
    27    27    28   ar
    28    28    29   ar
    29    11    30   ar
    30    30    31    1
    31    31    32    3
    32    32    33    1
    33    33    34   ar
    34    34    35   ar
    35    35    36   ar
    36    36    37   ar
    37    37    38   ar
    38    38    39   ar
    39    39    40   ar
    40    40    41    2
    41    40    42   ar
    42    42    43    1
    43    37    44   ar
    44    30    45   ar
    45    45     8   ar
    46    29    12   ar
    47    44    33   ar
    48    21    14   ar
    49    29    23   ar
    50    42    36   ar
    51     1    46    1
    52     1    47    1
    53     1    48    1
    54     2    49    1
    55     3    50    1
    56     4    51    1
    57     4    52    1
    58     4    53    1
    59     7    54    1
    60     9    55    1
    61    10    56    1
    62    15    57    1
    63    16    58    1
    64    19    59    1
    65    19    60    1
    66    19    61    1
    67    21    62    1
    68    24    63    1
    69    26    64    1
    70    26    65    1
    71    26    66    1
    72    27    67    1
    73    28    68    1
    74    34    69    1
    75    35    70    1
    76    38    71    1
    77    39    72    1
    78    43    73    1
    79    43    74    1
    80    43    75    1
    81    44    76    1
