
     RDKit          3D

 76 81  0  0  0  0  0  0  0  0999 V2000
   -3.3826    7.0253   -0.0670 C   0  0  0  0  0  0  0  0  0  0  0  0
   -2.2008    6.8485   -0.8467 N   0  0  0  0  0  0  0  0  0  0  0  0
   -1.0014    6.5667   -0.1797 C   0  0  1  0  0  0  0  0  0  0  0  0
   -0.5788    7.4697    0.9301 C   0  0  0  0  0  0  0  0  0  0  0  0
   -0.8296    5.1223    0.1826 C   0  0  0  0  0  0  0  0  0  0  0  0
    0.1001    4.5830    0.7025 O   0  0  0  0  0  0  0  0  0  0  0  0
   -1.9808    4.2735   -0.1805 N   0  0  0  0  0  0  0  0  0  0  0  0
   -1.8873    2.8718    0.0127 C   0  0  0  0  0  0  0  0  0  0  0  0
   -3.0508    2.1481   -0.2794 C   0  0  0  0  0  0  0  0  0  0  0  0
   -3.0355    0.8079   -0.3396 C   0  0  0  0  0  0  0  0  0  0  0  0
   -1.8564    0.0876   -0.1196 C   0  0  0  0  0  0  0  0  0  0  0  0
   -1.8700   -1.3283   -0.3338 C   0  0  0  0  0  0  0  0  0  0  0  0
   -2.3723   -2.3589    0.3574 C   0  0  0  0  0  0  0  0  0  0  0  0
   -3.0957   -2.4832    1.6119 C   0  0  0  0  0  0  0  0  0  0  0  0
   -4.2803   -1.8527    1.8814 C   0  0  0  0  0  0  0  0  0  0  0  0
   -4.9832   -2.0377    3.0197 C   0  0  0  0  0  0  0  0  0  0  0  0
   -4.4755   -2.9035    3.9490 C   0  0  0  0  0  0  0  0  0  0  0  0
   -5.1488   -3.1452    5.1481 O   0  0  0  0  0  0  0  0  0  0  0  0
   -4.5212   -4.0579    6.0552 C   0  0  0  0  0  0  0  0  0  0  0  0
   -3.2787   -3.5542    3.7066 N   0  0  0  0  0  0  0  0  0  0  0  0
   -2.5801   -3.3696    2.5749 C   0  0  0  0  0  0  0  0  0  0  0  0
   -2.1891   -3.5584   -0.3529 N   0  0  0  0  0  0  0  0  0  0  0  0
   -1.5834   -3.1842   -1.4618 C   0  0  0  0  0  0  0  0  0  0  0  0
   -1.2665   -3.9985   -2.5747 C   0  0  0  0  0  0  0  0  0  0  0  0
   -0.7436   -3.3962   -3.6804 C   0  0  0  0  0  0  0  0  0  0  0  0
   -0.4310   -4.1613   -4.9120 C   0  0  0  0  0  0  0  0  0  0  0  0
   -0.5306   -2.0297   -3.6867 C   0  0  0  0  0  0  0  0  0  0  0  0
   -0.8544   -1.2593   -2.5665 C   0  0  0  0  0  0  0  0  0  0  0  0
   -1.3631   -1.8723   -1.5089 N   0  0  0  0  0  0  0  0  0  0  0  0
   -0.7207    0.7820    0.1615 C   0  0  0  0  0  0  0  0  0  0  0  0
    0.5889    0.2300    0.0996 C   0  0  0  0  0  0  0  0  0  0  0  0
    1.6531   -0.2364    0.0367 C   0  0  0  0  0  0  0  0  0  0  0  0
    2.9962   -0.8446   -0.0534 C   0  0  0  0  0  0  0  0  0  0  0  0
    3.3658   -2.0135    0.4707 C   0  0  0  0  0  0  0  0  0  0  0  0
    4.7332   -2.3673    0.3781 C   0  0  0  0  0  0  0  0  0  0  0  0
    5.6557   -1.5587   -0.2187 C   0  0  0  0  0  0  0  0  0  0  0  0
    5.2505   -0.3391   -0.7628 C   0  0  0  0  0  0  0  0  0  0  0  0
    6.0997    0.5601   -1.3703 C   0  0  0  0  0  0  0  0  0  0  0  0
    7.4258    0.2442   -1.4493 C   0  0  0  0  0  0  0  0  0  0  0  0
    7.8368   -0.9647   -0.9034 C   0  0  0  0  0  0  0  0  0  0  0  0
    9.0815   -1.2224   -0.9810 O   0  0  0  0  0  0  0  0  0  0  0  0
    6.9819   -1.8379   -0.3090 N   0  0  0  0  0  0  0  0  0  0  0  0
    7.5125   -3.0815    0.2378 C   0  0  0  0  0  0  0  0  0  0  0  0
    3.9443   -0.0171   -0.6650 C   0  0  0  0  0  0  0  0  0  0  0  0
   -0.7993    2.1541    0.2211 N   0  0  0  0  0  0  0  0  0  0  0  0
   -3.8311    8.0427   -0.3130 H   0  0  0  0  0  0  0  0  0  0  0  0
   -4.2231    6.3399   -0.2630 H   0  0  0  0  0  0  0  0  0  0  0  0
   -3.0445    7.0259    1.0154 H   0  0  0  0  0  0  0  0  0  0  0  0
   -2.3531    6.2273   -1.6521 H   0  0  0  0  0  0  0  0  0  0  0  0
   -0.1770    6.7403   -0.9829 H   0  0  0  0  0  0  0  0  0  0  0  0
   -0.0658    8.3668    0.4773 H   0  0  0  0  0  0  0  0  0  0  0  0
   -1.3247    7.7399    1.6763 H   0  0  0  0  0  0  0  0  0  0  0  0
    0.2571    6.9305    1.4588 H   0  0  0  0  0  0  0  0  0  0  0  0
   -2.8091    4.7256   -0.5405 H   0  0  0  0  0  0  0  0  0  0  0  0
   -3.9553    2.7146   -0.4887 H   0  0  0  0  0  0  0  0  0  0  0  0
   -3.9449    0.2342   -0.5901 H   0  0  0  0  0  0  0  0  0  0  0  0
   -4.7364   -1.1475    1.1549 H   0  0  0  0  0  0  0  0  0  0  0  0
   -5.9255   -1.5168    3.1995 H   0  0  0  0  0  0  0  0  0  0  0  0
   -3.4537   -3.7891    6.1030 H   0  0  0  0  0  0  0  0  0  0  0  0
   -4.6496   -5.1142    5.8012 H   0  0  0  0  0  0  0  0  0  0  0  0
   -5.0514   -3.8349    7.0462 H   0  0  0  0  0  0  0  0  0  0  0  0
   -1.6748   -3.8715    2.3533 H   0  0  0  0  0  0  0  0  0  0  0  0
   -1.4306   -5.0493   -2.5236 H   0  0  0  0  0  0  0  0  0  0  0  0
    0.6371   -4.2765   -5.0902 H   0  0  0  0  0  0  0  0  0  0  0  0
   -0.9553   -5.1593   -4.8992 H   0  0  0  0  0  0  0  0  0  0  0  0
   -0.9127   -3.6470   -5.8110 H   0  0  0  0  0  0  0  0  0  0  0  0
   -0.1135   -1.5286   -4.5523 H   0  0  0  0  0  0  0  0  0  0  0  0
   -0.6870   -0.1713   -2.5958 H   0  0  0  0  0  0  0  0  0  0  0  0
    2.6451   -2.6442    0.9351 H   0  0  0  0  0  0  0  0  0  0  0  0
    5.0604   -3.2972    0.7902 H   0  0  0  0  0  0  0  0  0  0  0  0
    5.7105    1.5086   -1.7754 H   0  0  0  0  0  0  0  0  0  0  0  0
    8.1136    0.9409   -1.9271 H   0  0  0  0  0  0  0  0  0  0  0  0
    7.2986   -3.9080   -0.4783 H   0  0  0  0  0  0  0  0  0  0  0  0
    8.6202   -2.9324    0.4332 H   0  0  0  0  0  0  0  0  0  0  0  0
    7.0461   -3.3301    1.2075 H   0  0  0  0  0  0  0  0  0  0  0  0
    3.5959    0.9398   -1.1030 H   0  0  0  0  0  0  0  0  0  0  0  0
  1  2  1  0
  2  3  1  0
  3  4  1  0
  3  5  1  0
  5  6  2  0
  5  7  1  0
  7  8  1  0
  8  9  2  0
  9 10  1  0
 10 11  2  0
 11 12  1  0
 12 13  2  0
 13 14  1  0
 14 15  2  0
 15 16  1  0
 16 17  2  0
 17 18  1  0
 18 19  1  0
 17 20  1  0
 20 21  2  0
 13 22  1  0
 22 23  2  0
 23 24  1  0
 24 25  2  0
 25 26  1  0
 25 27  1  0
 27 28  2  0
 28 29  1  0
 11 30  1  0
 30 31  1  0
 31 32  3  0
 32 33  1  0
 33 34  2  0
 34 35  1  0
 35 36  2  0
 36 37  1  0
 37 38  1  0
 38 39  2  0
 39 40  1  0
 40 41  2  0
 40 42  1  0
 42 43  1  0
 37 44  2  0
 30 45  2  0
 45  8  1  0
 29 12  1  0
 44 33  1  0
 21 14  1  0
 29 23  1  0
 42 36  1  0
  1 46  1  0
  1 47  1  0
  1 48  1  0
  2 49  1  0
  3 50  1  6
  4 51  1  0
  4 52  1  0
  4 53  1  0
  7 54  1  0
  9 55  1  0
 10 56  1  0
 15 57  1  0
 16 58  1  0
 19 59  1  0
 19 60  1  0
 19 61  1  0
 21 62  1  0
 24 63  1  0
 26 64  1  0
 26 65  1  0
 26 66  1  0
 27 67  1  0
 28 68  1  0
 34 69  1  0
 35 70  1  0
 38 71  1  0
 39 72  1  0
 43 73  1  0
 43 74  1  0
 43 75  1  0
 44 76  1  0
M  END
$$$$
