@<TRIPOS>MOLECULE
*****
 55 57 0 0 0
SMALL
GASTEIGER

@<TRIPOS>ATOM
      1 C           1.3183    1.0409   -2.0168 C.3     1  UNL1        0.0370
      2 O           1.3500   -0.1037   -1.2391 O.3     1  UNL1       -0.3756
      3 C           1.2753    0.1711    0.1273 C.3     1  UNL1        0.1034
      4 C          -0.0511   -0.3648    0.6080 C.3     1  UNL1        0.0512
      5 C          -1.2132    0.4375    0.1550 C.3     1  UNL1        0.1015
      6 C          -1.3548    1.8889    0.5184 C.3     1  UNL1       -0.0329
      7 O          -1.7838    0.0768   -1.1379 O.3     1  UNL1       -0.3642
      8 C          -2.4979   -0.3247   -0.0253 C.3     1  UNL1        0.0920
      9 C          -3.8146    0.3525    0.2822 C.3     1  UNL1       -0.0054
     10 C          -4.9129   -0.5980    0.0272 C.2     1  UNL1       -0.0828
     11 C          -5.8788   -0.3627   -0.8641 C.2     1  UNL1       -0.0795
     12 C          -5.8962    0.8846   -1.6540 C.3     1  UNL1       -0.0440
     13 C          -6.9519   -1.3518   -1.0757 C.3     1  UNL1       -0.0440
     14 C           0.0521   -0.5835    2.0769 C.3     1  UNL1        0.1009
     15 C           0.9290   -1.7935    2.2688 C.3     1  UNL1       -0.0177
     16 C           2.2711   -1.5532    1.6935 C.3     1  UNL1       -0.0104
     17 C           2.4493   -0.3523    0.8630 C.3     1  UNL1        0.1312
     18 O           3.4866   -0.5976   -0.0759 O.3     1  UNL1       -0.4442
     19 C           4.6845    0.0730   -0.1046 C.2     1  UNL1        0.4070
     20 O           4.8745    0.9657    0.7608 O.2     1  UNL1       -0.2260
     21 N           5.6337   -0.2682   -1.0930 N.am    1  UNL1       -0.2206
     22 C           6.8670    0.4210   -1.1245 C.2     1  UNL1        0.2364
     23 O           7.0789    1.3105   -0.2772 O.2     1  UNL1       -0.2740
     24 C           7.8551    0.0489   -2.1723 C.3     1  UNL1        0.0993
     25 CL          9.3143    1.0253   -2.0314 Cl      1  UNL1       -0.1156
     26 C          -0.5739    0.1115    3.1164 C.3     1  UNL1        0.0779
     27 O           0.6969    0.5793    2.7426 O.3     1  UNL1       -0.3678
     28 H           2.1732    1.6947   -1.7598 H       1  UNL1        0.0524
     29 H           1.3151    0.7471   -3.0691 H       1  UNL1        0.0524
     30 H           0.4035    1.6182   -1.7712 H       1  UNL1        0.0524
     31 H           1.2075    1.2861    0.2090 H       1  UNL1        0.0637
     32 H          -0.1531   -1.3855    0.1334 H       1  UNL1        0.0385
     33 H          -2.3070    2.0301    1.0704 H       1  UNL1        0.0258
     34 H          -1.4264    2.5431   -0.3792 H       1  UNL1        0.0258
     35 H          -0.5423    2.2284    1.1914 H       1  UNL1        0.0258
     36 H          -2.5131   -1.4213    0.1379 H       1  UNL1        0.0628
     37 H          -3.8669    1.2704   -0.3000 H       1  UNL1        0.0333
     38 H          -3.8460    0.6144    1.3717 H       1  UNL1        0.0333
     39 H          -4.9190   -1.5207    0.5971 H       1  UNL1        0.0572
     40 H          -5.7012    1.7968   -1.0358 H       1  UNL1        0.0274
     41 H          -5.1728    0.8067   -2.5008 H       1  UNL1        0.0274
     42 H          -6.8940    1.0470   -2.1116 H       1  UNL1        0.0274
     43 H          -7.1604   -1.5299   -2.1594 H       1  UNL1        0.0274
     44 H          -6.6037   -2.3424   -0.6843 H       1  UNL1        0.0274
     45 H          -7.8432   -1.0249   -0.5233 H       1  UNL1        0.0274
     46 H           0.9519   -2.0719    3.3521 H       1  UNL1        0.0295
     47 H           0.4207   -2.6411    1.7619 H       1  UNL1        0.0295
     48 H           3.0009   -1.5212    2.5578 H       1  UNL1        0.0303
     49 H           2.5766   -2.4743    1.1284 H       1  UNL1        0.0303
     50 H           2.8498    0.4733    1.5194 H       1  UNL1        0.0761
     51 H           5.4513   -1.0198   -1.8069 H       1  UNL1        0.1609
     52 H           7.3351    0.1996   -3.1509 H       1  UNL1        0.0525
     53 H           8.0781   -1.0212   -2.1047 H       1  UNL1        0.0525
     54 H          -1.4079    0.8103    2.9286 H       1  UNL1        0.0589
     55 H          -0.6143   -0.3250    4.1366 H       1  UNL1        0.0589
@<TRIPOS>BOND
     1     1     2    1
     2     2     3    1
     3     3     4    1
     4     4     5    1
     5     5     6    1
     6     5     7    1
     7     7     8    1
     8     8     9    1
     9     9    10    1
    10    10    11    2
    11    11    12    1
    12    11    13    1
    13     4    14    1
    14    14    15    1
    15    15    16    1
    16    16    17    1
    17    17    18    1
    18    18    19    1
    19    19    20    2
    20    19    21   am
    21    21    22   am
    22    22    23    2
    23    22    24    1
    24    24    25    1
    25    14    26    1
    26    26    27    1
    27    17     3    1
    28     8     5    1
    29    14    27    1
    30     1    28    1
    31     1    29    1
    32     1    30    1
    33     3    31    1
    34     4    32    1
    35     6    33    1
    36     6    34    1
    37     6    35    1
    38     8    36    1
    39     9    37    1
    40     9    38    1
    41    10    39    1
    42    12    40    1
    43    12    41    1
    44    12    42    1
    45    13    43    1
    46    13    44    1
    47    13    45    1
    48    15    46    1
    49    15    47    1
    50    16    48    1
    51    16    49    1
    52    17    50    1
    53    21    51    1
    54    24    52    1
    55    24    53    1
    56    26    54    1
    57    26    55    1
