
     RDKit          3D

 55 57  0  0  0  0  0  0  0  0999 V2000
    1.3183    1.0409   -2.0168 C   0  0  0  0  0  0  0  0  0  0  0  0
    1.3500   -0.1037   -1.2391 O   0  0  0  0  0  0  0  0  0  0  0  0
    1.2753    0.1711    0.1273 C   0  0  1  0  0  0  0  0  0  0  0  0
   -0.0511   -0.3648    0.6080 C   0  0  2  0  0  0  0  0  0  0  0  0
   -1.2132    0.4375    0.1550 C   0  0  1  0  0  0  0  0  0  0  0  0
   -1.3548    1.8889    0.5184 C   0  0  0  0  0  0  0  0  0  0  0  0
   -1.7838    0.0768   -1.1379 O   0  0  0  0  0  0  0  0  0  0  0  0
   -2.4979   -0.3247   -0.0253 C   0  0  2  0  0  0  0  0  0  0  0  0
   -3.8146    0.3525    0.2822 C   0  0  0  0  0  0  0  0  0  0  0  0
   -4.9129   -0.5980    0.0272 C   0  0  0  0  0  0  0  0  0  0  0  0
   -5.8788   -0.3627   -0.8641 C   0  0  0  0  0  0  0  0  0  0  0  0
   -5.8962    0.8846   -1.6540 C   0  0  0  0  0  0  0  0  0  0  0  0
   -6.9519   -1.3518   -1.0757 C   0  0  0  0  0  0  0  0  0  0  0  0
    0.0521   -0.5835    2.0769 C   0  0  2  0  0  0  0  0  0  0  0  0
    0.9290   -1.7935    2.2688 C   0  0  0  0  0  0  0  0  0  0  0  0
    2.2711   -1.5532    1.6935 C   0  0  0  0  0  0  0  0  0  0  0  0
    2.4493   -0.3523    0.8630 C   0  0  1  0  0  0  0  0  0  0  0  0
    3.4866   -0.5976   -0.0759 O   0  0  0  0  0  0  0  0  0  0  0  0
    4.6845    0.0730   -0.1046 C   0  0  0  0  0  0  0  0  0  0  0  0
    4.8745    0.9657    0.7608 O   0  0  0  0  0  0  0  0  0  0  0  0
    5.6337   -0.2682   -1.0930 N   0  0  0  0  0  0  0  0  0  0  0  0
    6.8670    0.4210   -1.1245 C   0  0  0  0  0  0  0  0  0  0  0  0
    7.0789    1.3105   -0.2772 O   0  0  0  0  0  0  0  0  0  0  0  0
    7.8551    0.0489   -2.1723 C   0  0  0  0  0  0  0  0  0  0  0  0
    9.3143    1.0253   -2.0314 Cl  0  0  0  0  0  0  0  0  0  0  0  0
   -0.5739    0.1115    3.1164 C   0  0  0  0  0  0  0  0  0  0  0  0
    0.6969    0.5793    2.7426 O   0  0  0  0  0  0  0  0  0  0  0  0
    2.1732    1.6947   -1.7598 H   0  0  0  0  0  0  0  0  0  0  0  0
    1.3151    0.7471   -3.0691 H   0  0  0  0  0  0  0  0  0  0  0  0
    0.4035    1.6182   -1.7712 H   0  0  0  0  0  0  0  0  0  0  0  0
    1.2075    1.2861    0.2090 H   0  0  0  0  0  0  0  0  0  0  0  0
   -0.1531   -1.3855    0.1334 H   0  0  0  0  0  0  0  0  0  0  0  0
   -2.3070    2.0301    1.0704 H   0  0  0  0  0  0  0  0  0  0  0  0
   -1.4264    2.5431   -0.3792 H   0  0  0  0  0  0  0  0  0  0  0  0
   -0.5423    2.2284    1.1914 H   0  0  0  0  0  0  0  0  0  0  0  0
   -2.5131   -1.4213    0.1379 H   0  0  0  0  0  0  0  0  0  0  0  0
   -3.8669    1.2704   -0.3000 H   0  0  0  0  0  0  0  0  0  0  0  0
   -3.8460    0.6144    1.3717 H   0  0  0  0  0  0  0  0  0  0  0  0
   -4.9190   -1.5207    0.5971 H   0  0  0  0  0  0  0  0  0  0  0  0
   -5.7012    1.7968   -1.0358 H   0  0  0  0  0  0  0  0  0  0  0  0
   -5.1728    0.8067   -2.5008 H   0  0  0  0  0  0  0  0  0  0  0  0
   -6.8940    1.0470   -2.1116 H   0  0  0  0  0  0  0  0  0  0  0  0
   -7.1604   -1.5299   -2.1594 H   0  0  0  0  0  0  0  0  0  0  0  0
   -6.6037   -2.3424   -0.6843 H   0  0  0  0  0  0  0  0  0  0  0  0
   -7.8432   -1.0249   -0.5233 H   0  0  0  0  0  0  0  0  0  0  0  0
    0.9519   -2.0719    3.3521 H   0  0  0  0  0  0  0  0  0  0  0  0
    0.4207   -2.6411    1.7619 H   0  0  0  0  0  0  0  0  0  0  0  0
    3.0009   -1.5212    2.5578 H   0  0  0  0  0  0  0  0  0  0  0  0
    2.5766   -2.4743    1.1284 H   0  0  0  0  0  0  0  0  0  0  0  0
    2.8498    0.4733    1.5194 H   0  0  0  0  0  0  0  0  0  0  0  0
    5.4513   -1.0198   -1.8069 H   0  0  0  0  0  0  0  0  0  0  0  0
    7.3351    0.1996   -3.1509 H   0  0  0  0  0  0  0  0  0  0  0  0
    8.0781   -1.0212   -2.1047 H   0  0  0  0  0  0  0  0  0  0  0  0
   -1.4079    0.8103    2.9286 H   0  0  0  0  0  0  0  0  0  0  0  0
   -0.6143   -0.3250    4.1366 H   0  0  0  0  0  0  0  0  0  0  0  0
  1  2  1  0
  2  3  1  0
  3  4  1  0
  4  5  1  0
  5  6  1  6
  5  7  1  0
  7  8  1  0
  8  9  1  0
  9 10  1  0
 10 11  2  3
 11 12  1  0
 11 13  1  0
  4 14  1  0
 14 15  1  0
 15 16  1  0
 16 17  1  0
 17 18  1  0
 18 19  1  0
 19 20  2  0
 19 21  1  0
 21 22  1  0
 22 23  2  0
 22 24  1  0
 24 25  1  0
 14 26  1  0
 26 27  1  0
 17  3  1  0
  8  5  1  0
 14 27  1  1
  1 28  1  0
  1 29  1  0
  1 30  1  0
  3 31  1  6
  4 32  1  6
  6 33  1  0
  6 34  1  0
  6 35  1  0
  8 36  1  1
  9 37  1  0
  9 38  1  0
 10 39  1  0
 12 40  1  0
 12 41  1  0
 12 42  1  0
 13 43  1  0
 13 44  1  0
 13 45  1  0
 15 46  1  0
 15 47  1  0
 16 48  1  0
 16 49  1  0
 17 50  1  1
 21 51  1  0
 24 52  1  0
 24 53  1  0
 26 54  1  0
 26 55  1  0
M  END
$$$$
