
     RDKit          3D

 39 42  0  0  0  0  0  0  0  0999 V2000
    3.8062   -0.4456   -1.3572 C   0  0  0  0  0  0  0  0  0  0  0  0
    3.3440   -0.2247    0.0837 C   0  0  0  0  0  0  0  0  0  0  0  0
    3.8766   -1.3065    0.9948 C   0  0  0  0  0  0  0  0  0  0  0  0
    3.9222    1.0881    0.5696 C   0  0  0  0  0  0  0  0  0  0  0  0
    1.8680   -0.1868    0.0571 C   0  0  0  0  0  0  0  0  0  0  0  0
    1.1606    0.9399   -0.1160 N   0  0  0  0  0  0  0  0  0  0  0  0
   -0.1534    0.6571   -0.0939 C   0  0  0  0  0  0  0  0  0  0  0  0
   -1.2459    1.4733   -0.2276 C   0  0  0  0  0  0  0  0  0  0  0  0
   -1.0493    2.8251   -0.4204 C   0  0  0  0  0  0  0  0  0  0  0  0
   -2.1524    3.6331   -0.5531 C   0  0  0  0  0  0  0  0  0  0  0  0
   -3.3838    3.1135   -0.4955 N   0  0  0  0  0  0  0  0  0  0  0  0
   -3.6283    1.7795   -0.3060 C   0  0  0  0  0  0  0  0  0  0  0  0
   -4.8045    1.3851   -0.2658 O   0  0  0  0  0  0  0  0  0  0  0  0
   -2.5423    0.9551   -0.1712 C   0  0  0  0  0  0  0  0  0  0  0  0
   -2.6994   -0.4046    0.0232 C   0  0  0  0  0  0  0  0  0  0  0  0
   -3.9488   -0.9528    0.0847 C   0  0  0  0  0  0  0  0  0  0  0  0
   -4.0452   -2.3456    0.2848 C   0  0  0  0  0  0  0  0  0  0  0  0
   -5.2892   -2.8875    0.3454 F   0  0  0  0  0  0  0  0  0  0  0  0
   -2.9356   -3.1311    0.4143 C   0  0  0  0  0  0  0  0  0  0  0  0
   -1.6939   -2.5509    0.3481 C   0  0  0  0  0  0  0  0  0  0  0  0
   -1.5523   -1.1936    0.1538 C   0  0  0  0  0  0  0  0  0  0  0  0
   -0.2738   -0.6873    0.0988 C   0  0  0  0  0  0  0  0  0  0  0  0
    0.9642   -1.1863    0.1887 N   0  0  0  0  0  0  0  0  0  0  0  0
    4.8611   -0.1057   -1.3893 H   0  0  0  0  0  0  0  0  0  0  0  0
    3.1580    0.1930   -1.9844 H   0  0  0  0  0  0  0  0  0  0  0  0
    3.6789   -1.5097   -1.5631 H   0  0  0  0  0  0  0  0  0  0  0  0
    4.3894   -2.0555    0.3529 H   0  0  0  0  0  0  0  0  0  0  0  0
    4.6489   -0.9264    1.6986 H   0  0  0  0  0  0  0  0  0  0  0  0
    3.0449   -1.7492    1.5775 H   0  0  0  0  0  0  0  0  0  0  0  0
    3.3536    1.9424    0.1911 H   0  0  0  0  0  0  0  0  0  0  0  0
    4.9918    1.1106    0.2077 H   0  0  0  0  0  0  0  0  0  0  0  0
    4.0115    1.0815    1.6834 H   0  0  0  0  0  0  0  0  0  0  0  0
   -0.0369    3.1869   -0.4582 H   0  0  0  0  0  0  0  0  0  0  0  0
   -1.9842    4.7036   -0.7055 H   0  0  0  0  0  0  0  0  0  0  0  0
   -4.2231    3.7147   -0.5945 H   0  0  0  0  0  0  0  0  0  0  0  0
   -4.8589   -0.4022   -0.0080 H   0  0  0  0  0  0  0  0  0  0  0  0
   -3.0150   -4.2117    0.5695 H   0  0  0  0  0  0  0  0  0  0  0  0
   -0.7800   -3.1367    0.4459 H   0  0  0  0  0  0  0  0  0  0  0  0
    1.2164   -2.1821    0.3364 H   0  0  0  0  0  0  0  0  0  0  0  0
  1  2  1  0
  2  3  1  0
  2  4  1  0
  2  5  1  0
  5  6  2  0
  6  7  1  0
  7  8  2  0
  8  9  1  0
  9 10  2  0
 10 11  1  0
 11 12  1  0
 12 13  2  0
 12 14  1  0
 14 15  2  0
 15 16  1  0
 16 17  2  0
 17 18  1  0
 17 19  1  0
 19 20  2  0
 20 21  1  0
 21 22  2  0
 22 23  1  0
 23  5  1  0
 22  7  1  0
 14  8  1  0
 21 15  1  0
  1 24  1  0
  1 25  1  0
  1 26  1  0
  3 27  1  0
  3 28  1  0
  3 29  1  0
  4 30  1  0
  4 31  1  0
  4 32  1  0
  9 33  1  0
 10 34  1  0
 11 35  1  0
 16 36  1  0
 19 37  1  0
 20 38  1  0
 23 39  1  0
M  END
$$$$
