@<TRIPOS>MOLECULE
*****
 39 42 0 0 0
SMALL
GASTEIGER

@<TRIPOS>ATOM
      1 C           3.8062   -0.4456   -1.3572 C.3     1  UNL1       -0.0532
      2 C           3.3440   -0.2247    0.0837 C.3     1  UNL1        0.0202
      3 C           3.8766   -1.3065    0.9948 C.3     1  UNL1       -0.0532
      4 C           3.9222    1.0881    0.5696 C.3     1  UNL1       -0.0532
      5 C           1.8680   -0.1868    0.0571 C.ar    1  UNL1        0.1136
      6 N           1.1606    0.9399   -0.1160 N.ar    1  UNL1       -0.2313
      7 C          -0.1534    0.6571   -0.0939 C.ar    1  UNL1        0.0976
      8 C          -1.2459    1.4733   -0.2276 C.ar    1  UNL1        0.0167
      9 C          -1.0493    2.8251   -0.4204 C.ar    1  UNL1       -0.0357
     10 C          -2.1524    3.6331   -0.5531 C.ar    1  UNL1        0.0056
     11 N          -3.3838    3.1135   -0.4955 N.ar    1  UNL1       -0.3286
     12 C          -3.6283    1.7795   -0.3060 C.ar    1  UNL1        0.2571
     13 O          -4.8045    1.3851   -0.2658 O.2     1  UNL1       -0.2672
     14 C          -2.5423    0.9551   -0.1712 C.ar    1  UNL1        0.0564
     15 C          -2.6994   -0.4046    0.0232 C.ar    1  UNL1       -0.0002
     16 C          -3.9488   -0.9528    0.0847 C.ar    1  UNL1       -0.0179
     17 C          -4.0452   -2.3456    0.2848 C.ar    1  UNL1        0.1240
     18 F          -5.2892   -2.8875    0.3454 F       1  UNL1       -0.2055
     19 C          -2.9356   -3.1311    0.4143 C.ar    1  UNL1       -0.0258
     20 C          -1.6939   -2.5509    0.3481 C.ar    1  UNL1       -0.0493
     21 C          -1.5523   -1.1936    0.1538 C.ar    1  UNL1        0.0085
     22 C          -0.2738   -0.6873    0.0988 C.ar    1  UNL1        0.0746
     23 N           0.9642   -1.1863    0.1887 N.ar    1  UNL1       -0.3409
     24 H           4.8611   -0.1057   -1.3893 H       1  UNL1        0.0239
     25 H           3.1580    0.1930   -1.9844 H       1  UNL1        0.0239
     26 H           3.6789   -1.5097   -1.5631 H       1  UNL1        0.0239
     27 H           4.3894   -2.0555    0.3529 H       1  UNL1        0.0239
     28 H           4.6489   -0.9264    1.6986 H       1  UNL1        0.0239
     29 H           3.0449   -1.7492    1.5775 H       1  UNL1        0.0239
     30 H           3.3536    1.9424    0.1911 H       1  UNL1        0.0239
     31 H           4.9918    1.1106    0.2077 H       1  UNL1        0.0239
     32 H           4.0115    1.0815    1.6834 H       1  UNL1        0.0239
     33 H          -0.0369    3.1869   -0.4582 H       1  UNL1        0.0639
     34 H          -1.9842    4.7036   -0.7055 H       1  UNL1        0.0808
     35 H          -4.2231    3.7147   -0.5945 H       1  UNL1        0.1683
     36 H          -4.8589   -0.4022   -0.0080 H       1  UNL1        0.0652
     37 H          -3.0150   -4.2117    0.5695 H       1  UNL1        0.0646
     38 H          -0.7800   -3.1367    0.4459 H       1  UNL1        0.0625
     39 H           1.2164   -2.1821    0.3364 H       1  UNL1        0.1671
@<TRIPOS>BOND
     1     1     2    1
     2     2     3    1
     3     2     4    1
     4     2     5    1
     5     5     6   ar
     6     6     7   ar
     7     7     8   ar
     8     8     9   ar
     9     9    10   ar
    10    10    11   ar
    11    11    12   ar
    12    12    13    2
    13    12    14   ar
    14    14    15   ar
    15    15    16   ar
    16    16    17   ar
    17    17    18    1
    18    17    19   ar
    19    19    20   ar
    20    20    21   ar
    21    21    22   ar
    22    22    23   ar
    23    23     5   ar
    24    22     7   ar
    25    14     8   ar
    26    21    15   ar
    27     1    24    1
    28     1    25    1
    29     1    26    1
    30     3    27    1
    31     3    28    1
    32     3    29    1
    33     4    30    1
    34     4    31    1
    35     4    32    1
    36     9    33    1
    37    10    34    1
    38    11    35    1
    39    16    36    1
    40    19    37    1
    41    20    38    1
    42    23    39    1
