@<TRIPOS>MOLECULE
*****
 54 57 0 0 0
SMALL
GASTEIGER

@<TRIPOS>ATOM
      1 C           1.2364    0.6518    1.1978 C.3     1  UNL1        0.0720
      2 C           2.1896   -0.4546    1.3089 C.2     1  UNL1       -0.0540
      3 C           2.2985   -0.9185    0.0922 C.2     1  UNL1       -0.0219
      4 C           1.3947   -0.0576   -0.6965 C.3     1  UNL1        0.0425
      5 N           0.2569    0.2333    0.1856 N.am    1  UNL1       -0.2706
      6 C          -1.1622    0.2825    0.4519 C.2     1  UNL1        0.3058
      7 O          -1.6162    0.6886    1.5787 O.2     1  UNL1       -0.2524
      8 N          -2.1022   -0.1177   -0.5267 N.am    1  UNL1       -0.2854
      9 C          -1.6512   -0.5906   -1.8355 C.3     1  UNL1        0.0049
     10 C          -3.5187   -0.0732   -0.2674 C.3     1  UNL1        0.0295
     11 C          -3.8718   -1.0462    0.8539 C.3     1  UNL1       -0.0216
     12 C          -5.3930   -1.0784    0.9812 C.3     1  UNL1       -0.0024
     13 N          -5.9354    0.2273    1.2152 N.3     1  UNL1       -0.3159
     14 C          -4.9341    1.2550    1.3322 C.3     1  UNL1       -0.0024
     15 C          -3.9886    1.2934    0.1771 C.3     1  UNL1       -0.0216
     16 C           3.0989   -2.0162   -0.4320 C.ar    1  UNL1        0.0173
     17 C           3.0871   -2.3670   -1.7663 C.ar    1  UNL1       -0.0163
     18 C           3.8273   -3.3980   -2.3076 C.ar    1  UNL1        0.1241
     19 F           3.7740   -3.6944   -3.6241 F       1  UNL1       -0.2055
     20 C           4.6405   -4.1437   -1.4887 C.ar    1  UNL1       -0.0237
     21 C           4.6883   -3.8336   -0.1467 C.ar    1  UNL1       -0.0231
     22 C           3.9289   -2.7936    0.3442 C.ar    1  UNL1        0.1310
     23 F           4.0417   -2.5685    1.6590 F       1  UNL1       -0.2049
     24 C           1.9473    1.8941    0.7993 C.ar    1  UNL1       -0.0231
     25 C           1.0856    2.8594    0.2982 C.ar    1  UNL1       -0.0565
     26 C           1.5803    4.0954   -0.1270 C.ar    1  UNL1       -0.0614
     27 C           2.9340    4.3354   -0.0392 C.ar    1  UNL1       -0.0617
     28 C           3.7884    3.3808    0.4567 C.ar    1  UNL1       -0.0614
     29 C           3.2908    2.1737    0.8700 C.ar    1  UNL1       -0.0565
     30 H           0.7785    0.8003    2.1921 H       1  UNL1        0.0596
     31 H           2.6914   -0.8115    2.1892 H       1  UNL1        0.0597
     32 H           1.9375    0.8605   -0.9636 H       1  UNL1        0.0515
     33 H           1.1177   -0.5871   -1.6070 H       1  UNL1        0.0515
     34 H          -1.0331    0.1200   -2.3774 H       1  UNL1        0.0429
     35 H          -2.5175   -0.8658   -2.4727 H       1  UNL1        0.0429
     36 H          -1.0817   -1.5226   -1.6782 H       1  UNL1        0.0429
     37 H          -4.0949   -0.4229   -1.1523 H       1  UNL1        0.0502
     38 H          -3.4385   -0.7513    1.8104 H       1  UNL1        0.0295
     39 H          -3.5403   -2.0481    0.5226 H       1  UNL1        0.0295
     40 H          -5.6679   -1.7359    1.8227 H       1  UNL1        0.0425
     41 H          -5.7931   -1.4628    0.0203 H       1  UNL1        0.0425
     42 H          -6.6777    0.5352    0.5781 H       1  UNL1        0.1219
     43 H          -5.4463    2.2333    1.3926 H       1  UNL1        0.0425
     44 H          -4.4339    1.1175    2.3112 H       1  UNL1        0.0425
     45 H          -4.5639    1.7351   -0.6862 H       1  UNL1        0.0295
     46 H          -3.1773    1.9927    0.3777 H       1  UNL1        0.0295
     47 H           2.4738   -1.8299   -2.4772 H       1  UNL1        0.0653
     48 H           5.2174   -4.9493   -1.9181 H       1  UNL1        0.0647
     49 H           5.3393   -4.4447    0.4576 H       1  UNL1        0.0647
     50 H           0.0134    2.7673    0.1895 H       1  UNL1        0.0621
     51 H           0.9309    4.8699   -0.5235 H       1  UNL1        0.0618
     52 H           3.3143    5.2943   -0.3696 H       1  UNL1        0.0618
     53 H           4.8722    3.5360    0.5417 H       1  UNL1        0.0618
     54 H           3.8640    1.3504    1.2755 H       1  UNL1        0.0621
@<TRIPOS>BOND
     1     1     2    1
     2     2     3    2
     3     3     4    1
     4     4     5    1
     5     5     6   am
     6     6     7    2
     7     6     8   am
     8     8     9    1
     9     8    10    1
    10    10    11    1
    11    11    12    1
    12    12    13    1
    13    13    14    1
    14    14    15    1
    15     3    16    1
    16    16    17   ar
    17    17    18   ar
    18    18    19    1
    19    18    20   ar
    20    20    21   ar
    21    21    22   ar
    22    22    23    1
    23     1    24    1
    24    24    25   ar
    25    25    26   ar
    26    26    27   ar
    27    27    28   ar
    28    28    29   ar
    29     5     1    1
    30    15    10    1
    31    22    16   ar
    32    29    24   ar
    33     1    30    1
    34     2    31    1
    35     4    32    1
    36     4    33    1
    37     9    34    1
    38     9    35    1
    39     9    36    1
    40    10    37    1
    41    11    38    1
    42    11    39    1
    43    12    40    1
    44    12    41    1
    45    13    42    1
    46    14    43    1
    47    14    44    1
    48    15    45    1
    49    15    46    1
    50    17    47    1
    51    20    48    1
    52    21    49    1
    53    25    50    1
    54    26    51    1
    55    27    52    1
    56    28    53    1
    57    29    54    1
