@<TRIPOS>MOLECULE
*****
 69 72 0 0 0
SMALL
GASTEIGER

@<TRIPOS>ATOM
      1 C          -0.7366   -0.3848    4.7041 C.3     1  UNL1       -0.0468
      2 C          -1.1606    0.3834    3.5284 C.3     1  UNL1        0.0189
      3 C          -2.6910    0.0135    3.3530 C.3     1  UNL1       -0.0468
      4 N          -0.5492   -0.0752    2.2528 N.am    1  UNL1       -0.2969
      5 C          -0.8356    0.7250    1.1317 C.2     1  UNL1        0.3030
      6 O          -1.5728    1.7304    1.1877 O.2     1  UNL1       -0.2526
      7 N          -0.3069    0.3489   -0.1200 N.am    1  UNL1       -0.2770
      8 C           0.7167   -0.4868   -0.5321 C.3     1  UNL1        0.0416
      9 C           1.6158   -1.2013    0.3306 C.ar    1  UNL1       -0.0289
     10 C           1.2323   -2.5166    0.8768 C.ar    1  UNL1       -0.0570
     11 C           2.2237   -3.1400    1.5674 C.ar    1  UNL1       -0.0603
     12 C           3.4918   -2.7275    1.8077 C.ar    1  UNL1       -0.0463
     13 C           3.9342   -1.4754    1.2975 C.ar    1  UNL1        0.0256
     14 C           5.1242   -1.1161    0.9612 C.1     1  UNL1       -0.0610
     15 C           6.3889   -0.7201    0.5928 C.1     1  UNL1       -0.0610
     16 C           7.6416   -0.3191    0.2181 C.ar    1  UNL1        0.0253
     17 C           8.2212   -0.7296   -0.9404 C.ar    1  UNL1       -0.0458
     18 C           9.1899   -0.3041   -1.6984 C.ar    1  UNL1       -0.0490
     19 C           9.8656    0.9447   -1.2131 C.ar    1  UNL1        0.0549
     20 C          10.7668    1.5258   -2.1936 C.3     1  UNL1        0.4174
     21 F          11.8477    2.0842   -1.6006 F       1  UNL1       -0.1659
     22 F          10.0128    2.5178   -2.9326 F       1  UNL1       -0.1659
     23 F          11.1222    0.6285   -3.2005 F       1  UNL1       -0.1659
     24 C           9.3291    1.3755   -0.0443 C.ar    1  UNL1       -0.0490
     25 C           8.3268    0.9052    0.7157 C.ar    1  UNL1       -0.0458
     26 C           2.8320   -0.8565    0.5931 C.ar    1  UNL1       -0.0416
     27 C          -1.0551    0.9549   -1.3181 C.3     1  UNL1        0.0416
     28 C          -2.3271    0.2219   -1.3500 C.ar    1  UNL1       -0.0289
     29 C          -2.3505   -1.0600   -0.8115 C.ar    1  UNL1       -0.0570
     30 C          -3.5419   -1.7676   -0.8429 C.ar    1  UNL1       -0.0603
     31 C          -4.6439   -1.2574   -1.3766 C.ar    1  UNL1       -0.0463
     32 C          -4.6338    0.0455   -1.9189 C.ar    1  UNL1        0.0256
     33 C          -6.0308    0.6462   -1.9353 C.1     1  UNL1       -0.0610
     34 C          -7.1455    1.1380   -1.9659 C.1     1  UNL1       -0.0595
     35 C          -8.3796    1.6866   -1.9869 C.ar    1  UNL1        0.0433
     36 C          -9.5399    0.8593   -1.8388 C.ar    1  UNL1       -0.0434
     37 C         -10.7945    1.1046   -1.9422 C.ar    1  UNL1       -0.0424
     38 C         -11.0759    2.5181   -2.2916 C.ar    1  UNL1        0.0276
     39 N         -10.0476    3.3435   -2.4645 N.ar    1  UNL1       -0.2620
     40 C          -8.7329    2.9634   -2.3208 C.ar    1  UNL1        0.0429
     41 C          -3.5345    0.7579   -1.9117 C.ar    1  UNL1       -0.0416
     42 H          -1.1710   -1.4545    4.6297 H       1  UNL1        0.0247
     43 H          -1.2498   -0.0178    5.6607 H       1  UNL1        0.0247
     44 H           0.3404   -0.4648    4.9219 H       1  UNL1        0.0247
     45 H          -1.1038    1.4413    3.6004 H       1  UNL1        0.0493
     46 H          -2.6810   -1.1319    3.4146 H       1  UNL1        0.0247
     47 H          -2.9570    0.3306    2.3640 H       1  UNL1        0.0247
     48 H          -3.2624    0.3182    4.2018 H       1  UNL1        0.0247
     49 H          -0.0263   -0.8934    2.3206 H       1  UNL1        0.1505
     50 H           1.4848    0.3120   -1.1020 H       1  UNL1        0.0514
     51 H           0.5350   -1.1586   -1.4405 H       1  UNL1        0.0514
     52 H           0.2538   -2.8405    0.6346 H       1  UNL1        0.0621
     53 H           1.9374   -4.1086    2.0138 H       1  UNL1        0.0618
     54 H           4.2439   -3.2580    2.3478 H       1  UNL1        0.0630
     55 H           7.6644   -1.7068   -1.3122 H       1  UNL1        0.0630
     56 H           9.5702   -0.6980   -2.6141 H       1  UNL1        0.0623
     57 H           9.8063    2.3281    0.3673 H       1  UNL1        0.0623
     58 H           7.9256    1.2164    1.6236 H       1  UNL1        0.0630
     59 H           3.2400    0.1840    0.2437 H       1  UNL1        0.0633
     60 H          -1.1215    1.9919   -1.0251 H       1  UNL1        0.0514
     61 H          -0.4709    0.8135   -2.2232 H       1  UNL1        0.0514
     62 H          -1.4755   -1.4592   -0.3570 H       1  UNL1        0.0621
     63 H          -3.5723   -2.7494   -0.3959 H       1  UNL1        0.0618
     64 H          -5.5999   -1.7679   -1.3521 H       1  UNL1        0.0630
     65 H          -9.2435   -0.2653   -1.7774 H       1  UNL1        0.0631
     66 H         -11.6788    0.5044   -1.8422 H       1  UNL1        0.0633
     67 H         -12.1250    2.7514   -2.3340 H       1  UNL1        0.0829
     68 H          -7.9419    3.6371   -2.5885 H       1  UNL1        0.0842
     69 H          -3.5184    1.7688   -2.3480 H       1  UNL1        0.0633
@<TRIPOS>BOND
     1     1     2    1
     2     2     3    1
     3     2     4    1
     4     4     5   am
     5     5     6    2
     6     5     7   am
     7     7     8    1
     8     8     9    1
     9     9    10   ar
    10    10    11   ar
    11    11    12   ar
    12    12    13   ar
    13    13    14    1
    14    14    15    3
    15    15    16    1
    16    16    17   ar
    17    17    18   ar
    18    18    19   ar
    19    19    20    1
    20    20    21    1
    21    20    22    1
    22    20    23    1
    23    19    24   ar
    24    24    25   ar
    25    13    26   ar
    26     7    27    1
    27    27    28    1
    28    28    29   ar
    29    29    30   ar
    30    30    31   ar
    31    31    32   ar
    32    32    33    1
    33    33    34    3
    34    34    35    1
    35    35    36   ar
    36    36    37   ar
    37    37    38   ar
    38    38    39   ar
    39    39    40   ar
    40    32    41   ar
    41    26     9   ar
    42    41    28   ar
    43    25    16   ar
    44    40    35   ar
    45     1    42    1
    46     1    43    1
    47     1    44    1
    48     2    45    1
    49     3    46    1
    50     3    47    1
    51     3    48    1
    52     4    49    1
    53     8    50    1
    54     8    51    1
    55    10    52    1
    56    11    53    1
    57    12    54    1
    58    17    55    1
    59    18    56    1
    60    24    57    1
    61    25    58    1
    62    26    59    1
    63    27    60    1
    64    27    61    1
    65    29    62    1
    66    30    63    1
    67    31    64    1
    68    36    65    1
    69    37    66    1
    70    38    67    1
    71    40    68    1
    72    41    69    1
