
     RDKit          3D

 69 72  0  0  0  0  0  0  0  0999 V2000
   -0.7366   -0.3848    4.7041 C   0  0  0  0  0  0  0  0  0  0  0  0
   -1.1606    0.3834    3.5284 C   0  0  0  0  0  0  0  0  0  0  0  0
   -2.6910    0.0135    3.3530 C   0  0  0  0  0  0  0  0  0  0  0  0
   -0.5492   -0.0752    2.2528 N   0  0  0  0  0  0  0  0  0  0  0  0
   -0.8356    0.7250    1.1317 C   0  0  0  0  0  0  0  0  0  0  0  0
   -1.5728    1.7304    1.1877 O   0  0  0  0  0  0  0  0  0  0  0  0
   -0.3069    0.3489   -0.1200 N   0  0  0  0  0  0  0  0  0  0  0  0
    0.7167   -0.4868   -0.5321 C   0  0  0  0  0  0  0  0  0  0  0  0
    1.6158   -1.2013    0.3306 C   0  0  0  0  0  0  0  0  0  0  0  0
    1.2323   -2.5166    0.8768 C   0  0  0  0  0  0  0  0  0  0  0  0
    2.2237   -3.1400    1.5674 C   0  0  0  0  0  0  0  0  0  0  0  0
    3.4918   -2.7275    1.8077 C   0  0  0  0  0  0  0  0  0  0  0  0
    3.9342   -1.4754    1.2975 C   0  0  0  0  0  0  0  0  0  0  0  0
    5.1242   -1.1161    0.9612 C   0  0  0  0  0  0  0  0  0  0  0  0
    6.3889   -0.7201    0.5928 C   0  0  0  0  0  0  0  0  0  0  0  0
    7.6416   -0.3191    0.2181 C   0  0  0  0  0  0  0  0  0  0  0  0
    8.2212   -0.7296   -0.9404 C   0  0  0  0  0  0  0  0  0  0  0  0
    9.1899   -0.3041   -1.6984 C   0  0  0  0  0  0  0  0  0  0  0  0
    9.8656    0.9447   -1.2131 C   0  0  0  0  0  0  0  0  0  0  0  0
   10.7668    1.5258   -2.1936 C   0  0  0  0  0  0  0  0  0  0  0  0
   11.8477    2.0842   -1.6006 F   0  0  0  0  0  0  0  0  0  0  0  0
   10.0128    2.5178   -2.9326 F   0  0  0  0  0  0  0  0  0  0  0  0
   11.1222    0.6285   -3.2005 F   0  0  0  0  0  0  0  0  0  0  0  0
    9.3291    1.3755   -0.0443 C   0  0  0  0  0  0  0  0  0  0  0  0
    8.3268    0.9052    0.7157 C   0  0  0  0  0  0  0  0  0  0  0  0
    2.8320   -0.8565    0.5931 C   0  0  0  0  0  0  0  0  0  0  0  0
   -1.0551    0.9549   -1.3181 C   0  0  0  0  0  0  0  0  0  0  0  0
   -2.3271    0.2219   -1.3500 C   0  0  0  0  0  0  0  0  0  0  0  0
   -2.3505   -1.0600   -0.8115 C   0  0  0  0  0  0  0  0  0  0  0  0
   -3.5419   -1.7676   -0.8429 C   0  0  0  0  0  0  0  0  0  0  0  0
   -4.6439   -1.2574   -1.3766 C   0  0  0  0  0  0  0  0  0  0  0  0
   -4.6338    0.0455   -1.9189 C   0  0  0  0  0  0  0  0  0  0  0  0
   -6.0308    0.6462   -1.9353 C   0  0  0  0  0  0  0  0  0  0  0  0
   -7.1455    1.1380   -1.9659 C   0  0  0  0  0  0  0  0  0  0  0  0
   -8.3796    1.6866   -1.9869 C   0  0  0  0  0  0  0  0  0  0  0  0
   -9.5399    0.8593   -1.8388 C   0  0  0  0  0  0  0  0  0  0  0  0
  -10.7945    1.1046   -1.9422 C   0  0  0  0  0  0  0  0  0  0  0  0
  -11.0759    2.5181   -2.2916 C   0  0  0  0  0  0  0  0  0  0  0  0
  -10.0476    3.3435   -2.4645 N   0  0  0  0  0  0  0  0  0  0  0  0
   -8.7329    2.9634   -2.3208 C   0  0  0  0  0  0  0  0  0  0  0  0
   -3.5345    0.7579   -1.9117 C   0  0  0  0  0  0  0  0  0  0  0  0
   -1.1710   -1.4545    4.6297 H   0  0  0  0  0  0  0  0  0  0  0  0
   -1.2498   -0.0178    5.6607 H   0  0  0  0  0  0  0  0  0  0  0  0
    0.3404   -0.4648    4.9219 H   0  0  0  0  0  0  0  0  0  0  0  0
   -1.1038    1.4413    3.6004 H   0  0  0  0  0  0  0  0  0  0  0  0
   -2.6810   -1.1319    3.4146 H   0  0  0  0  0  0  0  0  0  0  0  0
   -2.9570    0.3306    2.3640 H   0  0  0  0  0  0  0  0  0  0  0  0
   -3.2624    0.3182    4.2018 H   0  0  0  0  0  0  0  0  0  0  0  0
   -0.0263   -0.8934    2.3206 H   0  0  0  0  0  0  0  0  0  0  0  0
    1.4848    0.3120   -1.1020 H   0  0  0  0  0  0  0  0  0  0  0  0
    0.5350   -1.1586   -1.4405 H   0  0  0  0  0  0  0  0  0  0  0  0
    0.2538   -2.8405    0.6346 H   0  0  0  0  0  0  0  0  0  0  0  0
    1.9374   -4.1086    2.0138 H   0  0  0  0  0  0  0  0  0  0  0  0
    4.2439   -3.2580    2.3478 H   0  0  0  0  0  0  0  0  0  0  0  0
    7.6644   -1.7068   -1.3122 H   0  0  0  0  0  0  0  0  0  0  0  0
    9.5702   -0.6980   -2.6141 H   0  0  0  0  0  0  0  0  0  0  0  0
    9.8063    2.3281    0.3673 H   0  0  0  0  0  0  0  0  0  0  0  0
    7.9256    1.2164    1.6236 H   0  0  0  0  0  0  0  0  0  0  0  0
    3.2400    0.1840    0.2437 H   0  0  0  0  0  0  0  0  0  0  0  0
   -1.1215    1.9919   -1.0251 H   0  0  0  0  0  0  0  0  0  0  0  0
   -0.4709    0.8135   -2.2232 H   0  0  0  0  0  0  0  0  0  0  0  0
   -1.4755   -1.4592   -0.3570 H   0  0  0  0  0  0  0  0  0  0  0  0
   -3.5723   -2.7494   -0.3959 H   0  0  0  0  0  0  0  0  0  0  0  0
   -5.5999   -1.7679   -1.3521 H   0  0  0  0  0  0  0  0  0  0  0  0
   -9.2435   -0.2653   -1.7774 H   0  0  0  0  0  0  0  0  0  0  0  0
  -11.6788    0.5044   -1.8422 H   0  0  0  0  0  0  0  0  0  0  0  0
  -12.1250    2.7514   -2.3340 H   0  0  0  0  0  0  0  0  0  0  0  0
   -7.9419    3.6371   -2.5885 H   0  0  0  0  0  0  0  0  0  0  0  0
   -3.5184    1.7688   -2.3480 H   0  0  0  0  0  0  0  0  0  0  0  0
  1  2  1  0
  2  3  1  0
  2  4  1  0
  4  5  1  0
  5  6  2  0
  5  7  1  0
  7  8  1  0
  8  9  1  0
  9 10  2  0
 10 11  1  0
 11 12  2  0
 12 13  1  0
 13 14  1  0
 14 15  3  0
 15 16  1  0
 16 17  2  0
 17 18  1  0
 18 19  2  0
 19 20  1  0
 20 21  1  0
 20 22  1  0
 20 23  1  0
 19 24  1  0
 24 25  2  0
 13 26  2  0
  7 27  1  0
 27 28  1  0
 28 29  2  0
 29 30  1  0
 30 31  2  0
 31 32  1  0
 32 33  1  0
 33 34  3  0
 34 35  1  0
 35 36  2  0
 36 37  1  0
 37 38  2  0
 38 39  1  0
 39 40  2  0
 32 41  2  0
 26  9  1  0
 41 28  1  0
 25 16  1  0
 40 35  1  0
  1 42  1  0
  1 43  1  0
  1 44  1  0
  2 45  1  0
  3 46  1  0
  3 47  1  0
  3 48  1  0
  4 49  1  0
  8 50  1  0
  8 51  1  0
 10 52  1  0
 11 53  1  0
 12 54  1  0
 17 55  1  0
 18 56  1  0
 24 57  1  0
 25 58  1  0
 26 59  1  0
 27 60  1  0
 27 61  1  0
 29 62  1  0
 30 63  1  0
 31 64  1  0
 36 65  1  0
 37 66  1  0
 38 67  1  0
 40 68  1  0
 41 69  1  0
M  END
$$$$
