@<TRIPOS>MOLECULE
*****
 47 48 0 0 0
SMALL
GASTEIGER

@<TRIPOS>ATOM
      1 C           3.4479    0.8917    0.5857 C.3     1  UNL1        0.1762
      2 O           4.0483    1.4605   -0.5439 O.3     1  UNL1       -0.3656
      3 O           2.3490    1.6884    0.8553 O.3     1  UNL1       -0.3416
      4 C           1.3732    1.4087   -0.0972 C.3     1  UNL1        0.1133
      5 C           0.4350    2.5262   -0.3475 C.3     1  UNL1        0.0730
      6 O          -0.4804    2.1254   -1.3180 O.3     1  UNL1       -0.3924
      7 C           0.7428    0.1274    0.3925 C.3     1  UNL1        0.1185
      8 O          -0.4626   -0.0508   -0.2059 O.3     1  UNL1       -0.3309
      9 C          -1.5363   -0.2447    0.6049 C.3     1  UNL1        0.2336
     10 O          -1.9230   -1.6212    0.3955 O.2     1  UNL1       -0.4592
     11 C          -2.8336   -2.0122   -0.5637 C.2     1  UNL1        0.1448
     12 C          -3.9809   -1.3632   -0.4402 C.2     1  UNL1       -0.0095
     13 C          -3.9211   -0.4081    0.7070 C.3     1  UNL1        0.1113
     14 O          -5.1131    0.2695    0.8887 O.3     1  UNL1       -0.3848
     15 C          -2.7626    0.5493    0.3539 C.3     1  UNL1        0.1768
     16 O          -2.9023    1.7080    1.1039 O.3     1  UNL1       -0.2421
     17 S          -3.4154    2.9327    0.0766 S.3     1  UNL1       -0.0003
     18 O          -3.5548    2.4202   -1.5165 O.co2   1  UNL1       -0.2682
     19 O          -4.7617    3.4628    0.4894 O.2     1  UNL1       -0.3452
     20 O          -2.4830    4.1136    0.0741 O.2     1  UNL1       -0.3452
     21 C          -2.6587   -3.0106   -1.6318 C.2     1  UNL1        0.1062
     22 O          -3.7573   -3.1938   -2.4524 O.co2   1  UNL1       -0.5416
     23 O          -1.5763   -3.6219   -1.7470 O.co2   1  UNL1       -0.5416
     24 C           1.7789   -0.9192    0.0019 C.3     1  UNL1        0.1055
     25 O           1.4295   -2.1825    0.5078 O.3     1  UNL1       -0.3874
     26 C           3.1578   -0.5540    0.3922 C.3     1  UNL1        0.1065
     27 N           4.1376   -1.0953   -0.5339 N.3     1  UNL1       -0.1934
     28 S           5.1737   -2.2419    0.2235 S.3     1  UNL1       -0.0163
     29 O           4.2829   -3.5450    0.7926 O.co2   1  UNL1       -0.7104
     30 O           6.1326   -2.7503   -0.8049 O.2     1  UNL1       -0.1690
     31 O           5.9659   -1.5628    1.2953 O.2     1  UNL1       -0.1690
     32 H           4.1677    1.0515    1.4169 H       1  UNL1        0.0925
     33 H           3.8645    2.4099   -0.6338 H       1  UNL1        0.2125
     34 H           1.9538    1.2449   -1.0526 H       1  UNL1        0.0647
     35 H           1.0125    3.3609   -0.7935 H       1  UNL1        0.0584
     36 H          -0.1004    2.8546    0.5659 H       1  UNL1        0.0584
     37 H           0.0196    1.5422   -1.9654 H       1  UNL1        0.2095
     38 H           0.7219    0.1093    1.4971 H       1  UNL1        0.0651
     39 H          -1.3081   -0.2182    1.6924 H       1  UNL1        0.1085
     40 H          -4.8256   -1.5329   -1.1050 H       1  UNL1        0.0635
     41 H          -3.6086   -0.9737    1.6013 H       1  UNL1        0.0668
     42 H          -5.6627   -0.1367    1.6078 H       1  UNL1        0.2103
     43 H          -2.9534    0.7913   -0.7145 H       1  UNL1        0.0712
     44 H           1.7033   -1.0145   -1.1027 H       1  UNL1        0.0638
     45 H           1.5888   -2.2488    1.4805 H       1  UNL1        0.2100
     46 H           3.3801   -1.0707    1.3734 H       1  UNL1        0.0554
     47 H           3.7150   -1.4759   -1.4056 H       1  UNL1        0.1473
@<TRIPOS>UNITY_ATOM_ATTR
18 1
charge -1
22 1
charge -1
29 1
charge -1
@<TRIPOS>BOND
     1     1     2    1
     2     1     3    1
     3     3     4    1
     4     4     5    1
     5     5     6    1
     6     4     7    1
     7     7     8    1
     8     8     9    1
     9     9    10    1
    10    10    11    1
    11    11    12    2
    12    12    13    1
    13    13    14    1
    14    13    15    1
    15    15    16    1
    16    16    17    1
    17    17    18    1
    18    17    19    2
    19    17    20    2
    20    11    21    1
    21    21    22   ar
    22    21    23   ar
    23     7    24    1
    24    24    25    1
    25    24    26    1
    26    26    27    1
    27    27    28    1
    28    28    29    1
    29    28    30    2
    30    28    31    2
    31    26     1    1
    32    15     9    1
    33     1    32    1
    34     2    33    1
    35     4    34    1
    36     5    35    1
    37     5    36    1
    38     6    37    1
    39     7    38    1
    40     9    39    1
    41    12    40    1
    42    13    41    1
    43    14    42    1
    44    15    43    1
    45    24    44    1
    46    25    45    1
    47    26    46    1
    48    27    47    1
