
     RDKit          3D

 69 71  0  0  0  0  0  0  0  0999 V2000
   -6.1093    0.7703    5.1002 C   0  0  0  0  0  0  0  0  0  0  0  0
   -5.3161    0.3240    3.9085 C   0  0  0  0  0  0  0  0  0  0  0  0
   -5.9056    0.1966    2.6698 C   0  0  0  0  0  0  0  0  0  0  0  0
   -5.1563   -0.2212    1.5633 C   0  0  0  0  0  0  0  0  0  0  0  0
   -5.7825   -0.3600    0.2248 C   0  0  0  0  0  0  0  0  0  0  0  0
   -3.8174   -0.5142    1.6839 C   0  0  0  0  0  0  0  0  0  0  0  0
   -3.0890   -0.9329    0.5456 N   0  0  0  0  0  0  0  0  0  0  0  0
   -2.4202    0.0115   -0.3159 C   0  0  0  0  0  0  0  0  0  0  0  0
   -2.5028    1.2237   -0.0213 O   0  0  0  0  0  0  0  0  0  0  0  0
   -1.6954   -0.3774   -1.4497 N   0  0  0  0  0  0  0  0  0  0  0  0
   -1.0241    0.5305   -2.3190 C   0  0  0  0  0  0  0  0  0  0  0  0
   -1.6762    1.0955   -3.4014 C   0  0  0  0  0  0  0  0  0  0  0  0
   -1.0239    1.9736   -4.2464 C   0  0  0  0  0  0  0  0  0  0  0  0
   -1.6433    2.5554   -5.3326 C   0  0  0  0  0  0  0  0  0  0  0  0
   -0.9817    3.4334   -6.1712 C   0  0  0  0  0  0  0  0  0  0  0  0
    0.3355    3.7379   -5.9159 C   0  0  0  0  0  0  0  0  0  0  0  0
    0.9629    3.1624   -4.8342 C   0  0  0  0  0  0  0  0  0  0  0  0
    0.2832    2.2772   -3.9955 C   0  0  0  0  0  0  0  0  0  0  0  0
    0.9276    1.6992   -2.8998 C   0  0  0  0  0  0  0  0  0  0  0  0
    0.2832    0.8260   -2.0573 C   0  0  0  0  0  0  0  0  0  0  0  0
    0.9901    0.2509   -0.9321 C   0  0  0  0  0  0  0  0  0  0  0  0
    0.3557   -0.5332   -0.1701 O   0  0  0  0  0  0  0  0  0  0  0  0
    2.3265    0.5003   -0.6272 N   0  0  0  0  0  0  0  0  0  0  0  0
    3.0142   -0.1054    0.5302 C   0  0  2  0  0  0  0  0  0  0  0  0
    3.5020    1.0284    1.3517 C   0  0  0  0  0  0  0  0  0  0  0  0
    3.3097    2.2257    1.0296 O   0  0  0  0  0  0  0  0  0  0  0  0
    4.1988    0.7739    2.5231 O   0  0  0  0  0  0  0  0  0  0  0  0
    4.1577   -0.9481    0.0050 C   0  0  1  0  0  0  0  0  0  0  0  0
    4.9214   -0.1490   -1.0378 C   0  0  0  0  0  0  0  0  0  0  0  0
    4.9019   -1.5715    0.9112 O   0  0  0  0  0  0  0  0  0  0  0  0
    4.9638   -2.9177    0.9991 C   0  0  0  0  0  0  0  0  0  0  0  0
    4.4095   -3.4789    2.2935 C   0  0  0  0  0  0  0  0  0  0  0  0
    6.3072   -3.5373    0.7512 C   0  0  0  0  0  0  0  0  0  0  0  0
   -3.2214   -0.3911    2.9112 C   0  0  0  0  0  0  0  0  0  0  0  0
   -1.7799   -0.7134    3.0088 C   0  0  0  0  0  0  0  0  0  0  0  0
   -3.9737    0.0275    4.0175 C   0  0  0  0  0  0  0  0  0  0  0  0
   -7.1280    0.3034    5.0988 H   0  0  0  0  0  0  0  0  0  0  0  0
   -5.6292    0.5076    6.0416 H   0  0  0  0  0  0  0  0  0  0  0  0
   -6.2805    1.8695    5.0948 H   0  0  0  0  0  0  0  0  0  0  0  0
   -6.9560    0.4199    2.5478 H   0  0  0  0  0  0  0  0  0  0  0  0
   -6.8468   -0.0805    0.2217 H   0  0  0  0  0  0  0  0  0  0  0  0
   -5.7719   -1.4613   -0.0259 H   0  0  0  0  0  0  0  0  0  0  0  0
   -5.1790    0.1171   -0.5754 H   0  0  0  0  0  0  0  0  0  0  0  0
   -2.9926   -1.9402    0.2636 H   0  0  0  0  0  0  0  0  0  0  0  0
   -1.6277   -1.3896   -1.6961 H   0  0  0  0  0  0  0  0  0  0  0  0
   -2.6991    0.8752   -3.6219 H   0  0  0  0  0  0  0  0  0  0  0  0
   -2.6774    2.3361   -5.5585 H   0  0  0  0  0  0  0  0  0  0  0  0
   -1.4503    3.8970   -7.0243 H   0  0  0  0  0  0  0  0  0  0  0  0
    0.8800    4.4257   -6.5583 H   0  0  0  0  0  0  0  0  0  0  0  0
    1.9989    3.4204   -4.6591 H   0  0  0  0  0  0  0  0  0  0  0  0
    1.9620    2.0060   -2.7896 H   0  0  0  0  0  0  0  0  0  0  0  0
    2.8758    1.1437   -1.2397 H   0  0  0  0  0  0  0  0  0  0  0  0
    2.2467   -0.7206    1.0376 H   0  0  0  0  0  0  0  0  0  0  0  0
    4.0965    1.4068    3.3148 H   0  0  0  0  0  0  0  0  0  0  0  0
    3.6512   -1.7638   -0.6025 H   0  0  0  0  0  0  0  0  0  0  0  0
    4.3125   -0.1070   -1.9645 H   0  0  0  0  0  0  0  0  0  0  0  0
    5.0729    0.9004   -0.7229 H   0  0  0  0  0  0  0  0  0  0  0  0
    5.8688   -0.6550   -1.3141 H   0  0  0  0  0  0  0  0  0  0  0  0
    4.2913   -3.3112    0.1983 H   0  0  0  0  0  0  0  0  0  0  0  0
    3.3160   -3.2008    2.3374 H   0  0  0  0  0  0  0  0  0  0  0  0
    4.8652   -2.9674    3.1806 H   0  0  0  0  0  0  0  0  0  0  0  0
    4.4588   -4.5629    2.3489 H   0  0  0  0  0  0  0  0  0  0  0  0
    6.4061   -4.4408    1.3870 H   0  0  0  0  0  0  0  0  0  0  0  0
    7.1488   -2.8698    1.0764 H   0  0  0  0  0  0  0  0  0  0  0  0
    6.4445   -3.8975   -0.2963 H   0  0  0  0  0  0  0  0  0  0  0  0
   -1.2224   -0.2404    2.1727 H   0  0  0  0  0  0  0  0  0  0  0  0
   -1.3972   -0.2111    3.9428 H   0  0  0  0  0  0  0  0  0  0  0  0
   -1.5941   -1.7953    3.1167 H   0  0  0  0  0  0  0  0  0  0  0  0
   -3.4760    0.1138    4.9669 H   0  0  0  0  0  0  0  0  0  0  0  0
  1  2  1  0
  2  3  2  0
  3  4  1  0
  4  5  1  0
  4  6  2  0
  6  7  1  0
  7  8  1  0
  8  9  2  0
  8 10  1  0
 10 11  1  0
 11 12  2  0
 12 13  1  0
 13 14  2  0
 14 15  1  0
 15 16  2  0
 16 17  1  0
 17 18  2  0
 18 19  1  0
 19 20  2  0
 20 21  1  0
 21 22  2  0
 21 23  1  0
 23 24  1  0
 24 25  1  0
 25 26  2  0
 25 27  1  0
 24 28  1  0
 28 29  1  0
 28 30  1  0
 30 31  1  0
 31 32  1  0
 31 33  1  0
  6 34  1  0
 34 35  1  0
 34 36  2  0
 36  2  1  0
 20 11  1  0
 18 13  1  0
  1 37  1  0
  1 38  1  0
  1 39  1  0
  3 40  1  0
  5 41  1  0
  5 42  1  0
  5 43  1  0
  7 44  1  0
 10 45  1  0
 12 46  1  0
 14 47  1  0
 15 48  1  0
 16 49  1  0
 17 50  1  0
 19 51  1  0
 23 52  1  0
 24 53  1  1
 27 54  1  0
 28 55  1  6
 29 56  1  0
 29 57  1  0
 29 58  1  0
 31 59  1  0
 32 60  1  0
 32 61  1  0
 32 62  1  0
 33 63  1  0
 33 64  1  0
 33 65  1  0
 35 66  1  0
 35 67  1  0
 35 68  1  0
 36 69  1  0
M  END
$$$$
