@<TRIPOS>MOLECULE
*****
 69 71 0 0 0
SMALL
GASTEIGER

@<TRIPOS>ATOM
      1 C          -6.1093    0.7703    5.1002 C.3     1  UNL1       -0.0397
      2 C          -5.3161    0.3240    3.9085 C.ar    1  UNL1       -0.0498
      3 C          -5.9056    0.1966    2.6698 C.ar    1  UNL1       -0.0541
      4 C          -5.1563   -0.2212    1.5633 C.ar    1  UNL1       -0.0287
      5 C          -5.7825   -0.3600    0.2248 C.3     1  UNL1       -0.0379
      6 C          -3.8174   -0.5142    1.6839 C.ar    1  UNL1        0.0406
      7 N          -3.0890   -0.9329    0.5456 N.am    1  UNL1       -0.2687
      8 C          -2.4202    0.0115   -0.3159 C.2     1  UNL1        0.3081
      9 O          -2.5028    1.2237   -0.0213 O.2     1  UNL1       -0.2522
     10 N          -1.6954   -0.3774   -1.4497 N.am    1  UNL1       -0.2685
     11 C          -1.0241    0.5305   -2.3190 C.ar    1  UNL1        0.0475
     12 C          -1.6762    1.0955   -3.4014 C.ar    1  UNL1       -0.0320
     13 C          -1.0239    1.9736   -4.2464 C.ar    1  UNL1       -0.0161
     14 C          -1.6433    2.5554   -5.3326 C.ar    1  UNL1       -0.0540
     15 C          -0.9817    3.4334   -6.1712 C.ar    1  UNL1       -0.0612
     16 C           0.3355    3.7379   -5.9159 C.ar    1  UNL1       -0.0612
     17 C           0.9629    3.1624   -4.8342 C.ar    1  UNL1       -0.0540
     18 C           0.2832    2.2772   -3.9955 C.ar    1  UNL1       -0.0171
     19 C           0.9276    1.6992   -2.8998 C.ar    1  UNL1       -0.0401
     20 C           0.2832    0.8260   -2.0573 C.ar    1  UNL1        0.0585
     21 C           0.9901    0.2509   -0.9321 C.2     1  UNL1        0.2466
     22 O           0.3557   -0.5332   -0.1701 O.2     1  UNL1       -0.2701
     23 N           2.3265    0.5003   -0.6272 N.am    1  UNL1       -0.2963
     24 CA          3.0142   -0.1054    0.5302 C.3     1  UNL1        0.1466
     25 C           3.5020    1.0284    1.3517 C.2     1  UNL1        0.3278
     26 O           3.3097    2.2257    1.0296 O.2     1  UNL1       -0.2488
     27 OXT         4.1988    0.7739    2.5231 O.3     1  UNL1       -0.4793
     28 C           4.1577   -0.9481    0.0050 C.3     1  UNL1        0.0849
     29 C           4.9214   -0.1490   -1.0378 C.3     1  UNL1       -0.0364
     30 O           4.9019   -1.5715    0.9112 O.3     1  UNL1       -0.3718
     31 C           4.9638   -2.9177    0.9991 C.3     1  UNL1        0.0535
     32 C           4.4095   -3.4789    2.2935 C.3     1  UNL1       -0.0389
     33 C           6.3072   -3.5373    0.7512 C.3     1  UNL1       -0.0389
     34 C          -3.2214   -0.3911    2.9112 C.ar    1  UNL1       -0.0287
     35 C          -1.7799   -0.7134    3.0088 C.3     1  UNL1       -0.0379
     36 C          -3.9737    0.0275    4.0175 C.ar    1  UNL1       -0.0541
     37 H          -7.1280    0.3034    5.0988 H       1  UNL1        0.0278
     38 H          -5.6292    0.5076    6.0416 H       1  UNL1        0.0278
     39 H          -6.2805    1.8695    5.0948 H       1  UNL1        0.0278
     40 H          -6.9560    0.4199    2.5478 H       1  UNL1        0.0623
     41 H          -6.8468   -0.0805    0.2217 H       1  UNL1        0.0278
     42 H          -5.7719   -1.4613   -0.0259 H       1  UNL1        0.0278
     43 H          -5.1790    0.1171   -0.5754 H       1  UNL1        0.0278
     44 H          -2.9926   -1.9402    0.2636 H       1  UNL1        0.1564
     45 H          -1.6277   -1.3896   -1.6961 H       1  UNL1        0.1564
     46 H          -2.6991    0.8752   -3.6219 H       1  UNL1        0.0642
     47 H          -2.6774    2.3361   -5.5585 H       1  UNL1        0.0624
     48 H          -1.4503    3.8970   -7.0243 H       1  UNL1        0.0618
     49 H           0.8800    4.4257   -6.5583 H       1  UNL1        0.0618
     50 H           1.9989    3.4204   -4.6591 H       1  UNL1        0.0624
     51 H           1.9620    2.0060   -2.7896 H       1  UNL1        0.0632
     52 H           2.8758    1.1437   -1.2397 H       1  UNL1        0.1499
     53 HA          2.2467   -0.7206    1.0376 H       1  UNL1        0.0641
     54 HXT         4.0965    1.4068    3.3148 H       1  UNL1        0.2951
     55 H           3.6512   -1.7638   -0.6025 H       1  UNL1        0.0617
     56 H           4.3125   -0.1070   -1.9645 H       1  UNL1        0.0255
     57 H           5.0729    0.9004   -0.7229 H       1  UNL1        0.0255
     58 H           5.8688   -0.6550   -1.3141 H       1  UNL1        0.0255
     59 H           4.2913   -3.3112    0.1983 H       1  UNL1        0.0590
     60 H           3.3160   -3.2008    2.3374 H       1  UNL1        0.0254
     61 H           4.8652   -2.9674    3.1806 H       1  UNL1        0.0254
     62 H           4.4588   -4.5629    2.3489 H       1  UNL1        0.0254
     63 H           6.4061   -4.4408    1.3870 H       1  UNL1        0.0254
     64 H           7.1488   -2.8698    1.0764 H       1  UNL1        0.0254
     65 H           6.4445   -3.8975   -0.2963 H       1  UNL1        0.0254
     66 H          -1.2224   -0.2404    2.1727 H       1  UNL1        0.0278
     67 H          -1.3972   -0.2111    3.9428 H       1  UNL1        0.0278
     68 H          -1.5941   -1.7953    3.1167 H       1  UNL1        0.0278
     69 H          -3.4760    0.1138    4.9669 H       1  UNL1        0.0623
@<TRIPOS>BOND
     1     1     2    1
     2     2     3   ar
     3     3     4   ar
     4     4     5    1
     5     4     6   ar
     6     6     7    1
     7     7     8   am
     8     8     9    2
     9     8    10   am
    10    10    11    1
    11    11    12   ar
    12    12    13   ar
    13    13    14   ar
    14    14    15   ar
    15    15    16   ar
    16    16    17   ar
    17    17    18   ar
    18    18    19   ar
    19    19    20   ar
    20    20    21    1
    21    21    22    2
    22    21    23   am
    23    23    24    1
    24    24    25    1
    25    25    26    2
    26    25    27    1
    27    24    28    1
    28    28    29    1
    29    28    30    1
    30    30    31    1
    31    31    32    1
    32    31    33    1
    33     6    34   ar
    34    34    35    1
    35    34    36   ar
    36    36     2   ar
    37    20    11   ar
    38    18    13   ar
    39     1    37    1
    40     1    38    1
    41     1    39    1
    42     3    40    1
    43     5    41    1
    44     5    42    1
    45     5    43    1
    46     7    44    1
    47    10    45    1
    48    12    46    1
    49    14    47    1
    50    15    48    1
    51    16    49    1
    52    17    50    1
    53    19    51    1
    54    23    52    1
    55    24    53    1
    56    27    54    1
    57    28    55    1
    58    29    56    1
    59    29    57    1
    60    29    58    1
    61    31    59    1
    62    32    60    1
    63    32    61    1
    64    32    62    1
    65    33    63    1
    66    33    64    1
    67    33    65    1
    68    35    66    1
    69    35    67    1
    70    35    68    1
    71    36    69    1
