@<TRIPOS>MOLECULE
*****
 54 58 0 0 0
SMALL
GASTEIGER

@<TRIPOS>ATOM
      1 C          -3.0613    1.6881   -2.7552 C.3     1  UNL1       -0.0203
      2 C          -2.8786    0.4956   -1.8918 C.ar    1  UNL1        0.0660
      3 N          -3.8387   -0.4078   -1.6302 N.ar    1  UNL1       -0.1752
      4 N          -3.3184   -1.3426   -0.8196 N.ar    1  UNL1       -0.2561
      5 C          -4.0322   -2.4791   -0.3150 C.3     1  UNL1        0.0479
      6 C          -3.6787   -3.7041   -1.1292 C.3     1  UNL1       -0.0428
      7 C          -3.8394   -2.7110    1.1647 C.3     1  UNL1       -0.0428
      8 C          -2.0301   -1.0483   -0.5574 C.ar    1  UNL1        0.1296
      9 C          -1.7505    0.1123   -1.2327 C.ar    1  UNL1        0.0305
     10 C          -0.3361    0.4878   -0.9567 C.3     1  UNL1        0.0881
     11 C          -0.3612    1.7889   -0.2337 C.ar    1  UNL1        0.0132
     12 C          -0.0098    2.9282   -0.9091 C.ar    1  UNL1       -0.0510
     13 C          -0.0226    4.1843   -0.3011 C.ar    1  UNL1       -0.0259
     14 C          -0.4066    4.2642    1.0322 C.ar    1  UNL1        0.1261
     15 F          -0.4091    5.5083    1.6003 F       1  UNL1       -0.2054
     16 C          -0.7640    3.1300    1.7299 C.ar    1  UNL1        0.0091
     17 C          -0.7378    1.8924    1.0851 C.ar    1  UNL1        0.1314
     18 F          -1.0877    0.8063    1.7797 F       1  UNL1       -0.2050
     19 N           0.1797   -0.5776   -0.1239 N.am    1  UNL1       -0.2530
     20 C           1.5344   -0.6597    0.3463 C.ar    1  UNL1        0.0545
     21 C           1.9817   -1.6536    1.1868 C.ar    1  UNL1       -0.0324
     22 C           3.3081   -1.6929    1.6055 C.ar    1  UNL1       -0.0041
     23 C           3.7722   -2.7847    2.5207 C.3     1  UNL1       -0.0361
     24 C           4.1817   -0.7229    1.1710 C.ar    1  UNL1        0.1641
     25 N           5.4817   -0.4742    1.3765 N.ar    1  UNL1       -0.1292
     26 N           5.8568    0.6175    0.7084 N.ar    1  UNL1       -0.1340
     27 C           4.7716    1.0792    0.0593 C.ar    1  UNL1        0.1347
     28 C           4.7432    2.2786   -0.8047 C.3     1  UNL1       -0.0041
     29 N           3.7467    0.2548    0.3453 N.ar    1  UNL1       -0.2846
     30 C           2.4688    0.2885   -0.0552 C.ar    1  UNL1        0.0344
     31 C          -0.8286   -1.5072    0.1549 C.2     1  UNL1        0.2700
     32 O          -0.8391   -2.5595    0.8530 O.2     1  UNL1       -0.2679
     33 H          -2.2876    2.4429   -2.6290 H       1  UNL1        0.0293
     34 H          -4.0433    2.2011   -2.5436 H       1  UNL1        0.0293
     35 H          -3.0293    1.3820   -3.8409 H       1  UNL1        0.0293
     36 H          -5.1162   -2.3033   -0.4660 H       1  UNL1        0.0539
     37 H          -4.1578   -4.5967   -0.7048 H       1  UNL1        0.0250
     38 H          -4.1250   -3.5266   -2.1520 H       1  UNL1        0.0250
     39 H          -2.5928   -3.8179   -1.2900 H       1  UNL1        0.0250
     40 H          -4.8252   -2.8493    1.6996 H       1  UNL1        0.0250
     41 H          -3.3621   -1.8532    1.6816 H       1  UNL1        0.0250
     42 H          -3.3035   -3.6738    1.3332 H       1  UNL1        0.0250
     43 H           0.1997    0.6045   -1.9009 H       1  UNL1        0.0607
     44 H           0.2935    2.9064   -1.9435 H       1  UNL1        0.0623
     45 H           0.2609    5.0622   -0.8647 H       1  UNL1        0.0646
     46 H          -1.0498    3.2550    2.7513 H       1  UNL1        0.0675
     47 H           1.3168   -2.4108    1.5319 H       1  UNL1        0.0640
     48 H           3.3482   -2.6635    3.5475 H       1  UNL1        0.0279
     49 H           3.3814   -3.7506    2.1182 H       1  UNL1        0.0279
     50 H           4.8745   -2.8026    2.5208 H       1  UNL1        0.0279
     51 H           5.3926    3.0910   -0.3796 H       1  UNL1        0.0308
     52 H           5.1558    2.0576   -1.8125 H       1  UNL1        0.0308
     53 H           3.7357    2.6971   -0.9443 H       1  UNL1        0.0308
     54 H           2.1374    1.0686   -0.7165 H       1  UNL1        0.0833
@<TRIPOS>BOND
     1     1     2    1
     2     2     3   ar
     3     3     4   ar
     4     4     5    1
     5     5     6    1
     6     5     7    1
     7     4     8   ar
     8     8     9   ar
     9     9    10    1
    10    10    11    1
    11    11    12   ar
    12    12    13   ar
    13    13    14   ar
    14    14    15    1
    15    14    16   ar
    16    16    17   ar
    17    17    18    1
    18    10    19    1
    19    19    20    1
    20    20    21   ar
    21    21    22   ar
    22    22    23    1
    23    22    24   ar
    24    24    25   ar
    25    25    26   ar
    26    26    27   ar
    27    27    28    1
    28    27    29   ar
    29    29    30   ar
    30    19    31   am
    31    31    32    2
    32     9     2   ar
    33    17    11   ar
    34    30    20   ar
    35    31     8    1
    36    29    24   ar
    37     1    33    1
    38     1    34    1
    39     1    35    1
    40     5    36    1
    41     6    37    1
    42     6    38    1
    43     6    39    1
    44     7    40    1
    45     7    41    1
    46     7    42    1
    47    10    43    1
    48    12    44    1
    49    13    45    1
    50    16    46    1
    51    21    47    1
    52    23    48    1
    53    23    49    1
    54    23    50    1
    55    28    51    1
    56    28    52    1
    57    28    53    1
    58    30    54    1
