
     RDKit          3D

 54 58  0  0  0  0  0  0  0  0999 V2000
   -3.0613    1.6881   -2.7552 C   0  0  0  0  0  0  0  0  0  0  0  0
   -2.8786    0.4956   -1.8918 C   0  0  0  0  0  0  0  0  0  0  0  0
   -3.8387   -0.4078   -1.6302 N   0  0  0  0  0  0  0  0  0  0  0  0
   -3.3184   -1.3426   -0.8196 N   0  0  0  0  0  0  0  0  0  0  0  0
   -4.0322   -2.4791   -0.3150 C   0  0  0  0  0  0  0  0  0  0  0  0
   -3.6787   -3.7041   -1.1292 C   0  0  0  0  0  0  0  0  0  0  0  0
   -3.8394   -2.7110    1.1647 C   0  0  0  0  0  0  0  0  0  0  0  0
   -2.0301   -1.0483   -0.5574 C   0  0  0  0  0  0  0  0  0  0  0  0
   -1.7505    0.1123   -1.2327 C   0  0  0  0  0  0  0  0  0  0  0  0
   -0.3361    0.4878   -0.9567 C   0  0  0  0  0  0  0  0  0  0  0  0
   -0.3612    1.7889   -0.2337 C   0  0  0  0  0  0  0  0  0  0  0  0
   -0.0098    2.9282   -0.9091 C   0  0  0  0  0  0  0  0  0  0  0  0
   -0.0226    4.1843   -0.3011 C   0  0  0  0  0  0  0  0  0  0  0  0
   -0.4066    4.2642    1.0322 C   0  0  0  0  0  0  0  0  0  0  0  0
   -0.4091    5.5083    1.6003 F   0  0  0  0  0  0  0  0  0  0  0  0
   -0.7640    3.1300    1.7299 C   0  0  0  0  0  0  0  0  0  0  0  0
   -0.7378    1.8924    1.0851 C   0  0  0  0  0  0  0  0  0  0  0  0
   -1.0877    0.8063    1.7797 F   0  0  0  0  0  0  0  0  0  0  0  0
    0.1797   -0.5776   -0.1239 N   0  0  0  0  0  0  0  0  0  0  0  0
    1.5344   -0.6597    0.3463 C   0  0  0  0  0  0  0  0  0  0  0  0
    1.9817   -1.6536    1.1868 C   0  0  0  0  0  0  0  0  0  0  0  0
    3.3081   -1.6929    1.6055 C   0  0  0  0  0  0  0  0  0  0  0  0
    3.7722   -2.7847    2.5207 C   0  0  0  0  0  0  0  0  0  0  0  0
    4.1817   -0.7229    1.1710 C   0  0  0  0  0  0  0  0  0  0  0  0
    5.4817   -0.4742    1.3765 N   0  0  0  0  0  0  0  0  0  0  0  0
    5.8568    0.6175    0.7084 N   0  0  0  0  0  0  0  0  0  0  0  0
    4.7716    1.0792    0.0593 C   0  0  0  0  0  0  0  0  0  0  0  0
    4.7432    2.2786   -0.8047 C   0  0  0  0  0  0  0  0  0  0  0  0
    3.7467    0.2548    0.3453 N   0  0  0  0  0  0  0  0  0  0  0  0
    2.4688    0.2885   -0.0552 C   0  0  0  0  0  0  0  0  0  0  0  0
   -0.8286   -1.5072    0.1549 C   0  0  0  0  0  0  0  0  0  0  0  0
   -0.8391   -2.5595    0.8530 O   0  0  0  0  0  0  0  0  0  0  0  0
   -2.2876    2.4429   -2.6290 H   0  0  0  0  0  0  0  0  0  0  0  0
   -4.0433    2.2011   -2.5436 H   0  0  0  0  0  0  0  0  0  0  0  0
   -3.0293    1.3820   -3.8409 H   0  0  0  0  0  0  0  0  0  0  0  0
   -5.1162   -2.3033   -0.4660 H   0  0  0  0  0  0  0  0  0  0  0  0
   -4.1578   -4.5967   -0.7048 H   0  0  0  0  0  0  0  0  0  0  0  0
   -4.1250   -3.5266   -2.1520 H   0  0  0  0  0  0  0  0  0  0  0  0
   -2.5928   -3.8179   -1.2900 H   0  0  0  0  0  0  0  0  0  0  0  0
   -4.8252   -2.8493    1.6996 H   0  0  0  0  0  0  0  0  0  0  0  0
   -3.3621   -1.8532    1.6816 H   0  0  0  0  0  0  0  0  0  0  0  0
   -3.3035   -3.6738    1.3332 H   0  0  0  0  0  0  0  0  0  0  0  0
    0.1997    0.6045   -1.9009 H   0  0  0  0  0  0  0  0  0  0  0  0
    0.2935    2.9064   -1.9435 H   0  0  0  0  0  0  0  0  0  0  0  0
    0.2609    5.0622   -0.8647 H   0  0  0  0  0  0  0  0  0  0  0  0
   -1.0498    3.2550    2.7513 H   0  0  0  0  0  0  0  0  0  0  0  0
    1.3168   -2.4108    1.5319 H   0  0  0  0  0  0  0  0  0  0  0  0
    3.3482   -2.6635    3.5475 H   0  0  0  0  0  0  0  0  0  0  0  0
    3.3814   -3.7506    2.1182 H   0  0  0  0  0  0  0  0  0  0  0  0
    4.8745   -2.8026    2.5208 H   0  0  0  0  0  0  0  0  0  0  0  0
    5.3926    3.0910   -0.3796 H   0  0  0  0  0  0  0  0  0  0  0  0
    5.1558    2.0576   -1.8125 H   0  0  0  0  0  0  0  0  0  0  0  0
    3.7357    2.6971   -0.9443 H   0  0  0  0  0  0  0  0  0  0  0  0
    2.1374    1.0686   -0.7165 H   0  0  0  0  0  0  0  0  0  0  0  0
  1  2  1  0
  2  3  2  0
  3  4  1  0
  4  5  1  0
  5  6  1  0
  5  7  1  0
  4  8  1  0
  8  9  2  0
  9 10  1  0
 10 11  1  0
 11 12  2  0
 12 13  1  0
 13 14  2  0
 14 15  1  0
 14 16  1  0
 16 17  2  0
 17 18  1  0
 10 19  1  0
 19 20  1  0
 20 21  1  0
 21 22  2  0
 22 23  1  0
 22 24  1  0
 24 25  2  0
 25 26  1  0
 26 27  2  0
 27 28  1  0
 27 29  1  0
 29 30  1  0
 19 31  1  0
 31 32  2  0
  9  2  1  0
 17 11  1  0
 30 20  2  0
 31  8  1  0
 29 24  1  0
  1 33  1  0
  1 34  1  0
  1 35  1  0
  5 36  1  0
  6 37  1  0
  6 38  1  0
  6 39  1  0
  7 40  1  0
  7 41  1  0
  7 42  1  0
 10 43  1  0
 12 44  1  0
 13 45  1  0
 16 46  1  0
 21 47  1  0
 23 48  1  0
 23 49  1  0
 23 50  1  0
 28 51  1  0
 28 52  1  0
 28 53  1  0
 30 54  1  0
M  END
$$$$
