@<TRIPOS>MOLECULE
*****
 62 66 0 0 0
SMALL
GASTEIGER

@<TRIPOS>ATOM
      1 C          -3.4256    4.6256   -2.3234 C.3     1  UNL1       -0.0653
      2 C          -2.7810    4.6331   -0.9702 C.3     1  UNL1       -0.0556
      3 C          -2.9257    3.3375   -0.2836 C.3     1  UNL1       -0.0478
      4 C          -2.2526    2.2155   -1.0585 C.3     1  UNL1       -0.0084
      5 C          -2.3888    0.9319   -0.3541 C.ar    1  UNL1        0.0677
      6 N          -3.3836    0.0508   -0.6674 N.ar    1  UNL1       -0.1703
      7 N          -3.3483   -0.9619    0.1612 N.ar    1  UNL1       -0.2237
      8 C          -4.2227   -2.0818    0.1659 C.ar    1  UNL1        0.0859
      9 C          -4.0383   -3.1367   -0.7114 C.ar    1  UNL1       -0.0165
     10 C          -4.8734   -4.2286   -0.7205 C.ar    1  UNL1        0.0431
     11 CL         -4.6177   -5.5514   -1.8492 Cl      1  UNL1       -0.0835
     12 C          -5.9361   -4.3253    0.1447 C.ar    1  UNL1       -0.0419
     13 C          -6.1407   -3.2886    1.0281 C.ar    1  UNL1       -0.0399
     14 C          -5.2882   -2.1808    1.0323 C.ar    1  UNL1        0.0664
     15 CL         -5.5878   -0.8974    2.1637 Cl      1  UNL1       -0.0813
     16 C          -2.3387   -0.7773    1.0341 C.ar    1  UNL1        0.1548
     17 C          -2.0314   -1.7080    2.0867 C.2     1  UNL1        0.3557
     18 O          -2.6874   -2.7751    2.2222 O.2     1  UNL1       -0.2434
     19 O          -1.0245   -1.4802    2.9849 O.3     1  UNL1       -0.4761
     20 C          -1.6962    0.4312    0.7302 C.ar    1  UNL1        0.0123
     21 C          -0.4976    0.9732    1.3908 C.3     1  UNL1        0.0016
     22 C           0.7699    0.4732    0.8352 C.ar    1  UNL1       -0.0429
     23 C           1.1464    0.7259   -0.4524 C.ar    1  UNL1       -0.0577
     24 C           2.3631    0.2492   -0.8981 C.ar    1  UNL1       -0.0537
     25 C           3.2198   -0.4677   -0.1166 C.ar    1  UNL1       -0.0172
     26 C           4.4810   -0.9573   -0.6433 C.ar    1  UNL1       -0.0072
     27 C           4.5497   -1.9745   -1.5659 C.ar    1  UNL1       -0.0534
     28 C           5.7711   -2.4515   -2.0384 C.ar    1  UNL1       -0.0611
     29 C           6.9468   -1.9087   -1.5870 C.ar    1  UNL1       -0.0611
     30 C           6.8898   -0.8906   -0.6644 C.ar    1  UNL1       -0.0504
     31 C           5.6561   -0.4237   -0.2010 C.ar    1  UNL1        0.0282
     32 C           5.6410    0.6710    0.7474 C.ar    1  UNL1        0.1799
     33 N           4.6131    1.3701    1.2537 N.ar    1  UNL1       -0.1084
     34 N           5.1126    2.2832    2.0659 N.ar    1  UNL1       -0.0229
     35 N           6.4249    2.1879    2.0928 N.ar    1  UNL1       -0.0464
     36 N           6.7611    1.2068    1.2919 N.ar    1  UNL1       -0.2388
     37 C           2.8546   -0.7371    1.2013 C.ar    1  UNL1       -0.0537
     38 C           1.6549   -0.2679    1.6466 C.ar    1  UNL1       -0.0577
     39 H          -3.0673    3.8130   -2.9487 H       1  UNL1        0.0230
     40 H          -4.5351    4.6840   -2.2282 H       1  UNL1        0.0230
     41 H          -3.0612    5.5790   -2.8312 H       1  UNL1        0.0230
     42 H          -1.6897    4.8593   -1.0485 H       1  UNL1        0.0263
     43 H          -3.2457    5.4560   -0.3652 H       1  UNL1        0.0263
     44 H          -4.0169    3.1235   -0.1599 H       1  UNL1        0.0269
     45 H          -2.4336    3.3777    0.7240 H       1  UNL1        0.0269
     46 H          -1.2579    2.5004   -1.3958 H       1  UNL1        0.0329
     47 H          -2.8586    2.1294   -2.0108 H       1  UNL1        0.0329
     48 H          -3.2113   -3.0680   -1.3875 H       1  UNL1        0.0654
     49 H          -6.5838   -5.1955    0.1181 H       1  UNL1        0.0633
     50 H          -6.9552   -3.3216    1.7176 H       1  UNL1        0.0633
     51 H          -0.4177   -2.2097    3.3207 H       1  UNL1        0.2955
     52 H          -0.4936    2.0976    1.2610 H       1  UNL1        0.0363
     53 H          -0.5517    0.7226    2.4785 H       1  UNL1        0.0363
     54 H           0.5268    1.2871   -1.1580 H       1  UNL1        0.0621
     55 H           2.6195    0.4828   -1.9548 H       1  UNL1        0.0624
     56 H           3.6236   -2.4165   -1.9311 H       1  UNL1        0.0624
     57 H           5.8086   -3.2466   -2.7606 H       1  UNL1        0.0618
     58 H           7.9228   -2.2543   -1.9292 H       1  UNL1        0.0618
     59 H           7.8356   -0.4608   -0.3080 H       1  UNL1        0.0625
     60 H           7.7539    0.9324    1.1462 H       1  UNL1        0.1923
     61 H           3.5484   -1.3071    1.8024 H       1  UNL1        0.0624
     62 H           1.3702   -0.4588    2.6751 H       1  UNL1        0.0621
@<TRIPOS>BOND
     1     1     2    1
     2     2     3    1
     3     3     4    1
     4     4     5    1
     5     5     6   ar
     6     6     7   ar
     7     7     8    1
     8     8     9   ar
     9     9    10   ar
    10    10    11    1
    11    10    12   ar
    12    12    13   ar
    13    13    14   ar
    14    14    15    1
    15     7    16   ar
    16    16    17    1
    17    17    18    2
    18    17    19    1
    19    16    20   ar
    20    20    21    1
    21    21    22    1
    22    22    23   ar
    23    23    24   ar
    24    24    25   ar
    25    25    26    1
    26    26    27   ar
    27    27    28   ar
    28    28    29   ar
    29    29    30   ar
    30    30    31   ar
    31    31    32    1
    32    32    33   ar
    33    33    34   ar
    34    34    35   ar
    35    35    36   ar
    36    25    37   ar
    37    37    38   ar
    38    20     5   ar
    39    38    22   ar
    40    14     8   ar
    41    31    26   ar
    42    36    32   ar
    43     1    39    1
    44     1    40    1
    45     1    41    1
    46     2    42    1
    47     2    43    1
    48     3    44    1
    49     3    45    1
    50     4    46    1
    51     4    47    1
    52     9    48    1
    53    12    49    1
    54    13    50    1
    55    19    51    1
    56    21    52    1
    57    21    53    1
    58    23    54    1
    59    24    55    1
    60    27    56    1
    61    28    57    1
    62    29    58    1
    63    30    59    1
    64    36    60    1
    65    37    61    1
    66    38    62    1
