@<TRIPOS>MOLECULE
*****
 30 31 0 0 0
SMALL
GASTEIGER

@<TRIPOS>ATOM
      1 O          -2.5619    1.7469    0.3296 O.2     1  UNL1       -0.2507
      2 C          -1.9031    1.3336    1.3075 C.2     1  UNL1        0.3091
      3 O          -1.7962    2.1364    2.4268 O.3     1  UNL1       -0.4804
      4 C          -1.2334    0.0188    1.3145 C.3     1  UNL1        0.0716
      5 C          -1.4486   -0.7013    0.0332 C.ar    1  UNL1       -0.0156
      6 C          -2.4030   -1.7349   -0.0217 C.ar    1  UNL1       -0.0563
      7 C          -2.6383   -2.4127   -1.1952 C.ar    1  UNL1       -0.0614
      8 C          -1.9439   -2.0924   -2.3383 C.ar    1  UNL1       -0.0600
      9 C          -1.0160   -1.0952   -2.3045 C.ar    1  UNL1       -0.0403
     10 C          -0.7650   -0.3897   -1.1003 C.ar    1  UNL1        0.0351
     11 N           0.2282    0.6324   -1.1577 N.pl3   1  UNL1       -0.3120
     12 C           1.4234    0.6778   -0.4066 C.ar    1  UNL1        0.0684
     13 C           1.8301    1.7324    0.3845 C.ar    1  UNL1        0.0635
     14 CL          0.8527    3.1822    0.4514 Cl      1  UNL1       -0.0816
     15 C           2.9889    1.7478    1.1304 C.ar    1  UNL1       -0.0415
     16 C           3.8092    0.6545    1.1002 C.ar    1  UNL1       -0.0589
     17 C           3.4300   -0.4312    0.3097 C.ar    1  UNL1       -0.0415
     18 C           2.2728   -0.4426   -0.4328 C.ar    1  UNL1        0.0635
     19 CL          1.8979   -1.8590   -1.3882 Cl      1  UNL1       -0.0816
     20 H          -2.4007    2.8896    2.6520 H       1  UNL1        0.2951
     21 H          -1.7055   -0.5776    2.1635 H       1  UNL1        0.0427
     22 H          -0.1759    0.1687    1.5799 H       1  UNL1        0.0427
     23 H          -2.9261   -1.9521    0.9048 H       1  UNL1        0.0621
     24 H          -3.3878   -3.1979   -1.1688 H       1  UNL1        0.0618
     25 H          -2.1345   -2.6283   -3.2515 H       1  UNL1        0.0618
     26 H          -0.4343   -0.8012   -3.1932 H       1  UNL1        0.0636
     27 H           0.0759    1.4520   -1.8245 H       1  UNL1        0.1522
     28 H           3.2739    2.6029    1.7446 H       1  UNL1        0.0633
     29 H           4.7216    0.6513    1.6798 H       1  UNL1        0.0618
     30 H           4.0694   -1.3112    0.2710 H       1  UNL1        0.0633
@<TRIPOS>BOND
     1     1     2    2
     2     2     3    1
     3     2     4    1
     4     4     5    1
     5     5     6   ar
     6     6     7   ar
     7     7     8   ar
     8     8     9   ar
     9     9    10   ar
    10    10    11    1
    11    11    12    1
    12    12    13   ar
    13    13    14    1
    14    13    15   ar
    15    15    16   ar
    16    16    17   ar
    17    17    18   ar
    18    18    19    1
    19    10     5   ar
    20    18    12   ar
    21     3    20    1
    22     4    21    1
    23     4    22    1
    24     6    23    1
    25     7    24    1
    26     8    25    1
    27     9    26    1
    28    11    27    1
    29    15    28    1
    30    16    29    1
    31    17    30    1
