
     RDKit          3D

 30 31  0  0  0  0  0  0  0  0999 V2000
   -2.5619    1.7469    0.3296 O   0  0  0  0  0  0  0  0  0  0  0  0
   -1.9031    1.3336    1.3075 C   0  0  0  0  0  0  0  0  0  0  0  0
   -1.7962    2.1364    2.4268 O   0  0  0  0  0  0  0  0  0  0  0  0
   -1.2334    0.0188    1.3145 C   0  0  0  0  0  0  0  0  0  0  0  0
   -1.4486   -0.7013    0.0332 C   0  0  0  0  0  0  0  0  0  0  0  0
   -2.4030   -1.7349   -0.0217 C   0  0  0  0  0  0  0  0  0  0  0  0
   -2.6383   -2.4127   -1.1952 C   0  0  0  0  0  0  0  0  0  0  0  0
   -1.9439   -2.0924   -2.3383 C   0  0  0  0  0  0  0  0  0  0  0  0
   -1.0160   -1.0952   -2.3045 C   0  0  0  0  0  0  0  0  0  0  0  0
   -0.7650   -0.3897   -1.1003 C   0  0  0  0  0  0  0  0  0  0  0  0
    0.2282    0.6324   -1.1577 N   0  0  0  0  0  0  0  0  0  0  0  0
    1.4234    0.6778   -0.4066 C   0  0  0  0  0  0  0  0  0  0  0  0
    1.8301    1.7324    0.3845 C   0  0  0  0  0  0  0  0  0  0  0  0
    0.8527    3.1822    0.4514 Cl  0  0  0  0  0  0  0  0  0  0  0  0
    2.9889    1.7478    1.1304 C   0  0  0  0  0  0  0  0  0  0  0  0
    3.8092    0.6545    1.1002 C   0  0  0  0  0  0  0  0  0  0  0  0
    3.4300   -0.4312    0.3097 C   0  0  0  0  0  0  0  0  0  0  0  0
    2.2728   -0.4426   -0.4328 C   0  0  0  0  0  0  0  0  0  0  0  0
    1.8979   -1.8590   -1.3882 Cl  0  0  0  0  0  0  0  0  0  0  0  0
   -2.4007    2.8896    2.6520 H   0  0  0  0  0  0  0  0  0  0  0  0
   -1.7055   -0.5776    2.1635 H   0  0  0  0  0  0  0  0  0  0  0  0
   -0.1759    0.1687    1.5799 H   0  0  0  0  0  0  0  0  0  0  0  0
   -2.9261   -1.9521    0.9048 H   0  0  0  0  0  0  0  0  0  0  0  0
   -3.3878   -3.1979   -1.1688 H   0  0  0  0  0  0  0  0  0  0  0  0
   -2.1345   -2.6283   -3.2515 H   0  0  0  0  0  0  0  0  0  0  0  0
   -0.4343   -0.8012   -3.1932 H   0  0  0  0  0  0  0  0  0  0  0  0
    0.0759    1.4520   -1.8245 H   0  0  0  0  0  0  0  0  0  0  0  0
    3.2739    2.6029    1.7446 H   0  0  0  0  0  0  0  0  0  0  0  0
    4.7216    0.6513    1.6798 H   0  0  0  0  0  0  0  0  0  0  0  0
    4.0694   -1.3112    0.2710 H   0  0  0  0  0  0  0  0  0  0  0  0
  1  2  2  0
  2  3  1  0
  2  4  1  0
  4  5  1  0
  5  6  2  0
  6  7  1  0
  7  8  2  0
  8  9  1  0
  9 10  2  0
 10 11  1  0
 11 12  1  0
 12 13  2  0
 13 14  1  0
 13 15  1  0
 15 16  2  0
 16 17  1  0
 17 18  2  0
 18 19  1  0
 10  5  1  0
 18 12  1  0
  3 20  1  0
  4 21  1  0
  4 22  1  0
  6 23  1  0
  7 24  1  0
  8 25  1  0
  9 26  1  0
 11 27  1  0
 15 28  1  0
 16 29  1  0
 17 30  1  0
M  END
$$$$
