@<TRIPOS>MOLECULE
*****
 45 48 0 0 0
SMALL
GASTEIGER

@<TRIPOS>ATOM
      1 O           1.1852    0.0109   -1.2445 O.2     1  UNL1       -0.2748
      2 C           1.5956   -0.4692   -0.1689 C.2     1  UNL1        0.2271
      3 C           0.6773   -1.3408    0.6382 C.3     1  UNL1        0.0826
      4 C          -0.6366   -1.4808   -0.0353 C.ar    1  UNL1        0.1206
      5 N          -1.6181   -0.6071    0.2285 N.ar    1  UNL1       -0.2186
      6 C          -2.8233   -0.7152   -0.3734 C.ar    1  UNL1        0.1285
      7 N          -3.8185    0.2409   -0.0555 N.pl3   1  UNL1       -0.3106
      8 C          -5.1619    0.1716   -0.5794 C.3     1  UNL1        0.0370
      9 C          -6.2052    0.7853    0.2880 C.3     1  UNL1        0.0634
     10 O          -5.7834    1.8164    1.0899 O.3     1  UNL1       -0.3767
     11 C          -4.6471    1.4564    1.8317 C.3     1  UNL1        0.0634
     12 C          -3.5119    1.3719    0.8363 C.3     1  UNL1        0.0370
     13 C          -3.0471   -1.7290   -1.2645 C.ar    1  UNL1        0.0427
     14 C          -2.0359   -2.6297   -1.5368 C.ar    1  UNL1        0.2533
     15 O          -2.2748   -3.5552   -2.3650 O.2     1  UNL1       -0.2677
     16 N          -0.8672   -2.4731   -0.9124 N.ar    1  UNL1       -0.3104
     17 N           2.8986   -0.1912    0.2692 N.am    1  UNL1       -0.2705
     18 C           3.5778   -0.6480    1.4915 C.3     1  UNL1        0.0238
     19 C           4.9705   -0.8749    0.9501 C.3     1  UNL1       -0.0096
     20 C           5.1347    0.2390   -0.0118 C.ar    1  UNL1       -0.0218
     21 C           6.2465    0.8918   -0.5331 C.ar    1  UNL1       -0.0215
     22 C           6.1374    1.9213   -1.4388 C.ar    1  UNL1        0.1238
     23 F           7.2621    2.5164   -1.9090 F       1  UNL1       -0.2055
     24 C           4.8734    2.2978   -1.8249 C.ar    1  UNL1       -0.0247
     25 C           3.7655    1.6561   -1.3130 C.ar    1  UNL1       -0.0373
     26 C           3.8708    0.6206   -0.4022 C.ar    1  UNL1        0.0397
     27 H           1.1689   -2.3313    0.8014 H       1  UNL1        0.0438
     28 H           0.5250   -0.8895    1.6298 H       1  UNL1        0.0438
     29 H          -5.1230    0.6172   -1.5995 H       1  UNL1        0.0487
     30 H          -5.4220   -0.9020   -0.7007 H       1  UNL1        0.0487
     31 H          -6.9863    1.2190   -0.4012 H       1  UNL1        0.0575
     32 H          -6.7057   -0.0091    0.8934 H       1  UNL1        0.0575
     33 H          -4.7823    0.5172    2.3806 H       1  UNL1        0.0575
     34 H          -4.4522    2.3330    2.5129 H       1  UNL1        0.0575
     35 H          -2.5424    1.2132    1.3559 H       1  UNL1        0.0487
     36 H          -3.5162    2.3309    0.2585 H       1  UNL1        0.0487
     37 H          -3.9932   -1.8385   -1.7592 H       1  UNL1        0.0706
     38 H          -0.0862   -3.1407   -1.1008 H       1  UNL1        0.1700
     39 H           3.1164   -1.5520    1.8987 H       1  UNL1        0.0472
     40 H           3.5574    0.2226    2.1888 H       1  UNL1        0.0472
     41 H           4.9363   -1.8689    0.4246 H       1  UNL1        0.0329
     42 H           5.7400   -0.8650    1.7469 H       1  UNL1        0.0329
     43 H           7.2561    0.5942   -0.2274 H       1  UNL1        0.0649
     44 H           4.7819    3.1047   -2.5351 H       1  UNL1        0.0647
     45 H           2.7631    1.9628   -1.6263 H       1  UNL1        0.0637
@<TRIPOS>BOND
     1     1     2    2
     2     2     3    1
     3     3     4    1
     4     4     5   ar
     5     5     6   ar
     6     6     7    1
     7     7     8    1
     8     8     9    1
     9     9    10    1
    10    10    11    1
    11    11    12    1
    12     6    13   ar
    13    13    14   ar
    14    14    15    2
    15    14    16   ar
    16     2    17   am
    17    17    18    1
    18    18    19    1
    19    19    20    1
    20    20    21   ar
    21    21    22   ar
    22    22    23    1
    23    22    24   ar
    24    24    25   ar
    25    25    26   ar
    26    16     4   ar
    27    26    17    1
    28    12     7    1
    29    26    20   ar
    30     3    27    1
    31     3    28    1
    32     8    29    1
    33     8    30    1
    34     9    31    1
    35     9    32    1
    36    11    33    1
    37    11    34    1
    38    12    35    1
    39    12    36    1
    40    13    37    1
    41    16    38    1
    42    18    39    1
    43    18    40    1
    44    19    41    1
    45    19    42    1
    46    21    43    1
    47    24    44    1
    48    25    45    1
