
     RDKit          3D

 46 49  0  0  0  0  0  0  0  0999 V2000
   -2.7351   -0.1361    3.3779 C   0  0  0  0  0  0  0  0  0  0  0  0
   -3.1599   -0.3935    2.0894 O   0  0  0  0  0  0  0  0  0  0  0  0
   -2.5602   -0.0668    0.8988 C   0  0  0  0  0  0  0  0  0  0  0  0
   -1.3431    0.6315    0.9404 C   0  0  0  0  0  0  0  0  0  0  0  0
   -0.6699    0.9995   -0.1862 C   0  0  0  0  0  0  0  0  0  0  0  0
    0.6190    1.6840   -0.2506 C   0  0  0  0  0  0  0  0  0  0  0  0
    1.7962    1.3763    0.2398 C   0  0  0  0  0  0  0  0  0  0  0  0
    2.1515    0.2146    1.0161 C   0  0  0  0  0  0  0  0  0  0  0  0
    1.6707   -0.2850    2.1657 C   0  0  0  0  0  0  0  0  0  0  0  0
    2.3386   -1.4519    2.4639 N   0  0  0  0  0  0  0  0  0  0  0  0
    3.2488   -1.7080    1.5127 C   0  0  0  0  0  0  0  0  0  0  0  0
    4.1645   -2.7233    1.3212 C   0  0  0  0  0  0  0  0  0  0  0  0
    4.9981   -2.7386    0.2206 C   0  0  0  0  0  0  0  0  0  0  0  0
    4.9046   -1.7185   -0.6941 C   0  0  0  0  0  0  0  0  0  0  0  0
    3.9780   -0.6885   -0.5030 C   0  0  0  0  0  0  0  0  0  0  0  0
    3.1498   -0.6798    0.5979 C   0  0  0  0  0  0  0  0  0  0  0  0
    2.7754    2.4476   -0.1287 C   0  0  0  0  0  0  0  0  0  0  0  0
    3.9776    2.4121    0.2104 O   0  0  0  0  0  0  0  0  0  0  0  0
    2.0995    3.4256   -0.8799 N   0  0  0  0  0  0  0  0  0  0  0  0
    0.7703    2.9789   -0.9691 C   0  0  0  0  0  0  0  0  0  0  0  0
   -0.1578    3.5689   -1.5599 O   0  0  0  0  0  0  0  0  0  0  0  0
   -1.2764    0.6357   -1.4090 C   0  0  0  0  0  0  0  0  0  0  0  0
   -2.4658   -0.0460   -1.4645 C   0  0  0  0  0  0  0  0  0  0  0  0
   -3.0580   -0.4011   -2.6520 O   0  0  0  0  0  0  0  0  0  0  0  0
   -2.6311   -0.1738   -3.9463 C   0  0  0  0  0  0  0  0  0  0  0  0
   -3.1283   -0.4097   -0.3106 C   0  0  0  0  0  0  0  0  0  0  0  0
   -4.3345   -1.1021   -0.3363 O   0  0  0  0  0  0  0  0  0  0  0  0
   -5.5504   -0.3475   -0.3645 C   0  0  0  0  0  0  0  0  0  0  0  0
   -1.6291   -0.2102    3.4259 H   0  0  0  0  0  0  0  0  0  0  0  0
   -2.9779    0.9315    3.6553 H   0  0  0  0  0  0  0  0  0  0  0  0
   -3.1230   -0.8483    4.1358 H   0  0  0  0  0  0  0  0  0  0  0  0
   -0.9356    0.9178    1.8910 H   0  0  0  0  0  0  0  0  0  0  0  0
    0.9120    0.1241    2.7952 H   0  0  0  0  0  0  0  0  0  0  0  0
    2.1783   -2.0581    3.2938 H   0  0  0  0  0  0  0  0  0  0  0  0
    4.2612   -3.5296    2.0130 H   0  0  0  0  0  0  0  0  0  0  0  0
    5.7267   -3.5468    0.0682 H   0  0  0  0  0  0  0  0  0  0  0  0
    5.5485   -1.7277   -1.5475 H   0  0  0  0  0  0  0  0  0  0  0  0
    3.9146    0.0934   -1.2223 H   0  0  0  0  0  0  0  0  0  0  0  0
    2.4913    4.2922   -1.2840 H   0  0  0  0  0  0  0  0  0  0  0  0
   -0.7418    0.9303   -2.3036 H   0  0  0  0  0  0  0  0  0  0  0  0
   -2.6914   -1.0860   -4.5782 H   0  0  0  0  0  0  0  0  0  0  0  0
   -1.6183    0.2610   -3.9753 H   0  0  0  0  0  0  0  0  0  0  0  0
   -3.3197    0.5940   -4.3915 H   0  0  0  0  0  0  0  0  0  0  0  0
   -5.4277    0.6249    0.1633 H   0  0  0  0  0  0  0  0  0  0  0  0
   -5.7607   -0.1275   -1.4237 H   0  0  0  0  0  0  0  0  0  0  0  0
   -6.3796   -0.9397    0.0276 H   0  0  0  0  0  0  0  0  0  0  0  0
  1  2  1  0
  2  3  1  0
  3  4  2  0
  4  5  1  0
  5  6  1  0
  6  7  2  0
  7  8  1  0
  8  9  2  0
  9 10  1  0
 10 11  1  0
 11 12  2  0
 12 13  1  0
 13 14  2  0
 14 15  1  0
 15 16  2  0
  7 17  1  0
 17 18  2  0
 17 19  1  0
 19 20  1  0
 20 21  2  0
  5 22  2  0
 22 23  1  0
 23 24  1  0
 24 25  1  0
 23 26  2  0
 26 27  1  0
 27 28  1  0
 26  3  1  0
 20  6  1  0
 16  8  1  0
 16 11  1  0
  1 29  1  0
  1 30  1  0
  1 31  1  0
  4 32  1  0
  9 33  1  0
 10 34  1  0
 12 35  1  0
 13 36  1  0
 14 37  1  0
 15 38  1  0
 19 39  1  0
 22 40  1  0
 25 41  1  0
 25 42  1  0
 25 43  1  0
 28 44  1  0
 28 45  1  0
 28 46  1  0
M  END
$$$$
