@<TRIPOS>MOLECULE
*****
 46 49 0 0 0
SMALL
GASTEIGER

@<TRIPOS>ATOM
      1 C          -2.7351   -0.1361    3.3779 C.3     1  UNL1        0.0790
      2 O          -3.1599   -0.3935    2.0894 O.3     1  UNL1       -0.4913
      3 C          -2.5602   -0.0668    0.8988 C.ar    1  UNL1        0.1657
      4 C          -1.3431    0.6315    0.9404 C.ar    1  UNL1       -0.0082
      5 C          -0.6699    0.9995   -0.1862 C.ar    1  UNL1       -0.0050
      6 C           0.6190    1.6840   -0.2506 C.2     1  UNL1        0.0572
      7 C           1.7962    1.3763    0.2398 C.2     1  UNL1        0.0589
      8 C           2.1515    0.2146    1.0161 C.ar    1  UNL1        0.0129
      9 C           1.6707   -0.2850    2.1657 C.ar    1  UNL1        0.0106
     10 N           2.3386   -1.4519    2.4639 N.ar    1  UNL1       -0.3600
     11 C           3.2488   -1.7080    1.5127 C.ar    1  UNL1        0.0471
     12 C           4.1645   -2.7233    1.3212 C.ar    1  UNL1       -0.0378
     13 C           4.9981   -2.7386    0.2206 C.ar    1  UNL1       -0.0598
     14 C           4.9046   -1.7185   -0.6941 C.ar    1  UNL1       -0.0611
     15 C           3.9780   -0.6885   -0.5030 C.ar    1  UNL1       -0.0520
     16 C           3.1498   -0.6798    0.5979 C.ar    1  UNL1        0.0075
     17 C           2.7754    2.4476   -0.1287 C.2     1  UNL1        0.2519
     18 O           3.9776    2.4121    0.2104 O.2     1  UNL1       -0.2697
     19 N           2.0995    3.4256   -0.8799 N.am    1  UNL1       -0.2483
     20 C           0.7703    2.9789   -0.9691 C.2     1  UNL1        0.2518
     21 O          -0.1578    3.5689   -1.5599 O.2     1  UNL1       -0.2697
     22 C          -1.2764    0.6357   -1.4090 C.ar    1  UNL1       -0.0082
     23 C          -2.4658   -0.0460   -1.4645 C.ar    1  UNL1        0.1657
     24 O          -3.0580   -0.4011   -2.6520 O.3     1  UNL1       -0.4913
     25 C          -2.6311   -0.1738   -3.9463 C.3     1  UNL1        0.0790
     26 C          -3.1283   -0.4097   -0.3106 C.ar    1  UNL1        0.2035
     27 O          -4.3345   -1.1021   -0.3363 O.3     1  UNL1       -0.4885
     28 C          -5.5504   -0.3475   -0.3645 C.3     1  UNL1        0.0791
     29 H          -1.6291   -0.2102    3.4259 H       1  UNL1        0.0660
     30 H          -2.9779    0.9315    3.6553 H       1  UNL1        0.0660
     31 H          -3.1230   -0.8483    4.1358 H       1  UNL1        0.0660
     32 H          -0.9356    0.9178    1.8910 H       1  UNL1        0.0661
     33 H           0.9120    0.1241    2.7952 H       1  UNL1        0.0813
     34 H           2.1783   -2.0581    3.2938 H       1  UNL1        0.1654
     35 H           4.2612   -3.5296    2.0130 H       1  UNL1        0.0638
     36 H           5.7267   -3.5468    0.0682 H       1  UNL1        0.0618
     37 H           5.5485   -1.7277   -1.5475 H       1  UNL1        0.0618
     38 H           3.9146    0.0934   -1.2223 H       1  UNL1        0.0624
     39 H           2.4913    4.2922   -1.2840 H       1  UNL1        0.1581
     40 H          -0.7418    0.9303   -2.3036 H       1  UNL1        0.0661
     41 H          -2.6914   -1.0860   -4.5782 H       1  UNL1        0.0660
     42 H          -1.6183    0.2610   -3.9753 H       1  UNL1        0.0660
     43 H          -3.3197    0.5940   -4.3915 H       1  UNL1        0.0660
     44 H          -5.4277    0.6249    0.1633 H       1  UNL1        0.0660
     45 H          -5.7607   -0.1275   -1.4237 H       1  UNL1        0.0660
     46 H          -6.3796   -0.9397    0.0276 H       1  UNL1        0.0660
@<TRIPOS>BOND
     1     1     2    1
     2     2     3    1
     3     3     4   ar
     4     4     5   ar
     5     5     6    1
     6     6     7    2
     7     7     8    1
     8     8     9   ar
     9     9    10   ar
    10    10    11   ar
    11    11    12   ar
    12    12    13   ar
    13    13    14   ar
    14    14    15   ar
    15    15    16   ar
    16     7    17    1
    17    17    18    2
    18    17    19   am
    19    19    20   am
    20    20    21    2
    21     5    22   ar
    22    22    23   ar
    23    23    24    1
    24    24    25    1
    25    23    26   ar
    26    26    27    1
    27    27    28    1
    28    26     3   ar
    29    20     6    1
    30    16     8   ar
    31    16    11   ar
    32     1    29    1
    33     1    30    1
    34     1    31    1
    35     4    32    1
    36     9    33    1
    37    10    34    1
    38    12    35    1
    39    13    36    1
    40    14    37    1
    41    15    38    1
    42    19    39    1
    43    22    40    1
    44    25    41    1
    45    25    42    1
    46    25    43    1
    47    28    44    1
    48    28    45    1
    49    28    46    1
