
     RDKit          3D

 31 33  0  0  0  0  0  0  0  0999 V2000
   -2.2141    3.8269    0.3840 C   0  0  0  0  0  0  0  0  0  0  0  0
   -1.8303    2.3852    0.1820 C   0  0  0  0  0  0  0  0  0  0  0  0
   -0.7062    1.9079   -0.3862 N   0  0  0  0  0  0  0  0  0  0  0  0
   -0.7191    0.5632   -0.3880 C   0  0  0  0  0  0  0  0  0  0  0  0
   -1.9003    0.1701    0.2035 C   0  0  0  0  0  0  0  0  0  0  0  0
   -2.5427    1.3004    0.5335 N   0  0  0  0  0  0  0  0  0  0  0  0
   -2.2324   -1.1694    0.3622 C   0  0  0  0  0  0  0  0  0  0  0  0
   -3.3105   -1.5305    0.9021 O   0  0  0  0  0  0  0  0  0  0  0  0
   -1.3419   -2.0908   -0.0913 N   0  0  0  0  0  0  0  0  0  0  0  0
   -1.6480   -3.4927    0.0539 C   0  0  0  0  0  0  0  0  0  0  0  0
   -0.1937   -1.7005   -0.6663 C   0  0  0  0  0  0  0  0  0  0  0  0
    0.6507   -2.5287   -1.0960 O   0  0  0  0  0  0  0  0  0  0  0  0
    0.1296   -0.3839   -0.8207 N   0  0  0  0  0  0  0  0  0  0  0  0
    1.3544    0.0353   -1.4340 C   0  0  0  0  0  0  0  0  0  0  0  0
    2.4674    0.1960   -0.4455 C   0  0  0  0  0  0  0  0  0  0  0  0
    3.3146   -0.8350   -0.1184 C   0  0  0  0  0  0  0  0  0  0  0  0
    4.2080   -0.3505    0.8061 C   0  0  0  0  0  0  0  0  0  0  0  0
    3.8550    0.9676    0.9975 C   0  0  0  0  0  0  0  0  0  0  0  0
    2.8237    1.2370    0.2359 O   0  0  0  0  0  0  0  0  0  0  0  0
   -3.3259    3.8501    0.2122 H   0  0  0  0  0  0  0  0  0  0  0  0
   -1.9254    4.1928    1.3719 H   0  0  0  0  0  0  0  0  0  0  0  0
   -1.7751    4.3901   -0.4623 H   0  0  0  0  0  0  0  0  0  0  0  0
   -3.4729    1.3623    1.0017 H   0  0  0  0  0  0  0  0  0  0  0  0
   -2.7174   -3.6216    0.3201 H   0  0  0  0  0  0  0  0  0  0  0  0
   -1.0441   -3.9145    0.8995 H   0  0  0  0  0  0  0  0  0  0  0  0
   -1.4514   -4.0441   -0.8773 H   0  0  0  0  0  0  0  0  0  0  0  0
    1.6500   -0.6849   -2.2083 H   0  0  0  0  0  0  0  0  0  0  0  0
    1.2279    1.0380   -1.9199 H   0  0  0  0  0  0  0  0  0  0  0  0
    3.3041   -1.8580   -0.5044 H   0  0  0  0  0  0  0  0  0  0  0  0
    5.0197   -0.8876    1.2858 H   0  0  0  0  0  0  0  0  0  0  0  0
    4.3463    1.6695    1.6665 H   0  0  0  0  0  0  0  0  0  0  0  0
  1  2  1  0
  2  3  2  0
  3  4  1  0
  4  5  2  0
  5  6  1  0
  5  7  1  0
  7  8  2  0
  7  9  1  0
  9 10  1  0
  9 11  1  0
 11 12  2  0
 11 13  1  0
 13 14  1  0
 14 15  1  0
 15 16  2  0
 16 17  1  0
 17 18  2  0
 18 19  1  0
  6  2  1  0
 19 15  1  0
 13  4  1  0
  1 20  1  0
  1 21  1  0
  1 22  1  0
  6 23  1  0
 10 24  1  0
 10 25  1  0
 10 26  1  0
 14 27  1  0
 14 28  1  0
 16 29  1  0
 17 30  1  0
 18 31  1  0
M  END
$$$$
