@<TRIPOS>MOLECULE
*****
 31 33 0 0 0
SMALL
GASTEIGER

@<TRIPOS>ATOM
      1 C          -2.2141    3.8269    0.3840 C.3     1  UNL1       -0.0064
      2 C          -1.8303    2.3852    0.1820 C.ar    1  UNL1        0.1069
      3 N          -0.7062    1.9079   -0.3862 N.ar    1  UNL1       -0.2147
      4 C          -0.7191    0.5632   -0.3880 C.ar    1  UNL1        0.1686
      5 C          -1.9003    0.1701    0.2035 C.ar    1  UNL1        0.1491
      6 N          -2.5427    1.3004    0.5335 N.ar    1  UNL1       -0.3365
      7 C          -2.2324   -1.1694    0.3622 C.ar    1  UNL1        0.2820
      8 O          -3.3105   -1.5305    0.9021 O.2     1  UNL1       -0.2652
      9 N          -1.3419   -2.0908   -0.0913 N.ar    1  UNL1       -0.2622
     10 C          -1.6480   -3.4927    0.0539 C.3     1  UNL1        0.0196
     11 C          -0.1937   -1.7005   -0.6663 C.ar    1  UNL1        0.3337
     12 O           0.6507   -2.5287   -1.0960 O.2     1  UNL1       -0.2462
     13 N           0.1296   -0.3839   -0.8207 N.ar    1  UNL1       -0.2690
     14 C           1.3544    0.0353   -1.4340 C.3     1  UNL1        0.0873
     15 C           2.4674    0.1960   -0.4455 C.ar    1  UNL1        0.1246
     16 C           3.3146   -0.8350   -0.1184 C.ar    1  UNL1       -0.0189
     17 C           4.2080   -0.3505    0.8061 C.ar    1  UNL1       -0.0236
     18 C           3.8550    0.9676    0.9975 C.ar    1  UNL1        0.0922
     19 O           2.8237    1.2370    0.2359 O.2     1  UNL1       -0.4660
     20 H          -3.3259    3.8501    0.2122 H       1  UNL1        0.0307
     21 H          -1.9254    4.1928    1.3719 H       1  UNL1        0.0307
     22 H          -1.7751    4.3901   -0.4623 H       1  UNL1        0.0307
     23 H          -3.4729    1.3623    1.0017 H       1  UNL1        0.1673
     24 H          -2.7174   -3.6216    0.3201 H       1  UNL1        0.0458
     25 H          -1.0441   -3.9145    0.8995 H       1  UNL1        0.0458
     26 H          -1.4514   -4.0441   -0.8773 H       1  UNL1        0.0458
     27 H           1.6500   -0.6849   -2.2083 H       1  UNL1        0.0574
     28 H           1.2279    1.0380   -1.9199 H       1  UNL1        0.0574
     29 H           3.3041   -1.8580   -0.5044 H       1  UNL1        0.0652
     30 H           5.0197   -0.8876    1.2858 H       1  UNL1        0.0649
     31 H           4.3463    1.6695    1.6665 H       1  UNL1        0.1029
@<TRIPOS>BOND
     1     1     2    1
     2     2     3   ar
     3     3     4   ar
     4     4     5   ar
     5     5     6   ar
     6     5     7   ar
     7     7     8    2
     8     7     9   ar
     9     9    10    1
    10     9    11   ar
    11    11    12    2
    12    11    13   ar
    13    13    14    1
    14    14    15    1
    15    15    16   ar
    16    16    17   ar
    17    17    18   ar
    18    18    19   ar
    19     6     2   ar
    20    19    15   ar
    21    13     4   ar
    22     1    20    1
    23     1    21    1
    24     1    22    1
    25     6    23    1
    26    10    24    1
    27    10    25    1
    28    10    26    1
    29    14    27    1
    30    14    28    1
    31    16    29    1
    32    17    30    1
    33    18    31    1
