@<TRIPOS>MOLECULE
*****
 29 30 0 0 0
SMALL
GASTEIGER

@<TRIPOS>ATOM
      1 C          -2.9158   -0.5568    0.9432 C.3     1  UNL1       -0.0389
      2 C          -2.6800    0.2368   -0.3505 C.ar    1  UNL1       -0.0387
      3 C          -3.3783    1.3108   -0.6963 C.ar    1  UNL1       -0.0515
      4 C          -3.1680    1.9948   -1.8249 C.ar    1  UNL1       -0.0238
      5 S          -1.7618    0.9942   -2.5502 S.2     1  UNL1       -0.0998
      6 C          -1.6685   -0.1885   -1.2326 C.ar    1  UNL1        0.0097
      7 C          -0.7680   -1.3718   -1.0857 C.3     1  UNL1        0.0408
      8 N           0.2506   -1.1654   -0.0826 N.pl3   1  UNL1       -0.3374
      9 C           1.3859   -0.3538   -0.2070 C.ar    1  UNL1        0.0599
     10 C           1.6735    0.3174   -1.4062 C.ar    1  UNL1        0.0492
     11 N           2.7420    1.0764   -1.5987 N.ar    1  UNL1       -0.2614
     12 C           3.6476    1.2568   -0.6261 C.ar    1  UNL1        0.0285
     13 C           3.4270    0.6301    0.5670 C.ar    1  UNL1       -0.0278
     14 C           2.3027   -0.1795    0.7977 C.ar    1  UNL1        0.0825
     15 C           2.1715   -0.7890    2.1088 C.2     1  UNL1        0.3387
     16 O           1.2580   -1.5244    2.5182 O.2     1  UNL1       -0.2451
     17 O           3.1796   -0.5423    3.0607 O.3     1  UNL1       -0.4771
     18 H          -2.7287   -1.6168    0.7462 H       1  UNL1        0.0278
     19 H          -2.3171   -0.1142    1.7550 H       1  UNL1        0.0278
     20 H          -3.9878   -0.4551    1.2093 H       1  UNL1        0.0278
     21 H          -4.2137    1.6987   -0.0109 H       1  UNL1        0.0626
     22 H          -3.5548    2.8316   -2.3126 H       1  UNL1        0.0693
     23 H          -0.3305   -1.6220   -2.0809 H       1  UNL1        0.0516
     24 H          -1.3467   -2.2818   -0.8128 H       1  UNL1        0.0516
     25 H           0.0689   -1.6966    0.7944 H       1  UNL1        0.1465
     26 H           0.9919    0.1894   -2.2052 H       1  UNL1        0.0848
     27 H           4.5316    1.8894   -0.7969 H       1  UNL1        0.0830
     28 H           4.1657    0.7854    1.3397 H       1  UNL1        0.0641
     29 H           3.0233   -0.7534    4.0398 H       1  UNL1        0.2954
@<TRIPOS>BOND
     1     1     2    1
     2     2     3   ar
     3     3     4   ar
     4     4     5   ar
     5     5     6   ar
     6     6     7    1
     7     7     8    1
     8     8     9    1
     9     9    10   ar
    10    10    11   ar
    11    11    12   ar
    12    12    13   ar
    13    13    14   ar
    14    14    15    1
    15    15    16    2
    16    15    17    1
    17     6     2   ar
    18    14     9   ar
    19     1    18    1
    20     1    19    1
    21     1    20    1
    22     3    21    1
    23     4    22    1
    24     7    23    1
    25     7    24    1
    26     8    25    1
    27    10    26    1
    28    12    27    1
    29    13    28    1
    30    17    29    1
