@<TRIPOS>MOLECULE
*****
 33 36 0 0 0
SMALL
GASTEIGER

@<TRIPOS>ATOM
      1 N          -1.4588   -2.2554   -2.6888 N.ar    1  UNL1       -0.2835
      2 C          -0.2542   -2.2696   -2.0866 C.ar    1  UNL1        0.0307
      3 C          -0.2484   -1.3599   -1.0255 C.ar    1  UNL1        0.0294
      4 C          -1.5141   -0.8154   -1.0421 C.ar    1  UNL1        0.1183
      5 N          -2.2267   -1.3778   -2.0622 N.ar    1  UNL1       -0.1717
      6 C          -2.0183    0.1941   -0.1200 C.ar    1  UNL1        0.0915
      7 N          -1.9056    1.5328   -0.1866 N.ar    1  UNL1       -0.2534
      8 C          -2.4299    2.3488    0.7463 C.ar    1  UNL1        0.0283
      9 C          -3.1131    1.7825    1.8176 C.ar    1  UNL1       -0.0436
     10 C          -3.2589    0.3989    1.9342 C.ar    1  UNL1       -0.0583
     11 C          -2.6922   -0.3947    0.9340 C.ar    1  UNL1       -0.0341
     12 C           0.8833   -1.0979   -0.1465 C.ar    1  UNL1       -0.0037
     13 C           1.6422    0.0538   -0.0432 C.ar    1  UNL1        0.0082
     14 C           1.2697    1.0657   -0.8928 C.ar    1  UNL1       -0.0520
     15 C           2.0183    2.2348   -0.8105 C.ar    1  UNL1       -0.0611
     16 C           3.0775    2.3343    0.0950 C.ar    1  UNL1       -0.0597
     17 C           3.4142    1.2872    0.9300 C.ar    1  UNL1       -0.0357
     18 C           2.6833    0.1270    0.8591 C.ar    1  UNL1        0.0715
     19 N           3.0093   -0.9066    1.6742 N.ar    1  UNL1       -0.2549
     20 C           2.2919   -2.0414    1.5994 C.ar    1  UNL1        0.0288
     21 C           1.2326   -2.1543    0.7010 C.ar    1  UNL1       -0.0352
     22 H          -1.8601   -2.7714   -3.4953 H       1  UNL1        0.1882
     23 H           0.5587   -2.9217   -2.4273 H       1  UNL1        0.0830
     24 H          -2.2917    3.4102    0.6143 H       1  UNL1        0.0830
     25 H          -3.5374    2.4568    2.5746 H       1  UNL1        0.0633
     26 H          -3.8031   -0.0248    2.7894 H       1  UNL1        0.0619
     27 H          -2.8522   -1.4613    1.1015 H       1  UNL1        0.0639
     28 H           0.4474    0.9735   -1.5890 H       1  UNL1        0.0624
     29 H           1.7962    3.0778   -1.4386 H       1  UNL1        0.0618
     30 H           3.6928    3.2230    0.1998 H       1  UNL1        0.0618
     31 H           4.2274    1.3294    1.6420 H       1  UNL1        0.0639
     32 H           2.5231   -2.8867    2.2338 H       1  UNL1        0.0830
     33 H           0.6968   -3.0914    0.6903 H       1  UNL1        0.0639
@<TRIPOS>BOND
     1     1     2   ar
     2     2     3   ar
     3     3     4   ar
     4     4     5   ar
     5     4     6    1
     6     6     7   ar
     7     7     8   ar
     8     8     9   ar
     9     9    10   ar
    10    10    11   ar
    11     3    12    1
    12    12    13   ar
    13    13    14   ar
    14    14    15   ar
    15    15    16   ar
    16    16    17   ar
    17    17    18   ar
    18    18    19   ar
    19    19    20   ar
    20    20    21   ar
    21     5     1   ar
    22    11     6   ar
    23    21    12   ar
    24    18    13   ar
    25     1    22    1
    26     2    23    1
    27     8    24    1
    28     9    25    1
    29    10    26    1
    30    11    27    1
    31    14    28    1
    32    15    29    1
    33    16    30    1
    34    17    31    1
    35    20    32    1
    36    21    33    1
