@<TRIPOS>MOLECULE
*****
 52 53 0 0 0
SMALL
GASTEIGER

@<TRIPOS>ATOM
      1 C          -2.5503   -2.4059    2.3240 C.3     1  UNL1       -0.0559
      2 C          -1.4621   -2.4492    1.2560 C.3     1  UNL1       -0.0092
      3 C          -0.3334   -3.3177    1.7691 C.3     1  UNL1       -0.0559
      4 C          -2.0533   -3.1746    0.0687 C.3     1  UNL1       -0.0559
      5 C          -0.9530   -1.1149    0.9324 C.ar    1  UNL1       -0.0000
      6 C           0.3851   -0.8464    1.1281 C.ar    1  UNL1       -0.0511
      7 C           0.9152    0.4176    0.8320 C.ar    1  UNL1       -0.0421
      8 C           2.3546    0.7039    1.0550 C.3     1  UNL1        0.0023
      9 C           3.2526    0.2430    0.0091 C.ar    1  UNL1        0.0146
     10 C           3.9944   -0.9041    0.1917 C.ar    1  UNL1        0.0379
     11 N           4.8152   -1.3212   -0.7861 N.ar    1  UNL1       -0.2227
     12 C           4.9633   -0.6811   -1.9525 C.ar    1  UNL1        0.2142
     13 N           5.8482   -1.1650   -2.9590 N.pl3   1  UNL1       -0.3274
     14 N           4.2497    0.4382   -2.1496 N.ar    1  UNL1       -0.1999
     15 C           3.4014    0.8995   -1.1812 C.ar    1  UNL1        0.1247
     16 N           2.7057    2.0892   -1.4929 N.pl3   1  UNL1       -0.3428
     17 C           0.0646    1.3805    0.3421 C.ar    1  UNL1       -0.0511
     18 C          -1.2991    1.1626    0.1243 C.ar    1  UNL1       -0.0000
     19 C          -2.1386    2.2403   -0.4013 C.3     1  UNL1       -0.0092
     20 C          -1.2862    3.4709   -0.6176 C.3     1  UNL1       -0.0559
     21 C          -3.2722    2.6338    0.5074 C.3     1  UNL1       -0.0559
     22 C          -2.7585    1.9002   -1.7544 C.3     1  UNL1       -0.0559
     23 C          -1.7666   -0.0972    0.4322 C.ar    1  UNL1        0.1242
     24 O          -3.0888   -0.3769    0.2433 O.3     1  UNL1       -0.5062
     25 H          -2.3428   -1.6627    3.1069 H       1  UNL1        0.0238
     26 H          -2.6356   -3.3921    2.8371 H       1  UNL1        0.0238
     27 H          -3.5396   -2.1665    1.8952 H       1  UNL1        0.0238
     28 H           0.3958   -3.3921    0.9133 H       1  UNL1        0.0238
     29 H          -0.6992   -4.3588    1.9723 H       1  UNL1        0.0238
     30 H           0.1405   -2.9444    2.6765 H       1  UNL1        0.0238
     31 H          -1.3626   -3.1062   -0.7820 H       1  UNL1        0.0238
     32 H          -3.0891   -2.9071   -0.1380 H       1  UNL1        0.0238
     33 H          -2.0662   -4.2662    0.3586 H       1  UNL1        0.0238
     34 H           1.0918   -1.5699    1.5108 H       1  UNL1        0.0624
     35 H           2.6067    0.2775    2.0678 H       1  UNL1        0.0363
     36 H           2.4216    1.8125    1.2051 H       1  UNL1        0.0363
     37 H           3.9267   -1.4847    1.1228 H       1  UNL1        0.0834
     38 H           6.8550   -1.3644   -2.7930 H       1  UNL1        0.1452
     39 H           5.4030   -1.3123   -3.9113 H       1  UNL1        0.1452
     40 H           2.6979    2.8636   -0.7997 H       1  UNL1        0.1437
     41 H           2.1959    2.2325   -2.3873 H       1  UNL1        0.1437
     42 H           0.4959    2.3706    0.1225 H       1  UNL1        0.0624
     43 H          -1.9551    4.2700   -1.0473 H       1  UNL1        0.0238
     44 H          -0.4969    3.3262   -1.3752 H       1  UNL1        0.0238
     45 H          -0.9202    3.8185    0.3586 H       1  UNL1        0.0238
     46 H          -3.5439    3.6980    0.2712 H       1  UNL1        0.0238
     47 H          -4.1595    2.0377    0.2295 H       1  UNL1        0.0238
     48 H          -3.0153    2.6079    1.5688 H       1  UNL1        0.0238
     49 H          -2.2106    1.1047   -2.2649 H       1  UNL1        0.0238
     50 H          -2.8353    2.8252   -2.3929 H       1  UNL1        0.0238
     51 H          -3.8075    1.5583   -1.6279 H       1  UNL1        0.0238
     52 H          -3.5394   -0.6013   -0.6185 H       1  UNL1        0.2922
@<TRIPOS>BOND
     1     1     2    1
     2     2     3    1
     3     2     4    1
     4     2     5    1
     5     5     6   ar
     6     6     7   ar
     7     7     8    1
     8     8     9    1
     9     9    10   ar
    10    10    11   ar
    11    11    12   ar
    12    12    13    1
    13    12    14   ar
    14    14    15   ar
    15    15    16    1
    16     7    17   ar
    17    17    18   ar
    18    18    19    1
    19    19    20    1
    20    19    21    1
    21    19    22    1
    22    18    23   ar
    23    23    24    1
    24    23     5   ar
    25    15     9   ar
    26     1    25    1
    27     1    26    1
    28     1    27    1
    29     3    28    1
    30     3    29    1
    31     3    30    1
    32     4    31    1
    33     4    32    1
    34     4    33    1
    35     6    34    1
    36     8    35    1
    37     8    36    1
    38    10    37    1
    39    13    38    1
    40    13    39    1
    41    16    40    1
    42    16    41    1
    43    17    42    1
    44    20    43    1
    45    20    44    1
    46    20    45    1
    47    21    46    1
    48    21    47    1
    49    21    48    1
    50    22    49    1
    51    22    50    1
    52    22    51    1
    53    24    52    1
