@<TRIPOS>MOLECULE
*****
 49 52 0 0 0
SMALL
GASTEIGER

@<TRIPOS>ATOM
      1 N          -8.7955   -0.7400    3.1335 N.am    1  UNL1       -0.3253
      2 C          -7.7067   -0.0046    2.6119 C.2     1  UNL1        0.2431
      3 O          -7.4310    1.1437    3.0327 O.2     1  UNL1       -0.2704
      4 C          -6.8751   -0.5945    1.5516 C.ar    1  UNL1        0.0580
      5 C          -7.1557   -1.8587    1.0684 C.ar    1  UNL1        0.0399
      6 N          -6.4312   -2.4334    0.1097 N.ar    1  UNL1       -0.2589
      7 C          -5.3883   -1.7887   -0.4243 C.ar    1  UNL1        0.0692
      8 C          -5.0777   -0.5266    0.0316 C.ar    1  UNL1        0.1397
      9 O          -4.0045    0.1403   -0.5160 O.3     1  UNL1       -0.4858
     10 C          -3.2172   -0.4472   -1.5366 C.3     1  UNL1        0.1148
     11 C          -2.1296    0.4661   -1.9552 C.ar    1  UNL1       -0.0087
     12 C          -2.3265    1.3701   -2.9746 C.ar    1  UNL1       -0.0552
     13 C          -1.2666    2.2076   -3.3283 C.ar    1  UNL1       -0.0596
     14 C          -0.0580    2.1117   -2.6556 C.ar    1  UNL1       -0.0404
     15 C           0.1459    1.2104   -1.6358 C.ar    1  UNL1        0.0340
     16 N           1.4028    1.1515   -0.9779 N.am    1  UNL1       -0.2815
     17 C           2.4470    0.3150   -1.4134 C.2     1  UNL1        0.2497
     18 O           2.2194   -0.3968   -2.4333 O.2     1  UNL1       -0.2698
     19 C           3.7473    0.2247   -0.7695 C.ar    1  UNL1        0.0552
     20 C           4.0616    0.9723    0.3456 C.ar    1  UNL1       -0.0447
     21 C           5.3176    0.8447    0.9170 C.ar    1  UNL1       -0.0167
     22 C           6.2731   -0.0164    0.3991 C.ar    1  UNL1        0.1539
     23 N           7.5678   -0.1603    0.9727 N.ar    1  UNL1       -0.2218
     24 C           8.1446   -1.3563    1.2082 C.ar    1  UNL1        0.0329
     25 C           9.4041   -1.1591    1.7722 C.ar    1  UNL1       -0.0237
     26 C           9.5424    0.2104    1.8581 C.ar    1  UNL1        0.0498
     27 N           8.4166    0.7517    1.3667 N.ar    1  UNL1       -0.1735
     28 N           5.9397   -0.7335   -0.6891 N.ar    1  UNL1       -0.2354
     29 C           4.7192   -0.6210   -1.2587 C.ar    1  UNL1        0.0421
     30 C          -0.9227    0.3959   -1.3098 C.ar    1  UNL1       -0.0341
     31 C          -5.8093    0.1071    1.0303 C.ar    1  UNL1       -0.0048
     32 H          -8.6431   -1.7014    3.4809 H       1  UNL1        0.1453
     33 H          -9.7699   -0.3455    3.1843 H       1  UNL1        0.1453
     34 H          -8.0127   -2.3779    1.5135 H       1  UNL1        0.0837
     35 H          -4.7967   -2.2617   -1.2093 H       1  UNL1        0.0867
     36 H          -3.8455   -0.6358   -2.4387 H       1  UNL1        0.0748
     37 H          -2.7572   -1.3956   -1.2351 H       1  UNL1        0.0748
     38 H          -3.2538    1.4650   -3.5125 H       1  UNL1        0.0621
     39 H          -1.4133    2.9248   -4.1325 H       1  UNL1        0.0618
     40 H           0.7306    2.7811   -2.9663 H       1  UNL1        0.0636
     41 H           1.5601    1.7492   -0.1411 H       1  UNL1        0.1551
     42 H           3.3651    1.6546    0.7914 H       1  UNL1        0.0627
     43 H           5.6193    1.4097    1.7971 H       1  UNL1        0.0655
     44 H           7.7430   -2.3521    1.0117 H       1  UNL1        0.0831
     45 H          10.1192   -1.9206    2.0769 H       1  UNL1        0.0648
     46 H          10.4282    0.6808    2.2607 H       1  UNL1        0.0848
     47 H           4.5046   -1.2319   -2.1454 H       1  UNL1        0.0838
     48 H          -0.7819   -0.3273   -0.5023 H       1  UNL1        0.0640
     49 H          -5.5498    1.0986    1.3751 H       1  UNL1        0.0663
@<TRIPOS>BOND
     1     1     2   am
     2     2     3    2
     3     2     4    1
     4     4     5   ar
     5     5     6   ar
     6     6     7   ar
     7     7     8   ar
     8     8     9    1
     9     9    10    1
    10    10    11    1
    11    11    12   ar
    12    12    13   ar
    13    13    14   ar
    14    14    15   ar
    15    15    16    1
    16    16    17   am
    17    17    18    2
    18    17    19    1
    19    19    20   ar
    20    20    21   ar
    21    21    22   ar
    22    22    23    1
    23    23    24   ar
    24    24    25   ar
    25    25    26   ar
    26    26    27   ar
    27    22    28   ar
    28    28    29   ar
    29    15    30   ar
    30     8    31   ar
    31    31     4   ar
    32    30    11   ar
    33    29    19   ar
    34    27    23   ar
    35     1    32    1
    36     1    33    1
    37     5    34    1
    38     7    35    1
    39    10    36    1
    40    10    37    1
    41    12    38    1
    42    13    39    1
    43    14    40    1
    44    16    41    1
    45    20    42    1
    46    21    43    1
    47    24    44    1
    48    25    45    1
    49    26    46    1
    50    29    47    1
    51    30    48    1
    52    31    49    1
