@<TRIPOS>MOLECULE
*****
 56 60 0 0 0
SMALL
GASTEIGER

@<TRIPOS>ATOM
      1 O           3.8056   -4.0797   -0.6978 O.3     1  UNL1       -0.3918
      2 C           3.6115   -2.7630   -0.2352 C.3     1  UNL1        0.0554
      3 C           3.5593   -1.8565   -1.4699 C.3     1  UNL1       -0.0252
      4 C           2.6165   -0.6963   -1.1991 C.3     1  UNL1       -0.0322
      5 C           2.6967   -0.4119    0.2772 C.3     1  UNL1        0.0221
      6 N           2.3363    0.9722    0.5876 N.pl3   1  UNL1       -0.3256
      7 C           1.0512    1.4590    0.2429 C.ar    1  UNL1        0.1333
      8 N           0.1667    0.6027   -0.3735 N.ar    1  UNL1       -0.1988
      9 C          -1.0536    0.9583   -0.7429 C.ar    1  UNL1        0.2212
     10 N          -1.9619    0.0212   -1.3795 N.pl3   1  UNL1       -0.2830
     11 C          -2.9031   -0.6158   -0.5363 C.ar    1  UNL1        0.0413
     12 C          -2.9632   -0.2884    0.8255 C.ar    1  UNL1       -0.0399
     13 C          -3.8562   -0.8517    1.6954 C.ar    1  UNL1       -0.0594
     14 C          -4.7247   -1.7807    1.1830 C.ar    1  UNL1       -0.0539
     15 C          -4.6851   -2.1259   -0.1727 C.ar    1  UNL1       -0.0161
     16 C          -5.5746   -3.0708   -0.6549 C.ar    1  UNL1       -0.0540
     17 C          -5.5947   -3.4669   -1.9819 C.ar    1  UNL1       -0.0612
     18 C          -4.6705   -2.8657   -2.8191 C.ar    1  UNL1       -0.0611
     19 C          -3.7643   -1.9194   -2.3858 C.ar    1  UNL1       -0.0523
     20 C          -3.7843   -1.5589   -1.0558 C.ar    1  UNL1        0.0033
     21 N          -1.4624    2.2011   -0.5154 N.ar    1  UNL1       -0.2219
     22 C          -0.6864    3.1182    0.0776 C.ar    1  UNL1        0.0437
     23 C           0.5986    2.7341    0.4640 C.ar    1  UNL1        0.0582
     24 C           1.4397    3.7447    1.1151 C.ar    1  UNL1        0.0757
     25 C           0.9756    5.0264    1.3371 C.ar    1  UNL1       -0.0355
     26 C           1.7783    5.9886    1.9595 C.ar    1  UNL1       -0.0583
     27 C           3.0465    5.6760    2.3632 C.ar    1  UNL1       -0.0436
     28 C           3.4701    4.3811    2.1212 C.ar    1  UNL1        0.0283
     29 N           2.6812    3.5028    1.5306 N.ar    1  UNL1       -0.2548
     30 C           1.8704   -1.4191    1.0047 C.3     1  UNL1       -0.0322
     31 C           2.2732   -2.7852    0.4697 C.3     1  UNL1       -0.0252
     32 H           4.6198   -4.4646   -0.2985 H       1  UNL1        0.2098
     33 H           4.4450   -2.5058    0.4156 H       1  UNL1        0.0593
     34 H           3.3061   -2.4226   -2.3659 H       1  UNL1        0.0291
     35 H           4.5860   -1.4097   -1.6208 H       1  UNL1        0.0291
     36 H           2.9592    0.2124   -1.7302 H       1  UNL1        0.0284
     37 H           1.5938   -1.0019   -1.4460 H       1  UNL1        0.0284
     38 H           3.7497   -0.5591    0.5752 H       1  UNL1        0.0498
     39 H           3.0233    1.5703    1.0522 H       1  UNL1        0.1478
     40 H          -1.8970   -0.1414   -2.3730 H       1  UNL1        0.1550
     41 H          -2.2767    0.4428    1.2199 H       1  UNL1        0.0636
     42 H          -3.8983   -0.5949    2.7476 H       1  UNL1        0.0618
     43 H          -5.4613   -2.2677    1.8146 H       1  UNL1        0.0624
     44 H          -6.2820   -3.5123    0.0488 H       1  UNL1        0.0624
     45 H          -6.3130   -4.2092   -2.2956 H       1  UNL1        0.0618
     46 H          -4.6584   -3.1529   -3.8610 H       1  UNL1        0.0618
     47 H          -3.0520   -1.4706   -3.0773 H       1  UNL1        0.0624
     48 H          -1.0854    4.1051    0.2300 H       1  UNL1        0.0838
     49 H           0.0060    5.3279    1.0486 H       1  UNL1        0.0639
     50 H           1.4115    6.9965    2.1330 H       1  UNL1        0.0619
     51 H           3.6962    6.3894    2.8467 H       1  UNL1        0.0633
     52 H           4.4898    4.1592    2.4559 H       1  UNL1        0.0830
     53 H           2.1212   -1.4352    2.1039 H       1  UNL1        0.0284
     54 H           0.7843   -1.3002    0.9076 H       1  UNL1        0.0284
     55 H           1.5174   -3.0483   -0.3120 H       1  UNL1        0.0291
     56 H           2.3219   -3.5374    1.2712 H       1  UNL1        0.0291
@<TRIPOS>BOND
     1     1     2    1
     2     2     3    1
     3     3     4    1
     4     4     5    1
     5     5     6    1
     6     6     7    1
     7     7     8   ar
     8     8     9   ar
     9     9    10    1
    10    10    11    1
    11    11    12   ar
    12    12    13   ar
    13    13    14   ar
    14    14    15   ar
    15    15    16   ar
    16    16    17   ar
    17    17    18   ar
    18    18    19   ar
    19    19    20   ar
    20     9    21   ar
    21    21    22   ar
    22    22    23   ar
    23    23    24    1
    24    24    25   ar
    25    25    26   ar
    26    26    27   ar
    27    27    28   ar
    28    28    29   ar
    29     5    30    1
    30    30    31    1
    31    31     2    1
    32    23     7   ar
    33    29    24   ar
    34    20    11   ar
    35    20    15   ar
    36     1    32    1
    37     2    33    1
    38     3    34    1
    39     3    35    1
    40     4    36    1
    41     4    37    1
    42     5    38    1
    43     6    39    1
    44    10    40    1
    45    12    41    1
    46    13    42    1
    47    14    43    1
    48    16    44    1
    49    17    45    1
    50    18    46    1
    51    19    47    1
    52    22    48    1
    53    25    49    1
    54    26    50    1
    55    27    51    1
    56    28    52    1
    57    30    53    1
    58    30    54    1
    59    31    55    1
    60    31    56    1
