@<TRIPOS>MOLECULE
*****
 38 40 0 0 0
SMALL
GASTEIGER

@<TRIPOS>ATOM
      1 O           5.1679    2.4844    0.0901 O.2     1  UNL1       -0.2451
      2 C           5.4661    1.3648   -0.3858 C.2     1  UNL1        0.3369
      3 O           6.6555    1.1833   -1.0309 O.3     1  UNL1       -0.4771
      4 C           4.5109    0.2441   -0.2382 C.ar    1  UNL1        0.0607
      5 C           4.7897   -1.0048   -0.7422 C.ar    1  UNL1       -0.0477
      6 C           3.9029   -2.0374   -0.6028 C.ar    1  UNL1       -0.0591
      7 C           2.7229   -1.8035    0.0530 C.ar    1  UNL1       -0.0353
      8 C           2.3947   -0.5701    0.5770 C.ar    1  UNL1        0.1063
      9 S           0.8767   -0.4143    1.3758 S.O2    1  UNL1        0.0612
     10 O           1.0622    0.5801    2.5145 O.2     1  UNL1       -0.1528
     11 O           0.5356   -1.7229    2.0270 O.2     1  UNL1       -0.1528
     12 N          -0.4136    0.0787    0.3791 N.3     1  UNL1       -0.1720
     13 C          -0.6789   -0.8375   -0.6623 C.3     1  UNL1        0.0248
     14 C          -2.0964   -1.2555   -0.8484 C.3     1  UNL1       -0.0128
     15 C          -3.1062   -0.2497   -0.5024 C.ar    1  UNL1       -0.0382
     16 C          -4.3210   -0.1732   -1.1583 C.ar    1  UNL1       -0.0167
     17 C          -5.2127    0.8121   -0.7592 C.ar    1  UNL1        0.1171
     18 O          -6.4407    0.9273   -1.3864 O.3     1  UNL1       -0.5068
     19 C          -4.8978    1.6915    0.2630 C.ar    1  UNL1       -0.0199
     20 C          -3.6766    1.6035    0.9118 C.ar    1  UNL1       -0.0536
     21 C          -2.7889    0.6209    0.5129 C.ar    1  UNL1       -0.0282
     22 C          -1.5006    0.5079    1.1772 C.3     1  UNL1        0.0458
     23 C           3.3089    0.4308    0.4147 C.ar    1  UNL1       -0.0214
     24 H           7.3019    1.9395   -1.2767 H       1  UNL1        0.2954
     25 H           5.7232   -1.1536   -1.2504 H       1  UNL1        0.0626
     26 H           4.1048   -3.0439   -0.9977 H       1  UNL1        0.0618
     27 H           2.0384   -2.6610    0.1447 H       1  UNL1        0.0637
     28 H          -0.3192   -0.4071   -1.6250 H       1  UNL1        0.0447
     29 H          -0.0789   -1.7576   -0.4987 H       1  UNL1        0.0447
     30 H          -2.2815   -1.5701   -1.9074 H       1  UNL1        0.0326
     31 H          -2.3352   -2.1764   -0.2431 H       1  UNL1        0.0326
     32 H          -4.5657   -0.8629   -1.9586 H       1  UNL1        0.0657
     33 H          -6.9683    1.7877   -1.3256 H       1  UNL1        0.2921
     34 H          -5.6222    2.4448    0.5426 H       1  UNL1        0.0654
     35 H          -3.4524    2.3056    1.7117 H       1  UNL1        0.0622
     36 H          -1.2400    1.4848    1.6342 H       1  UNL1        0.0493
     37 H          -1.6348   -0.1903    2.0557 H       1  UNL1        0.0493
     38 H           3.0690    1.4000    0.8176 H       1  UNL1        0.0645
@<TRIPOS>BOND
     1     1     2    2
     2     2     3    1
     3     2     4    1
     4     4     5   ar
     5     5     6   ar
     6     6     7   ar
     7     7     8   ar
     8     8     9    1
     9     9    10    2
    10     9    11    2
    11     9    12    1
    12    12    13    1
    13    13    14    1
    14    14    15    1
    15    15    16   ar
    16    16    17   ar
    17    17    18    1
    18    17    19   ar
    19    19    20   ar
    20    20    21   ar
    21    21    22    1
    22     8    23   ar
    23    23     4   ar
    24    22    12    1
    25    21    15   ar
    26     3    24    1
    27     5    25    1
    28     6    26    1
    29     7    27    1
    30    13    28    1
    31    13    29    1
    32    14    30    1
    33    14    31    1
    34    16    32    1
    35    18    33    1
    36    19    34    1
    37    20    35    1
    38    22    36    1
    39    22    37    1
    40    23    38    1
