@<TRIPOS>MOLECULE
*****
 53 55 0 0 0
SMALL
GASTEIGER

@<TRIPOS>ATOM
      1 C          -6.7855   -0.9585   -1.9906 C.3     1  UNL1       -0.0355
      2 C          -5.3082   -1.2823   -2.0250 C.3     1  UNL1        0.0889
      3 O          -5.1632   -2.5986   -2.5115 O.3     1  UNL1       -0.3884
      4 C          -4.7827   -1.1829   -0.6084 C.3     1  UNL1        0.1228
      5 C          -5.5684   -2.1309    0.2881 C.3     1  UNL1       -0.0253
      6 O          -3.4436   -1.5098   -0.4943 O.3     1  UNL1       -0.4865
      7 C          -2.3995   -0.7869   -0.0276 C.ar    1  UNL1        0.1224
      8 C          -1.1257   -1.3636   -0.0217 C.ar    1  UNL1       -0.0078
      9 C          -0.0129   -0.6947    0.4365 C.ar    1  UNL1        0.0408
     10 C           1.2928   -1.3346    0.4237 C.2     1  UNL1        0.2447
     11 O           1.3912   -2.5094   -0.0125 O.2     1  UNL1       -0.2702
     12 N           2.4808   -0.7246    0.8726 N.am    1  UNL1       -0.3047
     13 C           3.7757   -1.3866    0.8493 C.3     1  UNL1        0.0487
     14 C           4.3141   -1.5098    2.2796 C.3     1  UNL1       -0.0423
     15 C           4.7656   -0.6040    0.0610 C.ar    1  UNL1        0.0087
     16 C           4.8803    0.7688    0.2192 C.ar    1  UNL1        0.0363
     17 N           5.7829    1.4543   -0.5049 N.ar    1  UNL1       -0.2321
     18 C           6.6007    0.8687   -1.3960 C.ar    1  UNL1        0.2339
     19 C           7.5841    1.6659   -2.1754 C.3     1  UNL1        0.4522
     20 F           8.7073    0.9266   -2.4935 F       1  UNL1       -0.1632
     21 F           8.0194    2.7446   -1.4028 F       1  UNL1       -0.1632
     22 F           6.9656    2.1426   -3.3314 F       1  UNL1       -0.1632
     23 N           6.4809   -0.4752   -1.5439 N.ar    1  UNL1       -0.2321
     24 C           5.6064   -1.2004   -0.8540 C.ar    1  UNL1        0.0363
     25 C          -0.1809    0.6069    0.9092 C.ar    1  UNL1       -0.0397
     26 C          -1.4184    1.2004    0.9164 C.ar    1  UNL1        0.0113
     27 C          -1.6250    2.5662    1.4070 C.ar    1  UNL1        0.1097
     28 N          -2.5709    3.3439    1.5376 N.ar    1  UNL1       -0.2458
     29 C          -2.5311    4.5564    2.0133 C.ar    1  UNL1        0.0539
     30 C          -1.2900    5.0052    2.4096 C.ar    1  UNL1        0.0980
     31 CL         -0.7332    6.5240    3.0965 Cl      1  UNL1       -0.0742
     32 S          -0.2177    3.5543    2.0415 S.2     1  UNL1       -0.0557
     33 C          -2.4997    0.4948    0.4496 C.ar    1  UNL1       -0.0102
     34 H          -7.3980   -1.8018   -2.4034 H       1  UNL1        0.0256
     35 H          -7.0198   -0.0554   -2.6088 H       1  UNL1        0.0256
     36 H          -7.1460   -0.7194   -0.9701 H       1  UNL1        0.0256
     37 H          -4.8158   -0.5634   -2.6786 H       1  UNL1        0.0627
     38 H          -4.2827   -2.9504   -2.1847 H       1  UNL1        0.2099
     39 H          -4.9969   -0.1749   -0.2573 H       1  UNL1        0.0756
     40 H          -5.8827   -3.0161   -0.2951 H       1  UNL1        0.0266
     41 H          -6.4252   -1.6098    0.7680 H       1  UNL1        0.0266
     42 H          -4.9361   -2.4936    1.1454 H       1  UNL1        0.0266
     43 H          -0.9948   -2.3750   -0.3890 H       1  UNL1        0.0662
     44 H           2.4429    0.2414    1.2390 H       1  UNL1        0.1496
     45 H           3.7352   -2.4007    0.4503 H       1  UNL1        0.0546
     46 H           4.1334   -0.5785    2.8563 H       1  UNL1        0.0251
     47 H           3.7710   -2.3214    2.8257 H       1  UNL1        0.0251
     48 H           5.3991   -1.6963    2.2760 H       1  UNL1        0.0251
     49 H           4.2236    1.2495    0.9369 H       1  UNL1        0.0834
     50 H           5.5041   -2.2802   -0.9670 H       1  UNL1        0.0834
     51 H           0.6385    1.1751    1.2758 H       1  UNL1        0.0632
     52 H          -3.4479    5.2355    2.1110 H       1  UNL1        0.0850
     53 H          -3.4929    0.9645    0.4528 H       1  UNL1        0.0661
@<TRIPOS>BOND
     1     1     2    1
     2     2     3    1
     3     2     4    1
     4     4     5    1
     5     4     6    1
     6     6     7    1
     7     7     8   ar
     8     8     9   ar
     9     9    10    1
    10    10    11    2
    11    10    12   am
    12    12    13    1
    13    13    14    1
    14    13    15    1
    15    15    16   ar
    16    16    17   ar
    17    17    18   ar
    18    18    19    1
    19    19    20    1
    20    19    21    1
    21    19    22    1
    22    18    23   ar
    23    23    24   ar
    24     9    25   ar
    25    25    26   ar
    26    26    27    1
    27    27    28   ar
    28    28    29   ar
    29    29    30   ar
    30    30    31    1
    31    30    32   ar
    32    26    33   ar
    33    33     7   ar
    34    24    15   ar
    35    32    27   ar
    36     1    34    1
    37     1    35    1
    38     1    36    1
    39     2    37    1
    40     3    38    1
    41     4    39    1
    42     5    40    1
    43     5    41    1
    44     5    42    1
    45     8    43    1
    46    12    44    1
    47    13    45    1
    48    14    46    1
    49    14    47    1
    50    14    48    1
    51    16    49    1
    52    24    50    1
    53    25    51    1
    54    29    52    1
    55    33    53    1
