@<TRIPOS>MOLECULE
*****
 46 50 0 0 0
SMALL
GASTEIGER

@<TRIPOS>ATOM
      1 C           7.1689   -1.3201   -1.1636 C.3     1  UNL1        0.0789
      2 O           6.7078    0.0045   -0.9359 O.3     1  UNL1       -0.4935
      3 C           5.3259    0.2600   -0.9207 C.ar    1  UNL1        0.1402
      4 C           4.9450    1.5498   -0.6975 C.ar    1  UNL1        0.0701
      5 N           3.6056    1.8154   -0.6796 N.ar    1  UNL1       -0.2480
      6 C           2.7061    0.8430   -0.8744 C.ar    1  UNL1        0.1101
      7 C           1.3295    1.1208   -0.8552 C.ar    1  UNL1        0.0567
      8 N           0.9655    2.4693   -0.6561 N.pl3   1  UNL1       -0.3349
      9 C          -0.3721    2.9224   -0.5697 C.3     1  UNL1        0.0710
     10 C          -1.0039    2.8260    0.7636 C.ar    1  UNL1        0.1719
     11 N          -0.7957    3.7645    1.7431 N.ar    1  UNL1       -0.1306
     12 N          -1.5070    3.4177    2.7805 N.ar    1  UNL1       -0.1279
     13 C          -2.1835    2.2765    2.5225 C.ar    1  UNL1        0.1780
     14 C          -3.0607    1.5088    3.2572 C.ar    1  UNL1       -0.0136
     15 C          -3.6069    0.3733    2.6942 C.ar    1  UNL1       -0.0305
     16 C          -3.2726    0.0229    1.4167 C.ar    1  UNL1        0.0919
     17 C          -3.8076   -1.1734    0.7255 C.ar    1  UNL1        0.0021
     18 C          -4.6861   -2.0355    1.3182 C.ar    1  UNL1       -0.0525
     19 C          -5.1933   -3.1628    0.6698 C.ar    1  UNL1       -0.0611
     20 C          -4.7693   -3.3855   -0.6216 C.ar    1  UNL1       -0.0617
     21 C          -3.8829   -2.5414   -1.2600 C.ar    1  UNL1       -0.0611
     22 C          -3.4224   -1.4520   -0.5676 C.ar    1  UNL1       -0.0525
     23 N          -2.4169    0.8167    0.7715 N.ar    1  UNL1       -0.1633
     24 N          -1.8554    1.9161    1.2457 N.ar    1  UNL1       -0.1949
     25 C           0.4351    0.1108   -1.0577 C.ar    1  UNL1       -0.0206
     26 C           0.8453   -1.1979   -1.2832 C.ar    1  UNL1        0.0301
     27 N           2.1664   -1.4377   -1.2963 N.ar    1  UNL1       -0.2532
     28 C           3.0732   -0.4590   -1.1002 C.ar    1  UNL1        0.0944
     29 C           4.4180   -0.7479   -1.1221 C.ar    1  UNL1        0.0091
     30 H           8.2592   -1.2462   -1.3314 H       1  UNL1        0.0660
     31 H           6.6367   -1.7821   -2.0201 H       1  UNL1        0.0660
     32 H           7.0198   -1.8743   -0.2171 H       1  UNL1        0.0660
     33 H           5.6561    2.3672   -0.5347 H       1  UNL1        0.0867
     34 H           1.7150    3.2259   -0.5596 H       1  UNL1        0.1466
     35 H          -1.0440    2.3281   -1.2619 H       1  UNL1        0.0543
     36 H          -0.4589    3.9654   -0.9834 H       1  UNL1        0.0543
     37 H          -3.3074    1.8107    4.2669 H       1  UNL1        0.0656
     38 H          -4.3010   -0.2403    3.2660 H       1  UNL1        0.0641
     39 H          -5.0153   -1.8545    2.3334 H       1  UNL1        0.0624
     40 H          -5.8877   -3.8416    1.1422 H       1  UNL1        0.0618
     41 H          -5.1145   -4.2457   -1.2092 H       1  UNL1        0.0618
     42 H          -3.5561   -2.7232   -2.2712 H       1  UNL1        0.0618
     43 H          -2.7313   -0.7860   -1.0555 H       1  UNL1        0.0624
     44 H          -0.6060    0.3078   -1.0695 H       1  UNL1        0.0652
     45 H           0.1571   -2.0116   -1.4447 H       1  UNL1        0.0830
     46 H           4.7225   -1.7607   -1.2973 H       1  UNL1        0.0677
@<TRIPOS>BOND
     1     1     2    1
     2     2     3    1
     3     3     4   ar
     4     4     5   ar
     5     5     6   ar
     6     6     7   ar
     7     7     8    1
     8     8     9    1
     9     9    10    1
    10    10    11   ar
    11    11    12   ar
    12    12    13   ar
    13    13    14   ar
    14    14    15   ar
    15    15    16   ar
    16    16    17    1
    17    17    18   ar
    18    18    19   ar
    19    19    20   ar
    20    20    21   ar
    21    21    22   ar
    22    16    23   ar
    23    23    24   ar
    24     7    25   ar
    25    25    26   ar
    26    26    27   ar
    27    27    28   ar
    28    28    29   ar
    29    29     3   ar
    30    28     6   ar
    31    24    10   ar
    32    24    13   ar
    33    22    17   ar
    34     1    30    1
    35     1    31    1
    36     1    32    1
    37     4    33    1
    38     8    34    1
    39     9    35    1
    40     9    36    1
    41    14    37    1
    42    15    38    1
    43    18    39    1
    44    19    40    1
    45    20    41    1
    46    21    42    1
    47    22    43    1
    48    25    44    1
    49    26    45    1
    50    29    46    1
