@<TRIPOS>MOLECULE
*****
 77 81 0 0 0
SMALL
GASTEIGER

@<TRIPOS>ATOM
      1 C           7.9821    4.0449    1.8622 C.3     1  UNL1        0.0003
      2 N           7.1540    3.0131    1.2882 N.pl3   1  UNL1       -0.3164
      3 C           7.6639    2.1054    0.3244 C.ar    1  UNL1        0.2183
      4 N           8.9438    2.1640   -0.0940 N.ar    1  UNL1       -0.2030
      5 C           9.3990    1.2970   -1.0037 C.ar    1  UNL1        0.1219
      6 N           8.5801    0.3533   -1.5134 N.ar    1  UNL1       -0.2157
      7 C           7.2929    0.2628   -1.1200 C.ar    1  UNL1        0.1700
      8 C           6.4328   -0.7646   -1.6896 C.ar    1  UNL1        0.0811
      9 C           6.9296   -1.6377   -2.6234 C.ar    1  UNL1       -0.0445
     10 C           6.1553   -2.6316   -3.1998 C.ar    1  UNL1       -0.0427
     11 C           4.8415   -2.7404   -2.8165 C.ar    1  UNL1        0.0314
     12 N           4.3772   -1.8774   -1.9030 N.ar    1  UNL1       -0.2204
     13 C           5.0891   -0.9051   -1.3224 C.ar    1  UNL1        0.2312
     14 O           4.6280   -0.0278   -0.3972 O.3     1  UNL1       -0.4373
     15 C           3.3766    0.1019    0.1608 C.ar    1  UNL1        0.1313
     16 C           3.2496    1.1263    1.1145 C.ar    1  UNL1       -0.0165
     17 C           2.0424    1.3194    1.7126 C.ar    1  UNL1       -0.0222
     18 C           0.9414    0.5158    1.3890 C.ar    1  UNL1        0.1357
     19 F          -0.1979    0.7653    2.0463 F       1  UNL1       -0.2047
     20 C           1.0341   -0.4820    0.4699 C.ar    1  UNL1        0.0756
     21 C          -0.0849   -1.3499    0.0492 C.2     1  UNL1        0.2512
     22 O           0.2450   -2.4525   -0.5329 O.2     1  UNL1       -0.2698
     23 N          -1.4121   -0.9926    0.2674 N.am    1  UNL1       -0.2799
     24 C          -2.5079   -1.7794   -0.0995 C.ar    1  UNL1        0.0552
     25 C          -2.4715   -3.0774   -0.5363 C.ar    1  UNL1       -0.0352
     26 C          -3.6213   -3.8053   -0.8898 C.ar    1  UNL1       -0.0424
     27 C          -3.4707   -5.2073   -1.3513 C.3     1  UNL1       -0.0158
     28 C          -4.3539   -5.6274   -2.4803 C.3     1  UNL1       -0.0457
     29 C          -4.5582   -6.1839   -1.0917 C.3     1  UNL1       -0.0457
     30 C          -4.8198   -3.1658   -0.7837 C.ar    1  UNL1       -0.0564
     31 C          -4.9409   -1.8620   -0.3532 C.ar    1  UNL1       -0.0386
     32 C          -3.7786   -1.2167   -0.0276 C.ar    1  UNL1        0.0510
     33 N          -3.8830    0.1494    0.3721 N.pl3   1  UNL1       -0.3315
     34 C          -3.4516    1.1390   -0.5791 C.3     1  UNL1        0.0007
     35 C          -4.3736    0.5399    1.6575 C.3     1  UNL1        0.0131
     36 C          -5.6695    1.2468    1.7162 C.3     1  UNL1       -0.0244
     37 C          -5.7972    2.5479    1.0351 C.3     1  UNL1       -0.0003
     38 N          -4.8887    3.5683    1.5106 N.3     1  UNL1       -0.3083
     39 C          -5.1773    4.0032    2.8527 C.3     1  UNL1       -0.0130
     40 C          -4.9293    4.6579    0.5538 C.3     1  UNL1       -0.0130
     41 C           2.2891   -0.6582   -0.1295 C.ar    1  UNL1       -0.0044
     42 N           6.8722    1.1513   -0.2040 N.ar    1  UNL1       -0.1946
     43 H           7.3846    4.9486    2.0882 H       1  UNL1        0.0426
     44 H           8.7527    4.3267    1.1138 H       1  UNL1        0.0426
     45 H           8.4598    3.7393    2.8164 H       1  UNL1        0.0426
     46 H           6.1659    2.9400    1.5922 H       1  UNL1        0.1486
     47 H          10.4361    1.3908   -1.3029 H       1  UNL1        0.1049
     48 H           7.9741   -1.5554   -2.9319 H       1  UNL1        0.0627
     49 H           6.5461   -3.3166   -3.9325 H       1  UNL1        0.0633
     50 H           4.1647   -3.4869   -3.2158 H       1  UNL1        0.0831
     51 H           4.0990    1.7477    1.3666 H       1  UNL1        0.0655
     52 H           1.9454    2.1077    2.4464 H       1  UNL1        0.0647
     53 H          -1.5980   -0.0842    0.7365 H       1  UNL1        0.1552
     54 H          -1.5293   -3.6008   -0.6163 H       1  UNL1        0.0639
     55 H          -2.4341   -5.5984   -1.3875 H       1  UNL1        0.0349
     56 H          -5.1393   -4.9426   -2.8756 H       1  UNL1        0.0271
     57 H          -3.9096   -6.2896   -3.2678 H       1  UNL1        0.0271
     58 H          -4.2621   -7.2611   -0.9941 H       1  UNL1        0.0271
     59 H          -5.4675   -5.9398   -0.5430 H       1  UNL1        0.0271
     60 H          -5.7382   -3.7013   -1.0489 H       1  UNL1        0.0621
     61 H          -5.9077   -1.3612   -0.2720 H       1  UNL1        0.0637
     62 H          -2.5455    0.8462   -1.1634 H       1  UNL1        0.0428
     63 H          -3.2385    2.1273   -0.1835 H       1  UNL1        0.0428
     64 H          -4.2370    1.2592   -1.3780 H       1  UNL1        0.0428
     65 H          -4.3312   -0.3361    2.3514 H       1  UNL1        0.0464
     66 H          -3.5887    1.2533    2.0679 H       1  UNL1        0.0464
     67 H          -5.9244    1.4171    2.8073 H       1  UNL1        0.0293
     68 H          -6.5316    0.6120    1.3412 H       1  UNL1        0.0293
     69 H          -6.8646    2.9009    1.2186 H       1  UNL1        0.0427
     70 H          -5.7415    2.4485   -0.0597 H       1  UNL1        0.0427
     71 H          -6.1418    3.6516    3.2453 H       1  UNL1        0.0391
     72 H          -4.3192    3.7545    3.5424 H       1  UNL1        0.0391
     73 H          -5.1866    5.1324    2.8450 H       1  UNL1        0.0391
     74 H          -4.4342    5.5607    0.9567 H       1  UNL1        0.0391
     75 H          -5.9668    4.8439    0.2128 H       1  UNL1        0.0391
     76 H          -4.3897    4.2814   -0.3614 H       1  UNL1        0.0391
     77 H           2.3669   -1.4437   -0.8550 H       1  UNL1        0.0663
@<TRIPOS>BOND
     1     1     2    1
     2     2     3    1
     3     3     4   ar
     4     4     5   ar
     5     5     6   ar
     6     6     7   ar
     7     7     8    1
     8     8     9   ar
     9     9    10   ar
    10    10    11   ar
    11    11    12   ar
    12    12    13   ar
    13    13    14    1
    14    14    15    1
    15    15    16   ar
    16    16    17   ar
    17    17    18   ar
    18    18    19    1
    19    18    20   ar
    20    20    21    1
    21    21    22    2
    22    21    23   am
    23    23    24    1
    24    24    25   ar
    25    25    26   ar
    26    26    27    1
    27    27    28    1
    28    28    29    1
    29    26    30   ar
    30    30    31   ar
    31    31    32   ar
    32    32    33    1
    33    33    34    1
    34    33    35    1
    35    35    36    1
    36    36    37    1
    37    37    38    1
    38    38    39    1
    39    38    40    1
    40    20    41   ar
    41     7    42   ar
    42    42     3   ar
    43    13     8   ar
    44    41    15   ar
    45    32    24   ar
    46    29    27    1
    47     1    43    1
    48     1    44    1
    49     1    45    1
    50     2    46    1
    51     5    47    1
    52     9    48    1
    53    10    49    1
    54    11    50    1
    55    16    51    1
    56    17    52    1
    57    23    53    1
    58    25    54    1
    59    27    55    1
    60    28    56    1
    61    28    57    1
    62    29    58    1
    63    29    59    1
    64    30    60    1
    65    31    61    1
    66    34    62    1
    67    34    63    1
    68    34    64    1
    69    35    65    1
    70    35    66    1
    71    36    67    1
    72    36    68    1
    73    37    69    1
    74    37    70    1
    75    39    71    1
    76    39    72    1
    77    39    73    1
    78    40    74    1
    79    40    75    1
    80    40    76    1
    81    41    77    1
