
     RDKit          3D

 49 51  0  0  0  0  0  0  0  0999 V2000
    4.5502    0.2774    2.1677 C   0  0  0  0  0  0  0  0  0  0  0  0
    3.7345   -0.9735    2.1513 C   0  0  0  0  0  0  0  0  0  0  0  0
    2.5920   -0.8682    1.3555 O   0  0  0  0  0  0  0  0  0  0  0  0
    2.6472   -0.6384    0.0191 C   0  0  0  0  0  0  0  0  0  0  0  0
    3.8103   -0.4920   -0.6874 C   0  0  0  0  0  0  0  0  0  0  0  0
    3.8244   -0.2603   -2.0587 C   0  0  0  0  0  0  0  0  0  0  0  0
    2.6287   -0.1801   -2.7044 C   0  0  0  0  0  0  0  0  0  0  0  0
    1.4357   -0.3292   -1.9848 C   0  0  0  0  0  0  0  0  0  0  0  0
    1.4133   -0.5554   -0.6426 C   0  0  0  0  0  0  0  0  0  0  0  0
    0.1674   -0.7079    0.0968 C   0  0  0  0  0  0  0  0  0  0  0  0
   -1.0845   -0.1957   -0.5730 C   0  0  2  0  0  0  0  0  0  0  0  0
   -1.0654    1.2473   -0.8820 C   0  0  0  0  0  0  0  0  0  0  0  0
   -1.3801    1.7401   -2.1546 C   0  0  0  0  0  0  0  0  0  0  0  0
   -1.3699    3.0582   -2.4900 C   0  0  0  0  0  0  0  0  0  0  0  0
   -1.0332    4.0071   -1.5455 C   0  0  0  0  0  0  0  0  0  0  0  0
   -0.7161    3.5722   -0.2842 C   0  0  0  0  0  0  0  0  0  0  0  0
   -0.7329    2.2215    0.0341 C   0  0  0  0  0  0  0  0  0  0  0  0
   -2.2524   -0.6429    0.1191 N   0  0  0  0  0  0  0  0  0  0  0  0
   -2.4393   -0.3449    1.4632 C   0  0  0  0  0  0  0  0  0  0  0  0
   -3.8568   -0.7121    1.8911 C   0  0  0  0  0  0  0  0  0  0  0  0
   -4.1816   -2.0740    1.5937 N   0  0  0  0  0  0  0  0  0  0  0  0
   -3.1636   -2.7260    0.7882 C   0  0  0  0  0  0  0  0  0  0  0  0
   -2.8871   -1.7866   -0.3943 C   0  0  0  0  0  0  0  0  0  0  0  0
    4.1897    1.0355    1.4490 H   0  0  0  0  0  0  0  0  0  0  0  0
    4.5295    0.7094    3.1989 H   0  0  0  0  0  0  0  0  0  0  0  0
    5.6178    0.0559    1.9244 H   0  0  0  0  0  0  0  0  0  0  0  0
    4.3550   -1.8011    1.7224 H   0  0  0  0  0  0  0  0  0  0  0  0
    3.4358   -1.2259    3.2021 H   0  0  0  0  0  0  0  0  0  0  0  0
    4.7871   -0.5586   -0.2075 H   0  0  0  0  0  0  0  0  0  0  0  0
    4.7425   -0.1482   -2.5829 H   0  0  0  0  0  0  0  0  0  0  0  0
    2.6184    0.0008   -3.7715 H   0  0  0  0  0  0  0  0  0  0  0  0
    0.5502   -0.2594   -2.6011 H   0  0  0  0  0  0  0  0  0  0  0  0
   -0.0044   -1.7961    0.3054 H   0  0  0  0  0  0  0  0  0  0  0  0
    0.3078   -0.1691    1.0671 H   0  0  0  0  0  0  0  0  0  0  0  0
   -1.1201   -0.7285   -1.5731 H   0  0  0  0  0  0  0  0  0  0  0  0
   -1.6540    1.0195   -2.9325 H   0  0  0  0  0  0  0  0  0  0  0  0
   -1.6162    3.4169   -3.4772 H   0  0  0  0  0  0  0  0  0  0  0  0
   -1.0238    5.0693   -1.8158 H   0  0  0  0  0  0  0  0  0  0  0  0
   -0.4496    4.3337    0.4654 H   0  0  0  0  0  0  0  0  0  0  0  0
   -0.4544    1.9967    1.0560 H   0  0  0  0  0  0  0  0  0  0  0  0
   -2.2084    0.6654    1.8063 H   0  0  0  0  0  0  0  0  0  0  0  0
   -1.7756   -1.0206    2.0824 H   0  0  0  0  0  0  0  0  0  0  0  0
   -4.5549   -0.0485    1.3576 H   0  0  0  0  0  0  0  0  0  0  0  0
   -3.9849   -0.4883    2.9778 H   0  0  0  0  0  0  0  0  0  0  0  0
   -5.1252   -2.1951    1.1428 H   0  0  0  0  0  0  0  0  0  0  0  0
   -2.2314   -2.8699    1.3670 H   0  0  0  0  0  0  0  0  0  0  0  0
   -3.5157   -3.7074    0.4766 H   0  0  0  0  0  0  0  0  0  0  0  0
   -3.8651   -1.5719   -0.8741 H   0  0  0  0  0  0  0  0  0  0  0  0
   -2.1911   -2.3511   -1.0438 H   0  0  0  0  0  0  0  0  0  0  0  0
  1  2  1  0
  2  3  1  0
  3  4  1  0
  4  5  2  0
  5  6  1  0
  6  7  2  0
  7  8  1  0
  8  9  2  0
  9 10  1  0
 10 11  1  0
 11 12  1  0
 12 13  2  0
 13 14  1  0
 14 15  2  0
 15 16  1  0
 16 17  2  0
 11 18  1  0
 18 19  1  0
 19 20  1  0
 20 21  1  0
 21 22  1  0
 22 23  1  0
  9  4  1  0
 17 12  1  0
 23 18  1  0
  1 24  1  0
  1 25  1  0
  1 26  1  0
  2 27  1  0
  2 28  1  0
  5 29  1  0
  6 30  1  0
  7 31  1  0
  8 32  1  0
 10 33  1  0
 10 34  1  0
 11 35  1  6
 13 36  1  0
 14 37  1  0
 15 38  1  0
 16 39  1  0
 17 40  1  0
 19 41  1  0
 19 42  1  0
 20 43  1  0
 20 44  1  0
 21 45  1  0
 22 46  1  0
 22 47  1  0
 23 48  1  0
 23 49  1  0
M  END
$$$$
