@<TRIPOS>MOLECULE
*****
 49 51 0 0 0
SMALL
GASTEIGER

@<TRIPOS>ATOM
      1 C           4.5502    0.2774    2.1677 C.3     1  UNL1       -0.0307
      2 C           3.7345   -0.9735    2.1513 C.3     1  UNL1        0.0868
      3 O           2.5920   -0.8682    1.3555 O.3     1  UNL1       -0.4920
      4 C           2.6472   -0.6384    0.0191 C.ar    1  UNL1        0.1237
      5 C           3.8103   -0.4920   -0.6874 C.ar    1  UNL1       -0.0197
      6 C           3.8244   -0.2603   -2.0587 C.ar    1  UNL1       -0.0583
      7 C           2.6287   -0.1801   -2.7044 C.ar    1  UNL1       -0.0613
      8 C           1.4357   -0.3292   -1.9848 C.ar    1  UNL1       -0.0550
      9 C           1.4133   -0.5554   -0.6426 C.ar    1  UNL1       -0.0039
     10 C           0.1674   -0.7079    0.0968 C.3     1  UNL1       -0.0044
     11 C          -1.0845   -0.1957   -0.5730 C.3     1  UNL1        0.0398
     12 C          -1.0654    1.2473   -0.8820 C.ar    1  UNL1       -0.0300
     13 C          -1.3801    1.7401   -2.1546 C.ar    1  UNL1       -0.0571
     14 C          -1.3699    3.0582   -2.4900 C.ar    1  UNL1       -0.0615
     15 C          -1.0332    4.0071   -1.5455 C.ar    1  UNL1       -0.0617
     16 C          -0.7161    3.5722   -0.2842 C.ar    1  UNL1       -0.0615
     17 C          -0.7329    2.2215    0.0341 C.ar    1  UNL1       -0.0571
     18 N          -2.2524   -0.6429    0.1191 N.3     1  UNL1       -0.2927
     19 C          -2.4393   -0.3449    1.4632 C.3     1  UNL1        0.0121
     20 C          -3.8568   -0.7121    1.8911 C.3     1  UNL1        0.0087
     21 N          -4.1816   -2.0740    1.5937 N.3     1  UNL1       -0.3136
     22 C          -3.1636   -2.7260    0.7882 C.3     1  UNL1        0.0087
     23 C          -2.8871   -1.7866   -0.3943 C.3     1  UNL1        0.0121
     24 H           4.1897    1.0355    1.4490 H       1  UNL1        0.0262
     25 H           4.5295    0.7094    3.1989 H       1  UNL1        0.0262
     26 H           5.6178    0.0559    1.9244 H       1  UNL1        0.0262
     27 H           4.3550   -1.8011    1.7224 H       1  UNL1        0.0694
     28 H           3.4358   -1.2259    3.2021 H       1  UNL1        0.0694
     29 H           4.7871   -0.5586   -0.2075 H       1  UNL1        0.0654
     30 H           4.7425   -0.1482   -2.5829 H       1  UNL1        0.0619
     31 H           2.6184    0.0008   -3.7715 H       1  UNL1        0.0618
     32 H           0.5502   -0.2594   -2.6011 H       1  UNL1        0.0621
     33 H          -0.0044   -1.7961    0.3054 H       1  UNL1        0.0333
     34 H           0.3078   -0.1691    1.0671 H       1  UNL1        0.0333
     35 H          -1.1201   -0.7285   -1.5731 H       1  UNL1        0.0515
     36 H          -1.6540    1.0195   -2.9325 H       1  UNL1        0.0621
     37 H          -1.6162    3.4169   -3.4772 H       1  UNL1        0.0618
     38 H          -1.0238    5.0693   -1.8158 H       1  UNL1        0.0618
     39 H          -0.4496    4.3337    0.4654 H       1  UNL1        0.0618
     40 H          -0.4544    1.9967    1.0560 H       1  UNL1        0.0621
     41 H          -2.2084    0.6654    1.8063 H       1  UNL1        0.0439
     42 H          -1.7756   -1.0206    2.0824 H       1  UNL1        0.0439
     43 H          -4.5549   -0.0485    1.3576 H       1  UNL1        0.0437
     44 H          -3.9849   -0.4883    2.9778 H       1  UNL1        0.0437
     45 H          -5.1252   -2.1951    1.1428 H       1  UNL1        0.1220
     46 H          -2.2314   -2.8699    1.3670 H       1  UNL1        0.0437
     47 H          -3.5157   -3.7074    0.4766 H       1  UNL1        0.0437
     48 H          -3.8651   -1.5719   -0.8741 H       1  UNL1        0.0439
     49 H          -2.1911   -2.3511   -1.0438 H       1  UNL1        0.0439
@<TRIPOS>BOND
     1     1     2    1
     2     2     3    1
     3     3     4    1
     4     4     5   ar
     5     5     6   ar
     6     6     7   ar
     7     7     8   ar
     8     8     9   ar
     9     9    10    1
    10    10    11    1
    11    11    12    1
    12    12    13   ar
    13    13    14   ar
    14    14    15   ar
    15    15    16   ar
    16    16    17   ar
    17    11    18    1
    18    18    19    1
    19    19    20    1
    20    20    21    1
    21    21    22    1
    22    22    23    1
    23     9     4   ar
    24    17    12   ar
    25    23    18    1
    26     1    24    1
    27     1    25    1
    28     1    26    1
    29     2    27    1
    30     2    28    1
    31     5    29    1
    32     6    30    1
    33     7    31    1
    34     8    32    1
    35    10    33    1
    36    10    34    1
    37    11    35    1
    38    13    36    1
    39    14    37    1
    40    15    38    1
    41    16    39    1
    42    17    40    1
    43    19    41    1
    44    19    42    1
    45    20    43    1
    46    20    44    1
    47    21    45    1
    48    22    46    1
    49    22    47    1
    50    23    48    1
    51    23    49    1
