@<TRIPOS>MOLECULE
*****
 46 50 0 0 0
SMALL
GASTEIGER

@<TRIPOS>ATOM
      1 O           4.6362   -0.5945    2.0304 O.2     1  UNL1       -0.2702
      2 C           4.2076   -0.3861    0.8559 C.2     1  UNL1        0.2443
      3 N           4.9421    0.5770    0.0873 N.am    1  UNL1       -0.3085
      4 C           6.0897    1.2265    0.6974 C.3     1  UNL1        0.0235
      5 C           6.7001    2.3651   -0.0188 C.3     1  UNL1       -0.0328
      6 C           7.3760    0.9978   -0.0632 C.3     1  UNL1       -0.0328
      7 C           3.0461   -1.1046    0.3655 C.ar    1  UNL1        0.0385
      8 C           2.6283   -2.2478    1.0632 C.ar    1  UNL1       -0.0481
      9 C           1.5353   -2.9602    0.6453 C.ar    1  UNL1       -0.0409
     10 C           0.7942   -2.6142   -0.4518 C.ar    1  UNL1        0.0621
     11 CL         -0.6126   -3.5245   -0.9876 Cl      1  UNL1       -0.0816
     12 C           1.2123   -1.4696   -1.1482 C.ar    1  UNL1        0.0517
     13 N           0.3981   -1.1171   -2.2687 N.pl3   1  UNL1       -0.2963
     14 C          -1.0164   -0.9406   -2.1500 C.ar    1  UNL1        0.1562
     15 N          -1.8359   -1.5214   -3.0694 N.ar    1  UNL1       -0.1333
     16 N          -3.1392   -1.4180   -2.9781 N.ar    1  UNL1       -0.1537
     17 C          -3.7493   -0.7507   -2.0002 C.ar    1  UNL1        0.0761
     18 C          -2.9662   -0.1386   -1.0362 C.ar    1  UNL1        0.0979
     19 C          -1.6016   -0.2442   -1.1281 C.ar    1  UNL1        0.0634
     20 C          -1.0818    0.4566   -0.0544 C.ar    1  UNL1        0.0609
     21 N          -2.1331    0.9548    0.6394 N.ar    1  UNL1       -0.1733
     22 N          -3.2703    0.6007    0.0545 N.ar    1  UNL1       -0.2249
     23 C          -4.6091    0.8779    0.4285 C.ar    1  UNL1        0.1362
     24 C          -5.0857    0.3901    1.6362 C.ar    1  UNL1        0.1515
     25 F          -4.2687   -0.3275    2.4211 F       1  UNL1       -0.2032
     26 C          -6.3993    0.6317    2.0629 C.ar    1  UNL1       -0.0242
     27 C          -7.2564    1.3760    1.2637 C.ar    1  UNL1       -0.0562
     28 C          -6.7805    1.8583    0.0661 C.ar    1  UNL1       -0.0242
     29 C          -5.4697    1.6140   -0.3497 C.ar    1  UNL1        0.1515
     30 F          -5.0236    2.1046   -1.5446 F       1  UNL1       -0.2032
     31 C           2.3060   -0.7518   -0.7360 C.ar    1  UNL1       -0.0270
     32 H           4.6562    0.7944   -0.8777 H       1  UNL1        0.1493
     33 H           6.1635    1.1706    1.8028 H       1  UNL1        0.0498
     34 H           6.2849    2.7459   -0.9807 H       1  UNL1        0.0284
     35 H           7.2573    3.1706    0.5382 H       1  UNL1        0.0284
     36 H           8.2644    0.8417    0.5735 H       1  UNL1        0.0284
     37 H           7.3249    0.4471   -1.0140 H       1  UNL1        0.0284
     38 H           3.1960   -2.5552    1.9505 H       1  UNL1        0.0625
     39 H           1.1918   -3.8612    1.1819 H       1  UNL1        0.0633
     40 H           0.8214   -0.9744   -3.2012 H       1  UNL1        0.1537
     41 H          -4.8260   -0.6666   -1.9171 H       1  UNL1        0.0870
     42 H          -0.0416    0.5752    0.1659 H       1  UNL1        0.0855
     43 H          -6.7847    0.2579    2.9988 H       1  UNL1        0.0647
     44 H          -8.2664    1.5617    1.5833 H       1  UNL1        0.0619
     45 H          -7.4232    2.4306   -0.5608 H       1  UNL1        0.0647
     46 H           2.6091    0.1420   -1.3050 H       1  UNL1        0.0644
@<TRIPOS>BOND
     1     1     2    2
     2     2     3   am
     3     3     4    1
     4     4     5    1
     5     5     6    1
     6     2     7    1
     7     7     8   ar
     8     8     9   ar
     9     9    10   ar
    10    10    11    1
    11    10    12   ar
    12    12    13    1
    13    13    14    1
    14    14    15   ar
    15    15    16   ar
    16    16    17   ar
    17    17    18   ar
    18    18    19   ar
    19    19    20   ar
    20    20    21   ar
    21    21    22   ar
    22    22    23    1
    23    23    24   ar
    24    24    25    1
    25    24    26   ar
    26    26    27   ar
    27    27    28   ar
    28    28    29   ar
    29    29    30    1
    30    12    31   ar
    31     6     4    1
    32    31     7   ar
    33    19    14   ar
    34    29    23   ar
    35    22    18   ar
    36     3    32    1
    37     4    33    1
    38     5    34    1
    39     5    35    1
    40     6    36    1
    41     6    37    1
    42     8    38    1
    43     9    39    1
    44    13    40    1
    45    17    41    1
    46    20    42    1
    47    26    43    1
    48    27    44    1
    49    28    45    1
    50    31    46    1
