
     RDKit          3D

 46 50  0  0  0  0  0  0  0  0999 V2000
    4.6362   -0.5945    2.0304 O   0  0  0  0  0  0  0  0  0  0  0  0
    4.2076   -0.3861    0.8559 C   0  0  0  0  0  0  0  0  0  0  0  0
    4.9421    0.5770    0.0873 N   0  0  0  0  0  0  0  0  0  0  0  0
    6.0897    1.2265    0.6974 C   0  0  0  0  0  0  0  0  0  0  0  0
    6.7001    2.3651   -0.0188 C   0  0  0  0  0  0  0  0  0  0  0  0
    7.3760    0.9978   -0.0632 C   0  0  0  0  0  0  0  0  0  0  0  0
    3.0461   -1.1046    0.3655 C   0  0  0  0  0  0  0  0  0  0  0  0
    2.6283   -2.2478    1.0632 C   0  0  0  0  0  0  0  0  0  0  0  0
    1.5353   -2.9602    0.6453 C   0  0  0  0  0  0  0  0  0  0  0  0
    0.7942   -2.6142   -0.4518 C   0  0  0  0  0  0  0  0  0  0  0  0
   -0.6126   -3.5245   -0.9876 Cl  0  0  0  0  0  0  0  0  0  0  0  0
    1.2123   -1.4696   -1.1482 C   0  0  0  0  0  0  0  0  0  0  0  0
    0.3981   -1.1171   -2.2687 N   0  0  0  0  0  0  0  0  0  0  0  0
   -1.0164   -0.9406   -2.1500 C   0  0  0  0  0  0  0  0  0  0  0  0
   -1.8359   -1.5214   -3.0694 N   0  0  0  0  0  0  0  0  0  0  0  0
   -3.1392   -1.4180   -2.9781 N   0  0  0  0  0  0  0  0  0  0  0  0
   -3.7493   -0.7507   -2.0002 C   0  0  0  0  0  0  0  0  0  0  0  0
   -2.9662   -0.1386   -1.0362 C   0  0  0  0  0  0  0  0  0  0  0  0
   -1.6016   -0.2442   -1.1281 C   0  0  0  0  0  0  0  0  0  0  0  0
   -1.0818    0.4566   -0.0544 C   0  0  0  0  0  0  0  0  0  0  0  0
   -2.1331    0.9548    0.6394 N   0  0  0  0  0  0  0  0  0  0  0  0
   -3.2703    0.6007    0.0545 N   0  0  0  0  0  0  0  0  0  0  0  0
   -4.6091    0.8779    0.4285 C   0  0  0  0  0  0  0  0  0  0  0  0
   -5.0857    0.3901    1.6362 C   0  0  0  0  0  0  0  0  0  0  0  0
   -4.2687   -0.3275    2.4211 F   0  0  0  0  0  0  0  0  0  0  0  0
   -6.3993    0.6317    2.0629 C   0  0  0  0  0  0  0  0  0  0  0  0
   -7.2564    1.3760    1.2637 C   0  0  0  0  0  0  0  0  0  0  0  0
   -6.7805    1.8583    0.0661 C   0  0  0  0  0  0  0  0  0  0  0  0
   -5.4697    1.6140   -0.3497 C   0  0  0  0  0  0  0  0  0  0  0  0
   -5.0236    2.1046   -1.5446 F   0  0  0  0  0  0  0  0  0  0  0  0
    2.3060   -0.7518   -0.7360 C   0  0  0  0  0  0  0  0  0  0  0  0
    4.6562    0.7944   -0.8777 H   0  0  0  0  0  0  0  0  0  0  0  0
    6.1635    1.1706    1.8028 H   0  0  0  0  0  0  0  0  0  0  0  0
    6.2849    2.7459   -0.9807 H   0  0  0  0  0  0  0  0  0  0  0  0
    7.2573    3.1706    0.5382 H   0  0  0  0  0  0  0  0  0  0  0  0
    8.2644    0.8417    0.5735 H   0  0  0  0  0  0  0  0  0  0  0  0
    7.3249    0.4471   -1.0140 H   0  0  0  0  0  0  0  0  0  0  0  0
    3.1960   -2.5552    1.9505 H   0  0  0  0  0  0  0  0  0  0  0  0
    1.1918   -3.8612    1.1819 H   0  0  0  0  0  0  0  0  0  0  0  0
    0.8214   -0.9744   -3.2012 H   0  0  0  0  0  0  0  0  0  0  0  0
   -4.8260   -0.6666   -1.9171 H   0  0  0  0  0  0  0  0  0  0  0  0
   -0.0416    0.5752    0.1659 H   0  0  0  0  0  0  0  0  0  0  0  0
   -6.7847    0.2579    2.9988 H   0  0  0  0  0  0  0  0  0  0  0  0
   -8.2664    1.5617    1.5833 H   0  0  0  0  0  0  0  0  0  0  0  0
   -7.4232    2.4306   -0.5608 H   0  0  0  0  0  0  0  0  0  0  0  0
    2.6091    0.1420   -1.3050 H   0  0  0  0  0  0  0  0  0  0  0  0
  1  2  2  0
  2  3  1  0
  3  4  1  0
  4  5  1  0
  5  6  1  0
  2  7  1  0
  7  8  2  0
  8  9  1  0
  9 10  2  0
 10 11  1  0
 10 12  1  0
 12 13  1  0
 13 14  1  0
 14 15  2  0
 15 16  1  0
 16 17  2  0
 17 18  1  0
 18 19  2  0
 19 20  1  0
 20 21  2  0
 21 22  1  0
 22 23  1  0
 23 24  2  0
 24 25  1  0
 24 26  1  0
 26 27  2  0
 27 28  1  0
 28 29  2  0
 29 30  1  0
 12 31  2  0
  6  4  1  0
 31  7  1  0
 19 14  1  0
 29 23  1  0
 22 18  1  0
  3 32  1  0
  4 33  1  0
  5 34  1  0
  5 35  1  0
  6 36  1  0
  6 37  1  0
  8 38  1  0
  9 39  1  0
 13 40  1  0
 17 41  1  0
 20 42  1  0
 26 43  1  0
 27 44  1  0
 28 45  1  0
 31 46  1  0
M  END
$$$$
