
     RDKit          3D

 56 59  0  0  0  0  0  0  0  0999 V2000
    0.7207   -3.9679    1.8967 C   0  0  0  0  0  0  0  0  0  0  0  0
   -0.0366   -3.4569    0.6685 C   0  0  0  0  0  0  0  0  0  0  0  0
   -0.2478   -4.2575   -0.2499 O   0  0  0  0  0  0  0  0  0  0  0  0
   -0.4249   -2.1598    0.6699 N   0  0  0  0  0  0  0  0  0  0  0  0
   -1.1091   -1.2167   -0.1273 C   0  0  0  0  0  0  0  0  0  0  0  0
   -0.3637   -0.6395   -1.1719 C   0  0  0  0  0  0  0  0  0  0  0  0
   -0.7854    0.4237   -1.9247 C   0  0  0  0  0  0  0  0  0  0  0  0
    0.0412    1.1788   -2.7539 N   0  0  0  0  0  0  0  0  0  0  0  0
    1.1848    1.9010   -2.3100 C   0  0  0  0  0  0  0  0  0  0  0  0
    1.7612    1.4954   -1.1381 C   0  0  0  0  0  0  0  0  0  0  0  0
    2.7218    2.2784   -0.4835 C   0  0  0  0  0  0  0  0  0  0  0  0
    3.5316    1.7651    0.5409 N   0  0  0  0  0  0  0  0  0  0  0  0
    3.8634    0.4160    0.8729 C   0  0  0  0  0  0  0  0  0  0  0  0
    2.8579   -0.6655    1.2229 C   0  0  0  0  0  0  0  0  0  0  0  0
    3.6286   -0.7404   -0.0358 C   0  0  0  0  0  0  0  0  0  0  0  0
    3.0514    3.4576   -1.0573 N   0  0  0  0  0  0  0  0  0  0  0  0
    3.8700    4.4652   -0.7218 N   0  0  0  0  0  0  0  0  0  0  0  0
    3.8575    5.4213   -1.6533 C   0  0  0  0  0  0  0  0  0  0  0  0
    2.9536    5.0256   -2.6915 C   0  0  0  0  0  0  0  0  0  0  0  0
    2.7844    5.7288   -3.8548 C   0  0  0  0  0  0  0  0  0  0  0  0
    2.6414    6.3629   -4.9269 N   0  0  0  0  0  0  0  0  0  0  0  0
    2.4854    3.8316   -2.2300 C   0  0  0  0  0  0  0  0  0  0  0  0
    1.5690    3.0619   -2.8410 N   0  0  0  0  0  0  0  0  0  0  0  0
   -2.0816    0.9517   -1.6302 C   0  0  0  0  0  0  0  0  0  0  0  0
   -2.7711    0.3593   -0.6233 C   0  0  0  0  0  0  0  0  0  0  0  0
   -2.3785   -0.6861    0.1614 C   0  0  0  0  0  0  0  0  0  0  0  0
   -3.1252   -1.0340    1.3025 N   0  0  0  0  0  0  0  0  0  0  0  0
   -4.0637    0.0100    1.8028 C   0  0  0  0  0  0  0  0  0  0  0  0
   -3.1456   -2.2258    2.0883 C   0  0  0  0  0  0  0  0  0  0  0  0
   -4.5472   -2.8551    1.9403 C   0  0  0  0  0  0  0  0  0  0  0  0
   -4.7004   -3.2146    0.5556 N   0  0  0  0  0  0  0  0  0  0  0  0
    1.6431   -3.3959    1.9596 H   0  0  0  0  0  0  0  0  0  0  0  0
    0.0965   -3.5610    2.7636 H   0  0  0  0  0  0  0  0  0  0  0  0
    0.7655   -5.0365    1.9325 H   0  0  0  0  0  0  0  0  0  0  0  0
   -0.1053   -1.6220    1.6406 H   0  0  0  0  0  0  0  0  0  0  0  0
    0.5704   -1.1525   -1.4805 H   0  0  0  0  0  0  0  0  0  0  0  0
   -0.1953    1.2873   -3.8086 H   0  0  0  0  0  0  0  0  0  0  0  0
    1.4517    0.6154   -0.6173 H   0  0  0  0  0  0  0  0  0  0  0  0
    3.9390    2.4841    1.2083 H   0  0  0  0  0  0  0  0  0  0  0  0
    4.8563    0.3091    1.4715 H   0  0  0  0  0  0  0  0  0  0  0  0
    3.1208   -1.3337    2.0966 H   0  0  0  0  0  0  0  0  0  0  0  0
    1.7864   -0.4673    1.2043 H   0  0  0  0  0  0  0  0  0  0  0  0
    3.1405   -0.6396   -0.9902 H   0  0  0  0  0  0  0  0  0  0  0  0
    4.4260   -1.5466   -0.0298 H   0  0  0  0  0  0  0  0  0  0  0  0
    4.4456    6.3469   -1.6431 H   0  0  0  0  0  0  0  0  0  0  0  0
   -2.4208    1.7961   -2.1787 H   0  0  0  0  0  0  0  0  0  0  0  0
   -3.7835    0.7389   -0.4855 H   0  0  0  0  0  0  0  0  0  0  0  0
   -5.0392   -0.2156    1.3511 H   0  0  0  0  0  0  0  0  0  0  0  0
   -4.1090   -0.0269    2.9155 H   0  0  0  0  0  0  0  0  0  0  0  0
   -3.7137    0.9725    1.4403 H   0  0  0  0  0  0  0  0  0  0  0  0
   -3.1256   -1.9202    3.1766 H   0  0  0  0  0  0  0  0  0  0  0  0
   -2.4333   -2.9941    1.8787 H   0  0  0  0  0  0  0  0  0  0  0  0
   -4.6199   -3.7268    2.5638 H   0  0  0  0  0  0  0  0  0  0  0  0
   -5.3129   -2.0735    2.2207 H   0  0  0  0  0  0  0  0  0  0  0  0
   -3.7839   -3.2995    0.0670 H   0  0  0  0  0  0  0  0  0  0  0  0
   -5.3424   -2.5529    0.0456 H   0  0  0  0  0  0  0  0  0  0  0  0
  1  2  1  0
  2  3  2  0
  2  4  1  0
  4  5  1  0
  5  6  2  0
  6  7  1  0
  7  8  1  0
  8  9  1  0
  9 10  1  0
 10 11  2  0
 11 12  1  0
 12 13  1  0
 13 14  1  0
 14 15  1  0
 11 16  1  0
 16 17  1  0
 17 18  2  0
 18 19  1  0
 19 20  1  0
 20 21  3  0
 19 22  2  0
 22 23  1  0
  7 24  2  0
 24 25  1  0
 25 26  2  0
 26 27  1  0
 27 28  1  0
 27 29  1  0
 29 30  1  0
 30 31  1  0
 26  5  1  0
 23  9  2  0
 15 13  1  0
 22 16  1  0
  1 32  1  0
  1 33  1  0
  1 34  1  0
  4 35  1  0
  6 36  1  0
  8 37  1  0
 10 38  1  0
 12 39  1  0
 13 40  1  0
 14 41  1  0
 14 42  1  0
 15 43  1  0
 15 44  1  0
 18 45  1  0
 24 46  1  0
 25 47  1  0
 28 48  1  0
 28 49  1  0
 28 50  1  0
 29 51  1  0
 29 52  1  0
 30 53  1  0
 30 54  1  0
 31 55  1  0
 31 56  1  0
M  END
$$$$
