@<TRIPOS>MOLECULE
*****
 56 59 0 0 0
SMALL
GASTEIGER

@<TRIPOS>ATOM
      1 C           0.7207   -3.9679    1.8967 C.3     1  UNL1        0.0125
      2 C          -0.0366   -3.4569    0.6685 C.2     1  UNL1        0.2141
      3 O          -0.2478   -4.2575   -0.2499 O.2     1  UNL1       -0.2758
      4 N          -0.4249   -2.1598    0.6699 N.am    1  UNL1       -0.2842
      5 C          -1.1091   -1.2167   -0.1273 C.ar    1  UNL1        0.0564
      6 C          -0.3637   -0.6395   -1.1719 C.ar    1  UNL1       -0.0174
      7 C          -0.7854    0.4237   -1.9247 C.ar    1  UNL1        0.0343
      8 N           0.0412    1.1788   -2.7539 N.pl3   1  UNL1       -0.2992
      9 C           1.1848    1.9010   -2.3100 C.ar    1  UNL1        0.1286
     10 C           1.7612    1.4954   -1.1381 C.ar    1  UNL1        0.0183
     11 C           2.7218    2.2784   -0.4835 C.ar    1  UNL1        0.1260
     12 N           3.5316    1.7651    0.5409 N.pl3   1  UNL1       -0.3260
     13 C           3.8634    0.4160    0.8729 C.3     1  UNL1        0.0221
     14 C           2.8579   -0.6655    1.2229 C.3     1  UNL1       -0.0329
     15 C           3.6286   -0.7404   -0.0358 C.3     1  UNL1       -0.0329
     16 N           3.0514    3.4576   -1.0573 N.ar    1  UNL1       -0.1992
     17 N           3.8700    4.4652   -0.7218 N.ar    1  UNL1       -0.1704
     18 C           3.8575    5.4213   -1.6533 C.ar    1  UNL1        0.0694
     19 C           2.9536    5.0256   -2.6915 C.ar    1  UNL1        0.1156
     20 C           2.7844    5.7288   -3.8548 C.1     1  UNL1        0.1045
     21 N           2.6414    6.3629   -4.9269 N.1     1  UNL1       -0.1907
     22 C           2.4854    3.8316   -2.2300 C.ar    1  UNL1        0.1768
     23 N           1.5690    3.0619   -2.8410 N.ar    1  UNL1       -0.2115
     24 C          -2.0816    0.9517   -1.6302 C.ar    1  UNL1       -0.0386
     25 C          -2.7711    0.3593   -0.6233 C.ar    1  UNL1       -0.0371
     26 C          -2.3785   -0.6861    0.1614 C.ar    1  UNL1        0.0511
     27 N          -3.1252   -1.0340    1.3025 N.pl3   1  UNL1       -0.3303
     28 C          -4.0637    0.0100    1.8028 C.3     1  UNL1        0.0008
     29 C          -3.1456   -2.2258    2.0883 C.3     1  UNL1        0.0242
     30 C          -4.5472   -2.8551    1.9403 C.3     1  UNL1        0.0088
     31 N          -4.7004   -3.2146    0.5556 N.3     1  UNL1       -0.3285
     32 H           1.6431   -3.3959    1.9596 H       1  UNL1        0.0323
     33 H           0.0965   -3.5610    2.7636 H       1  UNL1        0.0323
     34 H           0.7655   -5.0365    1.9325 H       1  UNL1        0.0323
     35 H          -0.1053   -1.6220    1.6406 H       1  UNL1        0.1548
     36 H           0.5704   -1.1525   -1.4805 H       1  UNL1        0.0655
     37 H          -0.1953    1.2873   -3.8086 H       1  UNL1        0.1536
     38 H           1.4517    0.6154   -0.6173 H       1  UNL1        0.0686
     39 H           3.9390    2.4841    1.2083 H       1  UNL1        0.1477
     40 H           4.8563    0.3091    1.4715 H       1  UNL1        0.0498
     41 H           3.1208   -1.3337    2.0966 H       1  UNL1        0.0284
     42 H           1.7864   -0.4673    1.2043 H       1  UNL1        0.0284
     43 H           3.1405   -0.6396   -0.9902 H       1  UNL1        0.0284
     44 H           4.4260   -1.5466   -0.0298 H       1  UNL1        0.0284
     45 H           4.4456    6.3469   -1.6431 H       1  UNL1        0.0862
     46 H          -2.4208    1.7961   -2.1787 H       1  UNL1        0.0637
     47 H          -3.7835    0.7389   -0.4855 H       1  UNL1        0.0637
     48 H          -5.0392   -0.2156    1.3511 H       1  UNL1        0.0428
     49 H          -4.1090   -0.0269    2.9155 H       1  UNL1        0.0428
     50 H          -3.7137    0.9725    1.4403 H       1  UNL1        0.0428
     51 H          -3.1256   -1.9202    3.1766 H       1  UNL1        0.0476
     52 H          -2.4333   -2.9941    1.8787 H       1  UNL1        0.0476
     53 H          -4.6199   -3.7268    2.5638 H       1  UNL1        0.0437
     54 H          -5.3129   -2.0735    2.2207 H       1  UNL1        0.0437
     55 H          -3.7839   -3.2995    0.0670 H       1  UNL1        0.1183
     56 H          -5.3424   -2.5529    0.0456 H       1  UNL1        0.1183
@<TRIPOS>BOND
     1     1     2    1
     2     2     3    2
     3     2     4   am
     4     4     5    1
     5     5     6   ar
     6     6     7   ar
     7     7     8    1
     8     8     9    1
     9     9    10   ar
    10    10    11   ar
    11    11    12    1
    12    12    13    1
    13    13    14    1
    14    14    15    1
    15    11    16   ar
    16    16    17   ar
    17    17    18   ar
    18    18    19   ar
    19    19    20    1
    20    20    21    3
    21    19    22   ar
    22    22    23   ar
    23     7    24   ar
    24    24    25   ar
    25    25    26   ar
    26    26    27    1
    27    27    28    1
    28    27    29    1
    29    29    30    1
    30    30    31    1
    31    26     5   ar
    32    23     9   ar
    33    15    13    1
    34    22    16   ar
    35     1    32    1
    36     1    33    1
    37     1    34    1
    38     4    35    1
    39     6    36    1
    40     8    37    1
    41    10    38    1
    42    12    39    1
    43    13    40    1
    44    14    41    1
    45    14    42    1
    46    15    43    1
    47    15    44    1
    48    18    45    1
    49    24    46    1
    50    25    47    1
    51    28    48    1
    52    28    49    1
    53    28    50    1
    54    29    51    1
    55    29    52    1
    56    30    53    1
    57    30    54    1
    58    31    55    1
    59    31    56    1
