
     RDKit          3D

 43 44  0  0  0  0  0  0  0  0999 V2000
   -1.2535    2.0910    1.1788 O   0  0  0  0  0  0  0  0  0  0  0  0
   -1.1231    1.0426    0.4609 C   0  0  0  0  0  0  0  0  0  0  0  0
    0.2492    0.7863    0.1574 N   0  0  0  0  0  0  0  0  0  0  0  0
    1.1682    1.7562    0.7222 C   0  0  0  0  0  0  0  0  0  0  0  0
    2.6019    1.4465    0.3768 C   0  0  0  0  0  0  0  0  0  0  0  0
    2.9328    0.0782    0.9303 C   0  0  0  0  0  0  0  0  0  0  0  0
    4.3582   -0.2908    0.6169 C   0  0  0  0  0  0  0  0  0  0  0  0
    4.5498   -0.9541   -0.5679 C   0  0  0  0  0  0  0  0  0  0  0  0
    5.8261   -1.3265   -0.9266 C   0  0  0  0  0  0  0  0  0  0  0  0
    6.9061   -1.0386   -0.1073 C   0  0  0  0  0  0  0  0  0  0  0  0
    6.7041   -0.3654    1.0933 C   0  0  0  0  0  0  0  0  0  0  0  0
    5.4228    0.0039    1.4451 C   0  0  0  0  0  0  0  0  0  0  0  0
   -2.1896    0.2278    0.0145 N   0  0  0  0  0  0  0  0  0  0  0  0
   -3.5675    0.5679    0.3750 C   0  0  0  0  0  0  0  0  0  0  0  0
   -4.2515   -0.4720    1.1754 C   0  0  0  0  0  0  0  0  0  0  0  0
   -4.9620   -1.5456    0.4384 C   0  0  0  0  0  0  0  0  0  0  0  0
   -5.4557   -1.1600   -0.9284 C   0  0  0  0  0  0  0  0  0  0  0  0
   -4.4552   -0.3345   -1.6957 C   0  0  0  0  0  0  0  0  0  0  0  0
   -4.2684    0.9475   -0.9111 C   0  0  0  0  0  0  0  0  0  0  0  0
    0.4752   -0.0606   -0.4341 H   0  0  0  0  0  0  0  0  0  0  0  0
    1.0544    1.6698    1.8225 H   0  0  0  0  0  0  0  0  0  0  0  0
    0.8839    2.7822    0.4032 H   0  0  0  0  0  0  0  0  0  0  0  0
    3.2348    2.1688    0.9359 H   0  0  0  0  0  0  0  0  0  0  0  0
    2.8120    1.5001   -0.6948 H   0  0  0  0  0  0  0  0  0  0  0  0
    2.8316    0.1511    2.0413 H   0  0  0  0  0  0  0  0  0  0  0  0
    2.2488   -0.7065    0.5572 H   0  0  0  0  0  0  0  0  0  0  0  0
    3.7791   -1.2256   -1.2756 H   0  0  0  0  0  0  0  0  0  0  0  0
    6.0928   -1.8496   -1.8308 H   0  0  0  0  0  0  0  0  0  0  0  0
    7.9313   -1.3245   -0.3707 H   0  0  0  0  0  0  0  0  0  0  0  0
    7.5398   -0.1296    1.7517 H   0  0  0  0  0  0  0  0  0  0  0  0
    5.2153    0.5301    2.3705 H   0  0  0  0  0  0  0  0  0  0  0  0
   -1.8853   -0.5704   -0.5516 H   0  0  0  0  0  0  0  0  0  0  0  0
   -3.4981    1.5009    0.9960 H   0  0  0  0  0  0  0  0  0  0  0  0
   -3.4849   -0.9619    1.8201 H   0  0  0  0  0  0  0  0  0  0  0  0
   -4.9585    0.0343    1.8903 H   0  0  0  0  0  0  0  0  0  0  0  0
   -4.3594   -2.4998    0.3843 H   0  0  0  0  0  0  0  0  0  0  0  0
   -5.8651   -1.8357    1.0157 H   0  0  0  0  0  0  0  0  0  0  0  0
   -6.4174   -0.6245   -0.9161 H   0  0  0  0  0  0  0  0  0  0  0  0
   -5.6170   -2.0971   -1.5012 H   0  0  0  0  0  0  0  0  0  0  0  0
   -3.4899   -0.8403   -1.7820 H   0  0  0  0  0  0  0  0  0  0  0  0
   -4.9065   -0.1353   -2.6878 H   0  0  0  0  0  0  0  0  0  0  0  0
   -5.2274    1.4497   -0.6889 H   0  0  0  0  0  0  0  0  0  0  0  0
   -3.5822    1.6144   -1.4583 H   0  0  0  0  0  0  0  0  0  0  0  0
  1  2  2  0
  2  3  1  0
  3  4  1  0
  4  5  1  0
  5  6  1  0
  6  7  1  0
  7  8  2  0
  8  9  1  0
  9 10  2  0
 10 11  1  0
 11 12  2  0
  2 13  1  0
 13 14  1  0
 14 15  1  0
 15 16  1  0
 16 17  1  0
 17 18  1  0
 18 19  1  0
 12  7  1  0
 19 14  1  0
  3 20  1  0
  4 21  1  0
  4 22  1  0
  5 23  1  0
  5 24  1  0
  6 25  1  0
  6 26  1  0
  8 27  1  0
  9 28  1  0
 10 29  1  0
 11 30  1  0
 12 31  1  0
 13 32  1  0
 14 33  1  0
 15 34  1  0
 15 35  1  0
 16 36  1  0
 16 37  1  0
 17 38  1  0
 17 39  1  0
 18 40  1  0
 18 41  1  0
 19 42  1  0
 19 43  1  0
M  END
$$$$
