@<TRIPOS>MOLECULE
*****
 43 44 0 0 0
SMALL
GASTEIGER

@<TRIPOS>ATOM
      1 O          -1.2535    2.0910    1.1788 O.2     1  UNL1       -0.2529
      2 C          -1.1231    1.0426    0.4609 C.2     1  UNL1        0.2999
      3 N           0.2492    0.7863    0.1574 N.am    1  UNL1       -0.2994
      4 C           1.1682    1.7562    0.7222 C.3     1  UNL1        0.0133
      5 C           2.6019    1.4465    0.3768 C.3     1  UNL1       -0.0334
      6 C           2.9328    0.0782    0.9303 C.3     1  UNL1       -0.0263
      7 C           4.3582   -0.2908    0.6169 C.ar    1  UNL1       -0.0473
      8 C           4.5498   -0.9541   -0.5679 C.ar    1  UNL1       -0.0586
      9 C           5.8261   -1.3265   -0.9266 C.ar    1  UNL1       -0.0615
     10 C           6.9061   -1.0386   -0.1073 C.ar    1  UNL1       -0.0617
     11 C           6.7041   -0.3654    1.0933 C.ar    1  UNL1       -0.0615
     12 C           5.4228    0.0039    1.4451 C.ar    1  UNL1       -0.0586
     13 N          -2.1896    0.2278    0.0145 N.am    1  UNL1       -0.2966
     14 C          -3.5675    0.5679    0.3750 C.3     1  UNL1        0.0246
     15 C          -4.2515   -0.4720    1.1754 C.3     1  UNL1       -0.0345
     16 C          -4.9620   -1.5456    0.4384 C.3     1  UNL1       -0.0514
     17 C          -5.4557   -1.1600   -0.9284 C.3     1  UNL1       -0.0529
     18 C          -4.4552   -0.3345   -1.6957 C.3     1  UNL1       -0.0514
     19 C          -4.2684    0.9475   -0.9111 C.3     1  UNL1       -0.0345
     20 H           0.4752   -0.0606   -0.4341 H       1  UNL1        0.1502
     21 H           1.0544    1.6698    1.8225 H       1  UNL1        0.0462
     22 H           0.8839    2.7822    0.4032 H       1  UNL1        0.0462
     23 H           3.2348    2.1688    0.9359 H       1  UNL1        0.0283
     24 H           2.8120    1.5001   -0.6948 H       1  UNL1        0.0283
     25 H           2.8316    0.1511    2.0413 H       1  UNL1        0.0314
     26 H           2.2488   -0.7065    0.5572 H       1  UNL1        0.0314
     27 H           3.7791   -1.2256   -1.2756 H       1  UNL1        0.0620
     28 H           6.0928   -1.8496   -1.8308 H       1  UNL1        0.0618
     29 H           7.9313   -1.3245   -0.3707 H       1  UNL1        0.0618
     30 H           7.5398   -0.1296    1.7517 H       1  UNL1        0.0618
     31 H           5.2153    0.5301    2.3705 H       1  UNL1        0.0620
     32 H          -1.8853   -0.5704   -0.5516 H       1  UNL1        0.1505
     33 H          -3.4981    1.5009    0.9960 H       1  UNL1        0.0499
     34 H          -3.4849   -0.9619    1.8201 H       1  UNL1        0.0283
     35 H          -4.9585    0.0343    1.8903 H       1  UNL1        0.0283
     36 H          -4.3594   -2.4998    0.3843 H       1  UNL1        0.0266
     37 H          -5.8651   -1.8357    1.0157 H       1  UNL1        0.0266
     38 H          -6.4174   -0.6245   -0.9161 H       1  UNL1        0.0265
     39 H          -5.6170   -2.0971   -1.5012 H       1  UNL1        0.0265
     40 H          -3.4899   -0.8403   -1.7820 H       1  UNL1        0.0266
     41 H          -4.9065   -0.1353   -2.6878 H       1  UNL1        0.0266
     42 H          -5.2274    1.4497   -0.6889 H       1  UNL1        0.0283
     43 H          -3.5822    1.6144   -1.4583 H       1  UNL1        0.0283
@<TRIPOS>BOND
     1     1     2    2
     2     2     3   am
     3     3     4    1
     4     4     5    1
     5     5     6    1
     6     6     7    1
     7     7     8   ar
     8     8     9   ar
     9     9    10   ar
    10    10    11   ar
    11    11    12   ar
    12     2    13   am
    13    13    14    1
    14    14    15    1
    15    15    16    1
    16    16    17    1
    17    17    18    1
    18    18    19    1
    19    12     7   ar
    20    19    14    1
    21     3    20    1
    22     4    21    1
    23     4    22    1
    24     5    23    1
    25     5    24    1
    26     6    25    1
    27     6    26    1
    28     8    27    1
    29     9    28    1
    30    10    29    1
    31    11    30    1
    32    12    31    1
    33    13    32    1
    34    14    33    1
    35    15    34    1
    36    15    35    1
    37    16    36    1
    38    16    37    1
    39    17    38    1
    40    17    39    1
    41    18    40    1
    42    18    41    1
    43    19    42    1
    44    19    43    1
