@<TRIPOS>MOLECULE
*****
 58 63 0 0 0
SMALL
GASTEIGER

@<TRIPOS>ATOM
      1 C          -4.5447   -2.1055   -2.1124 C.3     1  UNL1       -0.0361
      2 C          -3.9339   -1.5916   -0.8666 C.ar    1  UNL1       -0.0041
      3 C          -2.6300   -1.1604   -0.8491 C.ar    1  UNL1       -0.0324
      4 C          -2.0798   -0.6869    0.3147 C.ar    1  UNL1        0.0545
      5 N          -0.7328   -0.2168    0.4110 N.am    1  UNL1       -0.2530
      6 C           0.3474   -1.0688    0.7044 C.2     1  UNL1        0.2538
      7 O           0.3657   -2.3159    0.9049 O.2     1  UNL1       -0.2695
      8 C           1.5362   -0.2145    0.7430 C.ar    1  UNL1        0.0636
      9 C           2.9174   -0.2583    0.9587 C.ar    1  UNL1       -0.0119
     10 C           3.7129   -1.4661    1.2697 C.3     1  UNL1        0.0118
     11 C           4.2376   -2.1625    0.0081 C.3     1  UNL1        0.0067
     12 N           5.2382   -1.1081   -0.0622 N.3     1  UNL1       -0.3041
     13 C           6.4744   -1.5581   -0.6184 C.3     1  UNL1       -0.0127
     14 C           5.1891   -1.0853    1.4082 C.3     1  UNL1        0.0067
     15 C           3.3260    1.0437    0.8149 C.ar    1  UNL1        0.0089
     16 N           2.2990    1.8504    0.5322 N.ar    1  UNL1       -0.3508
     17 C           2.3430    3.3024    0.3096 C.3     1  UNL1        0.0117
     18 C           1.1812    1.0748    0.4854 C.ar    1  UNL1        0.0565
     19 C          -0.2613    1.1188    0.2542 C.3     1  UNL1        0.0972
     20 C          -0.6244    1.7545   -1.0331 C.ar    1  UNL1       -0.0208
     21 C          -0.4882    1.1365   -2.2494 C.ar    1  UNL1       -0.0550
     22 C          -0.8403    1.7755   -3.4151 C.ar    1  UNL1       -0.0431
     23 C          -1.3481    3.0687   -3.4255 C.ar    1  UNL1        0.0410
     24 CL         -1.7984    3.8890   -4.9037 Cl      1  UNL1       -0.0835
     25 C          -1.4895    3.7004   -2.2082 C.ar    1  UNL1       -0.0431
     26 C          -1.1308    3.0419   -1.0546 C.ar    1  UNL1       -0.0550
     27 C          -2.8477   -0.6519    1.4516 C.ar    1  UNL1        0.0344
     28 N          -4.1301   -1.0803    1.4175 N.ar    1  UNL1       -0.2846
     29 C          -5.1035   -1.1657    2.3433 C.ar    1  UNL1        0.1347
     30 C          -4.9298   -0.7509    3.7638 C.3     1  UNL1       -0.0041
     31 N          -6.2039   -1.6637    1.7965 N.ar    1  UNL1       -0.1340
     32 N          -5.9568   -1.9026    0.5273 N.ar    1  UNL1       -0.1292
     33 C          -4.6787   -1.5464    0.2806 C.ar    1  UNL1        0.1641
     34 H          -3.7894   -2.4582   -2.8467 H       1  UNL1        0.0279
     35 H          -5.2263   -2.9470   -1.8774 H       1  UNL1        0.0279
     36 H          -5.1804   -1.3084   -2.5967 H       1  UNL1        0.0279
     37 H          -2.0720   -1.2112   -1.7617 H       1  UNL1        0.0640
     38 H           3.3282   -2.1320    2.0406 H       1  UNL1        0.0374
     39 H           4.7248   -3.1171    0.2800 H       1  UNL1        0.0433
     40 H           3.5180   -2.1957   -0.8175 H       1  UNL1        0.0433
     41 H           6.4230   -2.6482   -0.8103 H       1  UNL1        0.0391
     42 H           6.5682   -1.0867   -1.6356 H       1  UNL1        0.0391
     43 H           7.3602   -1.2967   -0.0098 H       1  UNL1        0.0391
     44 H           5.7733   -1.9526    1.8204 H       1  UNL1        0.0433
     45 H           5.3806   -0.1178    1.8649 H       1  UNL1        0.0433
     46 H           4.3678    1.3795    0.9195 H       1  UNL1        0.0812
     47 H           2.2434    3.4936   -0.7947 H       1  UNL1        0.0456
     48 H           3.3622    3.6444    0.5821 H       1  UNL1        0.0456
     49 H           1.5785    3.8275    0.8954 H       1  UNL1        0.0456
     50 H          -0.7588    1.7234    1.0520 H       1  UNL1        0.0619
     51 H          -0.0964    0.1327   -2.2672 H       1  UNL1        0.0621
     52 H          -0.7354    1.2924   -4.3838 H       1  UNL1        0.0632
     53 H          -1.8866    4.7206   -2.1767 H       1  UNL1        0.0632
     54 H          -1.2426    3.5436   -0.0821 H       1  UNL1        0.0621
     55 H          -2.4345   -0.2849    2.3713 H       1  UNL1        0.0833
     56 H          -5.8542   -0.9324    4.3442 H       1  UNL1        0.0308
     57 H          -4.1213   -1.3748    4.2132 H       1  UNL1        0.0308
     58 H          -4.6456    0.3095    3.7750 H       1  UNL1        0.0308
@<TRIPOS>BOND
     1     1     2    1
     2     2     3   ar
     3     3     4   ar
     4     4     5    1
     5     5     6   am
     6     6     7    2
     7     6     8    1
     8     8     9   ar
     9     9    10    1
    10    10    11    1
    11    11    12    1
    12    12    13    1
    13    12    14    1
    14     9    15   ar
    15    15    16   ar
    16    16    17    1
    17    16    18   ar
    18    18    19    1
    19    19    20    1
    20    20    21   ar
    21    21    22   ar
    22    22    23   ar
    23    23    24    1
    24    23    25   ar
    25    25    26   ar
    26     4    27   ar
    27    27    28   ar
    28    28    29   ar
    29    29    30    1
    30    29    31   ar
    31    31    32   ar
    32    32    33   ar
    33    33     2   ar
    34    19     5    1
    35    26    20   ar
    36    33    28   ar
    37    18     8   ar
    38    14    10    1
    39     1    34    1
    40     1    35    1
    41     1    36    1
    42     3    37    1
    43    10    38    1
    44    11    39    1
    45    11    40    1
    46    13    41    1
    47    13    42    1
    48    13    43    1
    49    14    44    1
    50    14    45    1
    51    15    46    1
    52    17    47    1
    53    17    48    1
    54    17    49    1
    55    19    50    1
    56    21    51    1
    57    22    52    1
    58    25    53    1
    59    26    54    1
    60    27    55    1
    61    30    56    1
    62    30    57    1
    63    30    58    1
