
     RDKit          3D

 58 63  0  0  0  0  0  0  0  0999 V2000
   -4.5447   -2.1055   -2.1124 C   0  0  0  0  0  0  0  0  0  0  0  0
   -3.9339   -1.5916   -0.8666 C   0  0  0  0  0  0  0  0  0  0  0  0
   -2.6300   -1.1604   -0.8491 C   0  0  0  0  0  0  0  0  0  0  0  0
   -2.0798   -0.6869    0.3147 C   0  0  0  0  0  0  0  0  0  0  0  0
   -0.7328   -0.2168    0.4110 N   0  0  0  0  0  0  0  0  0  0  0  0
    0.3474   -1.0688    0.7044 C   0  0  0  0  0  0  0  0  0  0  0  0
    0.3657   -2.3159    0.9049 O   0  0  0  0  0  0  0  0  0  0  0  0
    1.5362   -0.2145    0.7430 C   0  0  0  0  0  0  0  0  0  0  0  0
    2.9174   -0.2583    0.9587 C   0  0  0  0  0  0  0  0  0  0  0  0
    3.7129   -1.4661    1.2697 C   0  0  0  0  0  0  0  0  0  0  0  0
    4.2376   -2.1625    0.0081 C   0  0  0  0  0  0  0  0  0  0  0  0
    5.2382   -1.1081   -0.0622 N   0  0  0  0  0  0  0  0  0  0  0  0
    6.4744   -1.5581   -0.6184 C   0  0  0  0  0  0  0  0  0  0  0  0
    5.1891   -1.0853    1.4082 C   0  0  0  0  0  0  0  0  0  0  0  0
    3.3260    1.0437    0.8149 C   0  0  0  0  0  0  0  0  0  0  0  0
    2.2990    1.8504    0.5322 N   0  0  0  0  0  0  0  0  0  0  0  0
    2.3430    3.3024    0.3096 C   0  0  0  0  0  0  0  0  0  0  0  0
    1.1812    1.0748    0.4854 C   0  0  0  0  0  0  0  0  0  0  0  0
   -0.2613    1.1188    0.2542 C   0  0  0  0  0  0  0  0  0  0  0  0
   -0.6244    1.7545   -1.0331 C   0  0  0  0  0  0  0  0  0  0  0  0
   -0.4882    1.1365   -2.2494 C   0  0  0  0  0  0  0  0  0  0  0  0
   -0.8403    1.7755   -3.4151 C   0  0  0  0  0  0  0  0  0  0  0  0
   -1.3481    3.0687   -3.4255 C   0  0  0  0  0  0  0  0  0  0  0  0
   -1.7984    3.8890   -4.9037 Cl  0  0  0  0  0  0  0  0  0  0  0  0
   -1.4895    3.7004   -2.2082 C   0  0  0  0  0  0  0  0  0  0  0  0
   -1.1308    3.0419   -1.0546 C   0  0  0  0  0  0  0  0  0  0  0  0
   -2.8477   -0.6519    1.4516 C   0  0  0  0  0  0  0  0  0  0  0  0
   -4.1301   -1.0803    1.4175 N   0  0  0  0  0  0  0  0  0  0  0  0
   -5.1035   -1.1657    2.3433 C   0  0  0  0  0  0  0  0  0  0  0  0
   -4.9298   -0.7509    3.7638 C   0  0  0  0  0  0  0  0  0  0  0  0
   -6.2039   -1.6637    1.7965 N   0  0  0  0  0  0  0  0  0  0  0  0
   -5.9568   -1.9026    0.5273 N   0  0  0  0  0  0  0  0  0  0  0  0
   -4.6787   -1.5464    0.2806 C   0  0  0  0  0  0  0  0  0  0  0  0
   -3.7894   -2.4582   -2.8467 H   0  0  0  0  0  0  0  0  0  0  0  0
   -5.2263   -2.9470   -1.8774 H   0  0  0  0  0  0  0  0  0  0  0  0
   -5.1804   -1.3084   -2.5967 H   0  0  0  0  0  0  0  0  0  0  0  0
   -2.0720   -1.2112   -1.7617 H   0  0  0  0  0  0  0  0  0  0  0  0
    3.3282   -2.1320    2.0406 H   0  0  0  0  0  0  0  0  0  0  0  0
    4.7248   -3.1171    0.2800 H   0  0  0  0  0  0  0  0  0  0  0  0
    3.5180   -2.1957   -0.8175 H   0  0  0  0  0  0  0  0  0  0  0  0
    6.4230   -2.6482   -0.8103 H   0  0  0  0  0  0  0  0  0  0  0  0
    6.5682   -1.0867   -1.6356 H   0  0  0  0  0  0  0  0  0  0  0  0
    7.3602   -1.2967   -0.0098 H   0  0  0  0  0  0  0  0  0  0  0  0
    5.7733   -1.9526    1.8204 H   0  0  0  0  0  0  0  0  0  0  0  0
    5.3806   -0.1178    1.8649 H   0  0  0  0  0  0  0  0  0  0  0  0
    4.3678    1.3795    0.9195 H   0  0  0  0  0  0  0  0  0  0  0  0
    2.2434    3.4936   -0.7947 H   0  0  0  0  0  0  0  0  0  0  0  0
    3.3622    3.6444    0.5821 H   0  0  0  0  0  0  0  0  0  0  0  0
    1.5785    3.8275    0.8954 H   0  0  0  0  0  0  0  0  0  0  0  0
   -0.7588    1.7234    1.0520 H   0  0  0  0  0  0  0  0  0  0  0  0
   -0.0964    0.1327   -2.2672 H   0  0  0  0  0  0  0  0  0  0  0  0
   -0.7354    1.2924   -4.3838 H   0  0  0  0  0  0  0  0  0  0  0  0
   -1.8866    4.7206   -2.1767 H   0  0  0  0  0  0  0  0  0  0  0  0
   -1.2426    3.5436   -0.0821 H   0  0  0  0  0  0  0  0  0  0  0  0
   -2.4345   -0.2849    2.3713 H   0  0  0  0  0  0  0  0  0  0  0  0
   -5.8542   -0.9324    4.3442 H   0  0  0  0  0  0  0  0  0  0  0  0
   -4.1213   -1.3748    4.2132 H   0  0  0  0  0  0  0  0  0  0  0  0
   -4.6456    0.3095    3.7750 H   0  0  0  0  0  0  0  0  0  0  0  0
  1  2  1  0
  2  3  2  0
  3  4  1  0
  4  5  1  0
  5  6  1  0
  6  7  2  0
  6  8  1  0
  8  9  1  0
  9 10  1  0
 10 11  1  0
 11 12  1  0
 12 13  1  0
 12 14  1  0
  9 15  2  0
 15 16  1  0
 16 17  1  0
 16 18  1  0
 18 19  1  0
 19 20  1  0
 20 21  2  0
 21 22  1  0
 22 23  2  0
 23 24  1  0
 23 25  1  0
 25 26  2  0
  4 27  2  0
 27 28  1  0
 28 29  1  0
 29 30  1  0
 29 31  2  0
 31 32  1  0
 32 33  2  0
 33  2  1  0
 19  5  1  0
 26 20  1  0
 33 28  1  0
 18  8  2  0
 14 10  1  0
  1 34  1  0
  1 35  1  0
  1 36  1  0
  3 37  1  0
 10 38  1  0
 11 39  1  0
 11 40  1  0
 13 41  1  0
 13 42  1  0
 13 43  1  0
 14 44  1  0
 14 45  1  0
 15 46  1  0
 17 47  1  0
 17 48  1  0
 17 49  1  0
 19 50  1  0
 21 51  1  0
 22 52  1  0
 25 53  1  0
 26 54  1  0
 27 55  1  0
 30 56  1  0
 30 57  1  0
 30 58  1  0
M  END
$$$$
