
     RDKit          3D

 53 58  0  0  0  0  0  0  0  0999 V2000
   -3.8859   -0.9566   -0.5631 O   0  0  0  0  0  0  0  0  0  0  0  0
   -3.2706   -1.7766    0.3769 C   0  0  1  0  0  0  0  0  0  0  0  0
   -2.3848   -2.7276   -0.4047 C   0  0  0  0  0  0  0  0  0  0  0  0
   -1.4529   -1.8722   -1.2547 C   0  0  0  0  0  0  0  0  0  0  0  0
   -0.5666   -1.1295   -0.3114 C   0  0  1  0  0  0  0  0  0  0  0  0
    0.1921   -2.1125    0.3661 O   0  0  0  0  0  0  0  0  0  0  0  0
    0.4416   -0.2183   -0.9540 C   0  0  1  0  0  0  0  0  0  0  0  0
   -0.1221    1.0009   -1.6145 C   0  0  0  0  0  0  0  0  0  0  0  0
   -1.4146    1.4538   -1.0391 C   0  0  0  0  0  0  0  0  0  0  0  0
   -2.0822    2.4965   -1.5993 C   0  0  0  0  0  0  0  0  0  0  0  0
   -3.3021    2.8589   -1.0145 C   0  0  0  0  0  0  0  0  0  0  0  0
   -3.7949    2.1788    0.0832 C   0  0  0  0  0  0  0  0  0  0  0  0
   -5.0047    2.5007    0.7032 O   0  0  0  0  0  0  0  0  0  0  0  0
   -3.1103    1.1200    0.6477 C   0  0  0  0  0  0  0  0  0  0  0  0
   -1.9132    0.7985    0.0393 C   0  0  0  0  0  0  0  0  0  0  0  0
   -1.2567   -0.3402    0.7331 C   0  0  2  0  0  0  0  0  0  0  0  0
   -0.2995    0.1387    1.7638 C   0  0  0  0  0  0  0  0  0  0  0  0
    1.1224    0.2613    1.3403 C   0  0  0  0  0  0  0  0  0  0  0  0
    1.4455    0.0341    0.0062 N   0  0  0  0  0  0  0  0  0  0  0  0
    2.6972    0.5006   -0.4335 C   0  0  0  0  0  0  0  0  0  0  0  0
    3.9044   -0.1995    0.1079 C   0  0  0  0  0  0  0  0  0  0  0  0
    4.1196   -0.1813    1.5926 C   0  0  0  0  0  0  0  0  0  0  0  0
    5.6240   -0.0054    1.2833 C   0  0  0  0  0  0  0  0  0  0  0  0
    5.1625    0.6624   -0.0104 C   0  0  0  0  0  0  0  0  0  0  0  0
   -2.4666   -0.9748    1.3590 C   0  0  1  0  0  0  0  0  0  0  0  0
   -3.2180    0.2027    1.6871 O   0  0  0  0  0  0  0  0  0  0  0  0
   -4.6960   -1.4099   -0.9587 H   0  0  0  0  0  0  0  0  0  0  0  0
   -4.0665   -2.3111    0.9246 H   0  0  0  0  0  0  0  0  0  0  0  0
   -3.0064   -3.4123   -0.9804 H   0  0  0  0  0  0  0  0  0  0  0  0
   -1.7273   -3.2878    0.3128 H   0  0  0  0  0  0  0  0  0  0  0  0
   -0.8094   -2.5060   -1.9020 H   0  0  0  0  0  0  0  0  0  0  0  0
   -2.1210   -1.2174   -1.8503 H   0  0  0  0  0  0  0  0  0  0  0  0
    0.5203   -2.7275   -0.3406 H   0  0  0  0  0  0  0  0  0  0  0  0
    0.9211   -0.8388   -1.7728 H   0  0  0  0  0  0  0  0  0  0  0  0
    0.5905    1.8333   -1.5599 H   0  0  0  0  0  0  0  0  0  0  0  0
   -0.3548    0.7607   -2.6910 H   0  0  0  0  0  0  0  0  0  0  0  0
   -1.7315    3.0618   -2.4633 H   0  0  0  0  0  0  0  0  0  0  0  0
   -3.9237    3.6883   -1.3841 H   0  0  0  0  0  0  0  0  0  0  0  0
   -5.1151    2.4621    1.7062 H   0  0  0  0  0  0  0  0  0  0  0  0
   -0.4293   -0.5502    2.6538 H   0  0  0  0  0  0  0  0  0  0  0  0
   -0.6455    1.1214    2.1445 H   0  0  0  0  0  0  0  0  0  0  0  0
    1.5220    1.2720    1.6520 H   0  0  0  0  0  0  0  0  0  0  0  0
    1.7075   -0.4664    1.9698 H   0  0  0  0  0  0  0  0  0  0  0  0
    2.8081    1.5791   -0.1062 H   0  0  0  0  0  0  0  0  0  0  0  0
    2.8149    0.5526   -1.5402 H   0  0  0  0  0  0  0  0  0  0  0  0
    4.0799   -1.2250   -0.3111 H   0  0  0  0  0  0  0  0  0  0  0  0
    3.9979   -1.1532    2.1140 H   0  0  0  0  0  0  0  0  0  0  0  0
    3.7737    0.7112    2.1423 H   0  0  0  0  0  0  0  0  0  0  0  0
    6.1327   -0.9769    1.1210 H   0  0  0  0  0  0  0  0  0  0  0  0
    6.1318    0.6652    1.9923 H   0  0  0  0  0  0  0  0  0  0  0  0
    4.9385    1.7326    0.1433 H   0  0  0  0  0  0  0  0  0  0  0  0
    5.7995    0.4274   -0.8912 H   0  0  0  0  0  0  0  0  0  0  0  0
   -2.2758   -1.4989    2.3100 H   0  0  0  0  0  0  0  0  0  0  0  0
  1  2  1  0
  2  3  1  0
  3  4  1  0
  4  5  1  0
  5  6  1  1
  5  7  1  0
  7  8  1  0
  8  9  1  0
  9 10  2  0
 10 11  1  0
 11 12  2  0
 12 13  1  0
 12 14  1  0
 14 15  2  0
 15 16  1  0
 16 17  1  1
 17 18  1  0
 18 19  1  0
 19 20  1  0
 20 21  1  0
 21 22  1  0
 22 23  1  0
 23 24  1  0
 16 25  1  0
 25 26  1  0
 25  2  1  0
 16  5  1  0
 24 21  1  0
 19  7  1  0
 15  9  1  0
 26 14  1  0
  1 27  1  0
  2 28  1  1
  3 29  1  0
  3 30  1  0
  4 31  1  0
  4 32  1  0
  6 33  1  0
  7 34  1  6
  8 35  1  0
  8 36  1  0
 10 37  1  0
 11 38  1  0
 13 39  1  0
 17 40  1  0
 17 41  1  0
 18 42  1  0
 18 43  1  0
 20 44  1  0
 20 45  1  0
 21 46  1  0
 22 47  1  0
 22 48  1  0
 23 49  1  0
 23 50  1  0
 24 51  1  0
 24 52  1  0
 25 53  1  1
M  END
$$$$
