@<TRIPOS>MOLECULE
*****
 53 58 0 0 0
SMALL
GASTEIGER

@<TRIPOS>ATOM
      1 O          -3.8859   -0.9566   -0.5631 O.3     1  UNL1       -0.3881
      2 C          -3.2706   -1.7766    0.3769 C.3     1  UNL1        0.0930
      3 C          -2.3848   -2.7276   -0.4047 C.3     1  UNL1       -0.0207
      4 C          -1.4529   -1.8722   -1.2547 C.3     1  UNL1       -0.0191
      5 C          -0.5666   -1.1295   -0.3114 C.3     1  UNL1        0.0951
      6 O           0.1921   -2.1125    0.3661 O.3     1  UNL1       -0.3860
      7 C           0.4416   -0.2183   -0.9540 C.3     1  UNL1        0.0441
      8 C          -0.1221    1.0009   -1.6145 C.3     1  UNL1       -0.0089
      9 C          -1.4146    1.4538   -1.0391 C.ar    1  UNL1       -0.0382
     10 C          -2.0822    2.4965   -1.5993 C.ar    1  UNL1       -0.0546
     11 C          -3.3021    2.8589   -1.0145 C.ar    1  UNL1       -0.0162
     12 C          -3.7949    2.1788    0.0832 C.ar    1  UNL1        0.1588
     13 O          -5.0047    2.5007    0.7032 O.3     1  UNL1       -0.5033
     14 C          -3.1103    1.1200    0.6477 C.ar    1  UNL1        0.1664
     15 C          -1.9132    0.7985    0.0393 C.ar    1  UNL1        0.0137
     16 C          -1.2567   -0.3402    0.7331 C.3     1  UNL1        0.0701
     17 C          -0.2995    0.1387    1.7638 C.3     1  UNL1       -0.0242
     18 C           1.1224    0.2613    1.3403 C.3     1  UNL1        0.0003
     19 N           1.4455    0.0341    0.0062 N.3     1  UNL1       -0.2960
     20 C           2.6972    0.5006   -0.4335 C.3     1  UNL1        0.0021
     21 C           3.9044   -0.1995    0.1079 C.3     1  UNL1       -0.0282
     22 C           4.1196   -0.1813    1.5926 C.3     1  UNL1       -0.0490
     23 C           5.6240   -0.0054    1.2833 C.3     1  UNL1       -0.0525
     24 C           5.1625    0.6624   -0.0104 C.3     1  UNL1       -0.0490
     25 C          -2.4666   -0.9748    1.3590 C.3     1  UNL1        0.1384
     26 O          -3.2180    0.2027    1.6871 O.3     1  UNL1       -0.4813
     27 H          -4.6960   -1.4099   -0.9587 H       1  UNL1        0.2099
     28 H          -4.0665   -2.3111    0.9246 H       1  UNL1        0.0630
     29 H          -3.0064   -3.4123   -0.9804 H       1  UNL1        0.0292
     30 H          -1.7273   -3.2878    0.3128 H       1  UNL1        0.0292
     31 H          -0.8094   -2.5060   -1.9020 H       1  UNL1        0.0294
     32 H          -2.1210   -1.2174   -1.8503 H       1  UNL1        0.0294
     33 H           0.5203   -2.7275   -0.3406 H       1  UNL1        0.2103
     34 H           0.9211   -0.8388   -1.7728 H       1  UNL1        0.0494
     35 H           0.5905    1.8333   -1.5599 H       1  UNL1        0.0329
     36 H          -0.3548    0.7607   -2.6910 H       1  UNL1        0.0329
     37 H          -1.7315    3.0618   -2.4633 H       1  UNL1        0.0622
     38 H          -3.9237    3.6883   -1.3841 H       1  UNL1        0.0655
     39 H          -5.1151    2.4621    1.7062 H       1  UNL1        0.2923
     40 H          -0.4293   -0.5502    2.6538 H       1  UNL1        0.0288
     41 H          -0.6455    1.1214    2.1445 H       1  UNL1        0.0288
     42 H           1.5220    1.2720    1.6520 H       1  UNL1        0.0427
     43 H           1.7075   -0.4664    1.9698 H       1  UNL1        0.0427
     44 H           2.8081    1.5791   -0.1062 H       1  UNL1        0.0429
     45 H           2.8149    0.5526   -1.5402 H       1  UNL1        0.0429
     46 H           4.0799   -1.2250   -0.3111 H       1  UNL1        0.0313
     47 H           3.9979   -1.1532    2.1140 H       1  UNL1        0.0268
     48 H           3.7737    0.7112    2.1423 H       1  UNL1        0.0268
     49 H           6.1327   -0.9769    1.1210 H       1  UNL1        0.0265
     50 H           6.1318    0.6652    1.9923 H       1  UNL1        0.0265
     51 H           4.9385    1.7326    0.1433 H       1  UNL1        0.0268
     52 H           5.7995    0.4274   -0.8912 H       1  UNL1        0.0268
     53 H          -2.2758   -1.4989    2.3100 H       1  UNL1        0.0769
@<TRIPOS>BOND
     1     1     2    1
     2     2     3    1
     3     3     4    1
     4     4     5    1
     5     5     6    1
     6     5     7    1
     7     7     8    1
     8     8     9    1
     9     9    10   ar
    10    10    11   ar
    11    11    12   ar
    12    12    13    1
    13    12    14   ar
    14    14    15   ar
    15    15    16    1
    16    16    17    1
    17    17    18    1
    18    18    19    1
    19    19    20    1
    20    20    21    1
    21    21    22    1
    22    22    23    1
    23    23    24    1
    24    16    25    1
    25    25    26    1
    26    25     2    1
    27    16     5    1
    28    24    21    1
    29    19     7    1
    30    15     9   ar
    31    26    14    1
    32     1    27    1
    33     2    28    1
    34     3    29    1
    35     3    30    1
    36     4    31    1
    37     4    32    1
    38     6    33    1
    39     7    34    1
    40     8    35    1
    41     8    36    1
    42    10    37    1
    43    11    38    1
    44    13    39    1
    45    17    40    1
    46    17    41    1
    47    18    42    1
    48    18    43    1
    49    20    44    1
    50    20    45    1
    51    21    46    1
    52    22    47    1
    53    22    48    1
    54    23    49    1
    55    23    50    1
    56    24    51    1
    57    24    52    1
    58    25    53    1
