@<TRIPOS>MOLECULE
*****
 54 57 0 0 0
SMALL
GASTEIGER

@<TRIPOS>ATOM
      1 C          -5.4636    6.0844    0.6901 C.3     1  UNL1       -0.0319
      2 C          -4.3207    5.2303    0.4510 C.ar    1  UNL1        0.0068
      3 C          -2.9906    5.4390    0.2395 C.ar    1  UNL1        0.0383
      4 N          -2.1926    4.4544    0.0509 N.ar    1  UNL1       -0.2471
      5 C          -2.6636    3.2019    0.0602 C.ar    1  UNL1        0.1086
      6 C          -1.8766    1.9613   -0.1407 C.ar    1  UNL1        0.0113
      7 C          -2.4987    0.7277   -0.1050 C.ar    1  UNL1       -0.0102
      8 C          -1.8050   -0.4421   -0.2863 C.ar    1  UNL1        0.1224
      9 O          -2.4264   -1.6424   -0.2488 O.3     1  UNL1       -0.4864
     10 C          -3.7657   -1.9417   -0.0410 C.3     1  UNL1        0.1254
     11 C          -4.2185   -2.7976   -1.2346 C.3     1  UNL1        0.0099
     12 C          -3.5939   -4.1277   -0.8038 C.3     1  UNL1        0.0512
     13 O          -4.0762   -4.1939    0.5203 O.3     1  UNL1       -0.3760
     14 C          -3.8427   -2.9649    1.0786 C.3     1  UNL1        0.0846
     15 C          -0.4339   -0.3448   -0.5109 C.ar    1  UNL1       -0.0078
     16 C           0.2130    0.8655   -0.5521 C.ar    1  UNL1        0.0408
     17 C           1.6291    0.9240   -0.7863 C.2     1  UNL1        0.2447
     18 O           2.1804    2.0751   -0.8149 O.2     1  UNL1       -0.2702
     19 N           2.4728   -0.1894   -0.9896 N.am    1  UNL1       -0.3047
     20 C           3.9090   -0.0486   -1.2226 C.3     1  UNL1        0.0487
     21 C           4.2136   -0.6552   -2.5713 C.3     1  UNL1       -0.0423
     22 C           4.6099   -0.7418   -0.1116 C.ar    1  UNL1        0.0087
     23 C           4.2106   -1.9907    0.3125 C.ar    1  UNL1        0.0363
     24 N           4.8640   -2.5946    1.3217 N.ar    1  UNL1       -0.2321
     25 C           5.9067   -2.0424    1.9568 C.ar    1  UNL1        0.2339
     26 C           6.6258   -2.7253    3.0792 C.3     1  UNL1        0.4522
     27 F           5.7427   -3.3743    3.9134 F       1  UNL1       -0.1632
     28 F           7.4857   -3.6410    2.4843 F       1  UNL1       -0.1632
     29 F           7.4001   -1.8088    3.7508 F       1  UNL1       -0.1632
     30 N           6.2873   -0.8188    1.5312 N.ar    1  UNL1       -0.2321
     31 C           5.6849   -0.1635    0.5374 C.ar    1  UNL1        0.0363
     32 C          -0.5276    2.0385   -0.3627 C.ar    1  UNL1       -0.0397
     33 S          -4.3248    3.3961    0.3496 S.2     1  UNL1       -0.0725
     34 H          -5.5557    6.7988   -0.1765 H       1  UNL1        0.0283
     35 H          -6.3900    5.4831    0.7140 H       1  UNL1        0.0283
     36 H          -5.3457    6.7173    1.5970 H       1  UNL1        0.0283
     37 H          -2.6213    6.5016    0.2367 H       1  UNL1        0.0838
     38 H          -3.5543    0.7342    0.0724 H       1  UNL1        0.0661
     39 H          -4.4373   -1.0945    0.1181 H       1  UNL1        0.0757
     40 H          -3.7707   -2.4136   -2.1606 H       1  UNL1        0.0324
     41 H          -5.3219   -2.8615   -1.2520 H       1  UNL1        0.0324
     42 H          -2.5090   -3.9656   -0.7604 H       1  UNL1        0.0561
     43 H          -3.9287   -4.9663   -1.4023 H       1  UNL1        0.0561
     44 H          -2.8867   -3.0149    1.6476 H       1  UNL1        0.0597
     45 H          -4.6378   -2.6880    1.8189 H       1  UNL1        0.0597
     46 H           0.1038   -1.2720   -0.6526 H       1  UNL1        0.0662
     47 H           2.0456   -1.1392   -0.9710 H       1  UNL1        0.1496
     48 H           4.2260    0.9962   -1.2214 H       1  UNL1        0.0546
     49 H           5.2015   -0.3031   -2.9322 H       1  UNL1        0.0251
     50 H           3.4640   -0.2214   -3.2848 H       1  UNL1        0.0251
     51 H           4.1238   -1.7549   -2.5588 H       1  UNL1        0.0251
     52 H           3.3662   -2.4729   -0.1797 H       1  UNL1        0.0834
     53 H           6.0057    0.8294    0.2034 H       1  UNL1        0.0834
     54 H           0.0080    2.9586   -0.4014 H       1  UNL1        0.0632
@<TRIPOS>BOND
     1     1     2    1
     2     2     3   ar
     3     3     4   ar
     4     4     5   ar
     5     5     6    1
     6     6     7   ar
     7     7     8   ar
     8     8     9    1
     9     9    10    1
    10    10    11    1
    11    11    12    1
    12    12    13    1
    13    13    14    1
    14     8    15   ar
    15    15    16   ar
    16    16    17    1
    17    17    18    2
    18    17    19   am
    19    19    20    1
    20    20    21    1
    21    20    22    1
    22    22    23   ar
    23    23    24   ar
    24    24    25   ar
    25    25    26    1
    26    26    27    1
    27    26    28    1
    28    26    29    1
    29    25    30   ar
    30    30    31   ar
    31    16    32   ar
    32     5    33   ar
    33    33     2   ar
    34    32     6   ar
    35    14    10    1
    36    31    22   ar
    37     1    34    1
    38     1    35    1
    39     1    36    1
    40     3    37    1
    41     7    38    1
    42    10    39    1
    43    11    40    1
    44    11    41    1
    45    12    42    1
    46    12    43    1
    47    14    44    1
    48    14    45    1
    49    15    46    1
    50    19    47    1
    51    20    48    1
    52    21    49    1
    53    21    50    1
    54    21    51    1
    55    23    52    1
    56    31    53    1
    57    32    54    1
