
     RDKit          3D

 54 57  0  0  0  0  0  0  0  0999 V2000
   -5.4636    6.0844    0.6901 C   0  0  0  0  0  0  0  0  0  0  0  0
   -4.3207    5.2303    0.4510 C   0  0  0  0  0  0  0  0  0  0  0  0
   -2.9906    5.4390    0.2395 C   0  0  0  0  0  0  0  0  0  0  0  0
   -2.1926    4.4544    0.0509 N   0  0  0  0  0  0  0  0  0  0  0  0
   -2.6636    3.2019    0.0602 C   0  0  0  0  0  0  0  0  0  0  0  0
   -1.8766    1.9613   -0.1407 C   0  0  0  0  0  0  0  0  0  0  0  0
   -2.4987    0.7277   -0.1050 C   0  0  0  0  0  0  0  0  0  0  0  0
   -1.8050   -0.4421   -0.2863 C   0  0  0  0  0  0  0  0  0  0  0  0
   -2.4264   -1.6424   -0.2488 O   0  0  0  0  0  0  0  0  0  0  0  0
   -3.7657   -1.9417   -0.0410 C   0  0  1  0  0  0  0  0  0  0  0  0
   -4.2185   -2.7976   -1.2346 C   0  0  0  0  0  0  0  0  0  0  0  0
   -3.5939   -4.1277   -0.8038 C   0  0  0  0  0  0  0  0  0  0  0  0
   -4.0762   -4.1939    0.5203 O   0  0  0  0  0  0  0  0  0  0  0  0
   -3.8427   -2.9649    1.0786 C   0  0  0  0  0  0  0  0  0  0  0  0
   -0.4339   -0.3448   -0.5109 C   0  0  0  0  0  0  0  0  0  0  0  0
    0.2130    0.8655   -0.5521 C   0  0  0  0  0  0  0  0  0  0  0  0
    1.6291    0.9240   -0.7863 C   0  0  0  0  0  0  0  0  0  0  0  0
    2.1804    2.0751   -0.8149 O   0  0  0  0  0  0  0  0  0  0  0  0
    2.4728   -0.1894   -0.9896 N   0  0  0  0  0  0  0  0  0  0  0  0
    3.9090   -0.0486   -1.2226 C   0  0  2  0  0  0  0  0  0  0  0  0
    4.2136   -0.6552   -2.5713 C   0  0  0  0  0  0  0  0  0  0  0  0
    4.6099   -0.7418   -0.1116 C   0  0  0  0  0  0  0  0  0  0  0  0
    4.2106   -1.9907    0.3125 C   0  0  0  0  0  0  0  0  0  0  0  0
    4.8640   -2.5946    1.3217 N   0  0  0  0  0  0  0  0  0  0  0  0
    5.9067   -2.0424    1.9568 C   0  0  0  0  0  0  0  0  0  0  0  0
    6.6258   -2.7253    3.0792 C   0  0  0  0  0  0  0  0  0  0  0  0
    5.7427   -3.3743    3.9134 F   0  0  0  0  0  0  0  0  0  0  0  0
    7.4857   -3.6410    2.4843 F   0  0  0  0  0  0  0  0  0  0  0  0
    7.4001   -1.8088    3.7508 F   0  0  0  0  0  0  0  0  0  0  0  0
    6.2873   -0.8188    1.5312 N   0  0  0  0  0  0  0  0  0  0  0  0
    5.6849   -0.1635    0.5374 C   0  0  0  0  0  0  0  0  0  0  0  0
   -0.5276    2.0385   -0.3627 C   0  0  0  0  0  0  0  0  0  0  0  0
   -4.3248    3.3961    0.3496 S   0  0  0  0  0  0  0  0  0  0  0  0
   -5.5557    6.7988   -0.1765 H   0  0  0  0  0  0  0  0  0  0  0  0
   -6.3900    5.4831    0.7140 H   0  0  0  0  0  0  0  0  0  0  0  0
   -5.3457    6.7173    1.5970 H   0  0  0  0  0  0  0  0  0  0  0  0
   -2.6213    6.5016    0.2367 H   0  0  0  0  0  0  0  0  0  0  0  0
   -3.5543    0.7342    0.0724 H   0  0  0  0  0  0  0  0  0  0  0  0
   -4.4373   -1.0945    0.1181 H   0  0  0  0  0  0  0  0  0  0  0  0
   -3.7707   -2.4136   -2.1606 H   0  0  0  0  0  0  0  0  0  0  0  0
   -5.3219   -2.8615   -1.2520 H   0  0  0  0  0  0  0  0  0  0  0  0
   -2.5090   -3.9656   -0.7604 H   0  0  0  0  0  0  0  0  0  0  0  0
   -3.9287   -4.9663   -1.4023 H   0  0  0  0  0  0  0  0  0  0  0  0
   -2.8867   -3.0149    1.6476 H   0  0  0  0  0  0  0  0  0  0  0  0
   -4.6378   -2.6880    1.8189 H   0  0  0  0  0  0  0  0  0  0  0  0
    0.1038   -1.2720   -0.6526 H   0  0  0  0  0  0  0  0  0  0  0  0
    2.0456   -1.1392   -0.9710 H   0  0  0  0  0  0  0  0  0  0  0  0
    4.2260    0.9962   -1.2214 H   0  0  0  0  0  0  0  0  0  0  0  0
    5.2015   -0.3031   -2.9322 H   0  0  0  0  0  0  0  0  0  0  0  0
    3.4640   -0.2214   -3.2848 H   0  0  0  0  0  0  0  0  0  0  0  0
    4.1238   -1.7549   -2.5588 H   0  0  0  0  0  0  0  0  0  0  0  0
    3.3662   -2.4729   -0.1797 H   0  0  0  0  0  0  0  0  0  0  0  0
    6.0057    0.8294    0.2034 H   0  0  0  0  0  0  0  0  0  0  0  0
    0.0080    2.9586   -0.4014 H   0  0  0  0  0  0  0  0  0  0  0  0
  1  2  1  0
  2  3  2  0
  3  4  1  0
  4  5  2  0
  5  6  1  0
  6  7  2  0
  7  8  1  0
  8  9  1  0
  9 10  1  0
 10 11  1  0
 11 12  1  0
 12 13  1  0
 13 14  1  0
  8 15  2  0
 15 16  1  0
 16 17  1  0
 17 18  2  0
 17 19  1  0
 19 20  1  0
 20 21  1  0
 20 22  1  0
 22 23  2  0
 23 24  1  0
 24 25  2  0
 25 26  1  0
 26 27  1  0
 26 28  1  0
 26 29  1  0
 25 30  1  0
 30 31  2  0
 16 32  2  0
  5 33  1  0
 33  2  1  0
 32  6  1  0
 14 10  1  0
 31 22  1  0
  1 34  1  0
  1 35  1  0
  1 36  1  0
  3 37  1  0
  7 38  1  0
 10 39  1  1
 11 40  1  0
 11 41  1  0
 12 42  1  0
 12 43  1  0
 14 44  1  0
 14 45  1  0
 15 46  1  0
 19 47  1  0
 20 48  1  6
 21 49  1  0
 21 50  1  0
 21 51  1  0
 23 52  1  0
 31 53  1  0
 32 54  1  0
M  END
$$$$
