@<TRIPOS>MOLECULE
*****
 61 65 0 0 0
SMALL
GASTEIGER

@<TRIPOS>ATOM
      1 C          -8.0980   -0.5924   -0.0314 C.3     1  UNL1       -0.0524
      2 C          -7.3407    0.7193    0.0054 C.3     1  UNL1       -0.0039
      3 N          -6.1419    0.6811   -0.7776 N.3     1  UNL1       -0.3026
      4 C          -5.4362    1.9232   -0.7166 C.3     1  UNL1       -0.0009
      5 C          -3.9707    1.6828   -0.9746 C.3     1  UNL1       -0.0373
      6 C          -3.4155    0.9495    0.2389 C.3     1  UNL1       -0.0371
      7 C          -1.9623    0.6272    0.0702 C.3     1  UNL1       -0.0304
      8 C          -1.4249   -0.0752    1.2755 C.3     1  UNL1        0.0440
      9 N          -0.0335   -0.4299    1.1338 N.ar    1  UNL1       -0.2460
     10 N           0.9907    0.3179    1.5067 N.ar    1  UNL1       -0.1733
     11 C           2.1372   -0.3179    1.2428 C.ar    1  UNL1        0.0799
     12 C           3.4946    0.1724    1.5267 C.3     1  UNL1        0.0179
     13 C           4.1920    0.5907    0.2675 C.ar    1  UNL1       -0.0338
     14 C           3.3968    0.8859   -0.8437 C.ar    1  UNL1       -0.0576
     15 C           4.0241    1.2395   -1.9997 C.ar    1  UNL1       -0.0609
     16 C           5.4001    1.3109   -2.0933 C.ar    1  UNL1       -0.0540
     17 C           6.1758    1.0145   -0.9769 C.ar    1  UNL1       -0.0176
     18 C           7.5432    1.0821   -1.0577 C.ar    1  UNL1       -0.0540
     19 C           8.3262    0.7914    0.0423 C.ar    1  UNL1       -0.0612
     20 C           7.7401    0.4314    1.2299 C.ar    1  UNL1       -0.0612
     21 C           6.3653    0.3598    1.3233 C.ar    1  UNL1       -0.0538
     22 C           5.5685    0.6473    0.2286 C.ar    1  UNL1       -0.0143
     23 C           1.7890   -1.5234    0.6750 C.ar    1  UNL1        0.0815
     24 C           2.4920   -2.5816    0.1987 C.ar    1  UNL1        0.1305
     25 N           3.8928   -2.5727    0.2355 N.pl3   1  UNL1       -0.3425
     26 N           1.8476   -3.6498   -0.3163 N.ar    1  UNL1       -0.2204
     27 C           0.5005   -3.7080   -0.3786 C.ar    1  UNL1        0.1204
     28 N          -0.2158   -2.6507    0.0963 N.ar    1  UNL1       -0.2162
     29 C           0.4146   -1.5846    0.6107 C.ar    1  UNL1        0.1635
     30 C          -4.2647   -0.2763    0.4877 C.3     1  UNL1       -0.0373
     31 C          -5.3325   -0.4675   -0.5652 C.3     1  UNL1       -0.0009
     32 H          -7.8302   -1.2636    0.8249 H       1  UNL1        0.0242
     33 H          -9.1732   -0.3531    0.0901 H       1  UNL1        0.0242
     34 H          -7.9777   -1.0967   -1.0019 H       1  UNL1        0.0242
     35 H          -7.1792    1.0035    1.0620 H       1  UNL1        0.0424
     36 H          -8.0019    1.4909   -0.4419 H       1  UNL1        0.0424
     37 H          -5.5976    2.3930    0.2597 H       1  UNL1        0.0427
     38 H          -5.8221    2.6126   -1.5040 H       1  UNL1        0.0427
     39 H          -3.4924    2.6767   -1.0724 H       1  UNL1        0.0280
     40 H          -3.8091    1.0304   -1.8421 H       1  UNL1        0.0280
     41 H          -3.5316    1.6205    1.1064 H       1  UNL1        0.0302
     42 H          -1.8650    0.0077   -0.8366 H       1  UNL1        0.0286
     43 H          -1.4409    1.6060   -0.0801 H       1  UNL1        0.0286
     44 H          -2.0113   -0.9649    1.5127 H       1  UNL1        0.0509
     45 H          -1.5597    0.6459    2.1448 H       1  UNL1        0.0509
     46 H           3.4248    1.0392    2.2093 H       1  UNL1        0.0378
     47 H           4.1176   -0.5962    2.0263 H       1  UNL1        0.0378
     48 H           2.3063    0.8191   -0.7302 H       1  UNL1        0.0621
     49 H           3.4319    1.4734   -2.8800 H       1  UNL1        0.0618
     50 H           5.9183    1.5921   -3.0095 H       1  UNL1        0.0624
     51 H           7.9801    1.3694   -2.0022 H       1  UNL1        0.0624
     52 H           9.4047    0.8610   -0.0796 H       1  UNL1        0.0618
     53 H           8.3775    0.2033    2.0953 H       1  UNL1        0.0618
     54 H           5.9071    0.0884    2.2472 H       1  UNL1        0.0624
     55 H           4.3786   -2.8773    1.0952 H       1  UNL1        0.1437
     56 H           4.4583   -2.2692   -0.5750 H       1  UNL1        0.1437
     57 H          -0.0585   -4.5313   -0.7796 H       1  UNL1        0.1048
     58 H          -4.6746   -0.3294    1.5154 H       1  UNL1        0.0280
     59 H          -3.5917   -1.1610    0.3712 H       1  UNL1        0.0280
     60 H          -4.8065   -0.7439   -1.4989 H       1  UNL1        0.0427
     61 H          -5.9361   -1.3433   -0.2671 H       1  UNL1        0.0427
@<TRIPOS>BOND
     1     1     2    1
     2     2     3    1
     3     3     4    1
     4     4     5    1
     5     5     6    1
     6     6     7    1
     7     7     8    1
     8     8     9    1
     9     9    10   ar
    10    10    11   ar
    11    11    12    1
    12    12    13    1
    13    13    14   ar
    14    14    15   ar
    15    15    16   ar
    16    16    17   ar
    17    17    18   ar
    18    18    19   ar
    19    19    20   ar
    20    20    21   ar
    21    21    22   ar
    22    11    23   ar
    23    23    24   ar
    24    24    25    1
    25    24    26   ar
    26    26    27   ar
    27    27    28   ar
    28    28    29   ar
    29     6    30    1
    30    30    31    1
    31    31     3    1
    32    29     9   ar
    33    22    13   ar
    34    29    23   ar
    35    22    17   ar
    36     1    32    1
    37     1    33    1
    38     1    34    1
    39     2    35    1
    40     2    36    1
    41     4    37    1
    42     4    38    1
    43     5    39    1
    44     5    40    1
    45     6    41    1
    46     7    42    1
    47     7    43    1
    48     8    44    1
    49     8    45    1
    50    12    46    1
    51    12    47    1
    52    14    48    1
    53    15    49    1
    54    16    50    1
    55    18    51    1
    56    19    52    1
    57    20    53    1
    58    21    54    1
    59    25    55    1
    60    25    56    1
    61    27    57    1
    62    30    58    1
    63    30    59    1
    64    31    60    1
    65    31    61    1
