
     RDKit          3D

 61 65  0  0  0  0  0  0  0  0999 V2000
   -8.0980   -0.5924   -0.0314 C   0  0  0  0  0  0  0  0  0  0  0  0
   -7.3407    0.7193    0.0054 C   0  0  0  0  0  0  0  0  0  0  0  0
   -6.1419    0.6811   -0.7776 N   0  0  0  0  0  0  0  0  0  0  0  0
   -5.4362    1.9232   -0.7166 C   0  0  0  0  0  0  0  0  0  0  0  0
   -3.9707    1.6828   -0.9746 C   0  0  0  0  0  0  0  0  0  0  0  0
   -3.4155    0.9495    0.2389 C   0  0  0  0  0  0  0  0  0  0  0  0
   -1.9623    0.6272    0.0702 C   0  0  0  0  0  0  0  0  0  0  0  0
   -1.4249   -0.0752    1.2755 C   0  0  0  0  0  0  0  0  0  0  0  0
   -0.0335   -0.4299    1.1338 N   0  0  0  0  0  0  0  0  0  0  0  0
    0.9907    0.3179    1.5067 N   0  0  0  0  0  0  0  0  0  0  0  0
    2.1372   -0.3179    1.2428 C   0  0  0  0  0  0  0  0  0  0  0  0
    3.4946    0.1724    1.5267 C   0  0  0  0  0  0  0  0  0  0  0  0
    4.1920    0.5907    0.2675 C   0  0  0  0  0  0  0  0  0  0  0  0
    3.3968    0.8859   -0.8437 C   0  0  0  0  0  0  0  0  0  0  0  0
    4.0241    1.2395   -1.9997 C   0  0  0  0  0  0  0  0  0  0  0  0
    5.4001    1.3109   -2.0933 C   0  0  0  0  0  0  0  0  0  0  0  0
    6.1758    1.0145   -0.9769 C   0  0  0  0  0  0  0  0  0  0  0  0
    7.5432    1.0821   -1.0577 C   0  0  0  0  0  0  0  0  0  0  0  0
    8.3262    0.7914    0.0423 C   0  0  0  0  0  0  0  0  0  0  0  0
    7.7401    0.4314    1.2299 C   0  0  0  0  0  0  0  0  0  0  0  0
    6.3653    0.3598    1.3233 C   0  0  0  0  0  0  0  0  0  0  0  0
    5.5685    0.6473    0.2286 C   0  0  0  0  0  0  0  0  0  0  0  0
    1.7890   -1.5234    0.6750 C   0  0  0  0  0  0  0  0  0  0  0  0
    2.4920   -2.5816    0.1987 C   0  0  0  0  0  0  0  0  0  0  0  0
    3.8928   -2.5727    0.2355 N   0  0  0  0  0  0  0  0  0  0  0  0
    1.8476   -3.6498   -0.3163 N   0  0  0  0  0  0  0  0  0  0  0  0
    0.5005   -3.7080   -0.3786 C   0  0  0  0  0  0  0  0  0  0  0  0
   -0.2158   -2.6507    0.0963 N   0  0  0  0  0  0  0  0  0  0  0  0
    0.4146   -1.5846    0.6107 C   0  0  0  0  0  0  0  0  0  0  0  0
   -4.2647   -0.2763    0.4877 C   0  0  0  0  0  0  0  0  0  0  0  0
   -5.3325   -0.4675   -0.5652 C   0  0  0  0  0  0  0  0  0  0  0  0
   -7.8302   -1.2636    0.8249 H   0  0  0  0  0  0  0  0  0  0  0  0
   -9.1732   -0.3531    0.0901 H   0  0  0  0  0  0  0  0  0  0  0  0
   -7.9777   -1.0967   -1.0019 H   0  0  0  0  0  0  0  0  0  0  0  0
   -7.1792    1.0035    1.0620 H   0  0  0  0  0  0  0  0  0  0  0  0
   -8.0019    1.4909   -0.4419 H   0  0  0  0  0  0  0  0  0  0  0  0
   -5.5976    2.3930    0.2597 H   0  0  0  0  0  0  0  0  0  0  0  0
   -5.8221    2.6126   -1.5040 H   0  0  0  0  0  0  0  0  0  0  0  0
   -3.4924    2.6767   -1.0724 H   0  0  0  0  0  0  0  0  0  0  0  0
   -3.8091    1.0304   -1.8421 H   0  0  0  0  0  0  0  0  0  0  0  0
   -3.5316    1.6205    1.1064 H   0  0  0  0  0  0  0  0  0  0  0  0
   -1.8650    0.0077   -0.8366 H   0  0  0  0  0  0  0  0  0  0  0  0
   -1.4409    1.6060   -0.0801 H   0  0  0  0  0  0  0  0  0  0  0  0
   -2.0113   -0.9649    1.5127 H   0  0  0  0  0  0  0  0  0  0  0  0
   -1.5597    0.6459    2.1448 H   0  0  0  0  0  0  0  0  0  0  0  0
    3.4248    1.0392    2.2093 H   0  0  0  0  0  0  0  0  0  0  0  0
    4.1176   -0.5962    2.0263 H   0  0  0  0  0  0  0  0  0  0  0  0
    2.3063    0.8191   -0.7302 H   0  0  0  0  0  0  0  0  0  0  0  0
    3.4319    1.4734   -2.8800 H   0  0  0  0  0  0  0  0  0  0  0  0
    5.9183    1.5921   -3.0095 H   0  0  0  0  0  0  0  0  0  0  0  0
    7.9801    1.3694   -2.0022 H   0  0  0  0  0  0  0  0  0  0  0  0
    9.4047    0.8610   -0.0796 H   0  0  0  0  0  0  0  0  0  0  0  0
    8.3775    0.2033    2.0953 H   0  0  0  0  0  0  0  0  0  0  0  0
    5.9071    0.0884    2.2472 H   0  0  0  0  0  0  0  0  0  0  0  0
    4.3786   -2.8773    1.0952 H   0  0  0  0  0  0  0  0  0  0  0  0
    4.4583   -2.2692   -0.5750 H   0  0  0  0  0  0  0  0  0  0  0  0
   -0.0585   -4.5313   -0.7796 H   0  0  0  0  0  0  0  0  0  0  0  0
   -4.6746   -0.3294    1.5154 H   0  0  0  0  0  0  0  0  0  0  0  0
   -3.5917   -1.1610    0.3712 H   0  0  0  0  0  0  0  0  0  0  0  0
   -4.8065   -0.7439   -1.4989 H   0  0  0  0  0  0  0  0  0  0  0  0
   -5.9361   -1.3433   -0.2671 H   0  0  0  0  0  0  0  0  0  0  0  0
  1  2  1  0
  2  3  1  0
  3  4  1  0
  4  5  1  0
  5  6  1  0
  6  7  1  0
  7  8  1  0
  8  9  1  0
  9 10  1  0
 10 11  2  0
 11 12  1  0
 12 13  1  0
 13 14  2  0
 14 15  1  0
 15 16  2  0
 16 17  1  0
 17 18  2  0
 18 19  1  0
 19 20  2  0
 20 21  1  0
 21 22  2  0
 11 23  1  0
 23 24  2  0
 24 25  1  0
 24 26  1  0
 26 27  2  0
 27 28  1  0
 28 29  2  0
  6 30  1  0
 30 31  1  0
 31  3  1  0
 29  9  1  0
 22 13  1  0
 29 23  1  0
 22 17  1  0
  1 32  1  0
  1 33  1  0
  1 34  1  0
  2 35  1  0
  2 36  1  0
  4 37  1  0
  4 38  1  0
  5 39  1  0
  5 40  1  0
  6 41  1  0
  7 42  1  0
  7 43  1  0
  8 44  1  0
  8 45  1  0
 12 46  1  0
 12 47  1  0
 14 48  1  0
 15 49  1  0
 16 50  1  0
 18 51  1  0
 19 52  1  0
 20 53  1  0
 21 54  1  0
 25 55  1  0
 25 56  1  0
 27 57  1  0
 30 58  1  0
 30 59  1  0
 31 60  1  0
 31 61  1  0
M  END
$$$$
