@<TRIPOS>MOLECULE
*****
 55 59 0 0 0
SMALL
GASTEIGER

@<TRIPOS>ATOM
      1 C          -5.2654   -3.9792    0.8309 C.3     1  UNL1        0.0110
      2 N          -4.9775   -2.7383    0.0974 N.am    1  UNL1       -0.2432
      3 C          -5.8611   -1.9286   -0.6201 C.2     1  UNL1        0.2417
      4 O          -7.1081   -2.1294   -0.7693 O.2     1  UNL1       -0.2732
      5 C          -5.1064   -0.7947   -1.1805 C.3     1  UNL1        0.1061
      6 N          -3.7448   -1.0065   -0.7409 N.ar    1  UNL1       -0.2698
      7 C          -3.6891   -2.1240   -0.0101 C.ar    1  UNL1        0.2096
      8 N          -2.4789   -2.5060    0.5052 N.ar    1  UNL1       -0.1938
      9 C          -1.3741   -1.7952    0.2945 C.ar    1  UNL1        0.1883
     10 N          -0.1110   -1.9670    0.6864 N.ar    1  UNL1       -0.1942
     11 C           0.6565   -0.9515    0.2045 C.ar    1  UNL1        0.2011
     12 N           2.0439   -0.7800    0.4035 N.pl3   1  UNL1       -0.2994
     13 C           2.5658   -0.0363    1.5202 C.3     1  UNL1        0.0149
     14 C           3.6749   -0.8149    2.1936 C.3     1  UNL1       -0.0357
     15 C           4.6542   -1.4051    1.2254 C.3     1  UNL1       -0.0349
     16 C           4.3624   -0.9239   -0.2010 C.3     1  UNL1        0.0208
     17 N           5.2980   -1.5457   -1.1140 N.3     1  UNL1       -0.3259
     18 C           2.9654   -1.3649   -0.5360 C.3     1  UNL1        0.0300
     19 N          -0.1591   -0.1371   -0.5007 N.ar    1  UNL1       -0.3017
     20 C           0.2189    1.0893   -1.2050 C.3     1  UNL1        0.0523
     21 C           0.0994    2.2617   -0.3127 C.ar    1  UNL1       -0.0133
     22 C          -0.3173    2.0878    0.9808 C.ar    1  UNL1       -0.0210
     23 C          -0.4427    3.1585    1.8500 C.ar    1  UNL1        0.1237
     24 F          -0.8504    2.9792    3.1118 F       1  UNL1       -0.2055
     25 C          -0.1290    4.4165    1.3582 C.ar    1  UNL1       -0.0259
     26 C           0.2830    4.5707    0.0716 C.ar    1  UNL1       -0.0471
     27 C           0.4110    3.5012   -0.8055 C.ar    1  UNL1        0.0598
     28 C           0.8612    3.7659   -2.1699 C.3     1  UNL1        0.4177
     29 F           1.0847    5.1156   -2.3273 F       1  UNL1       -0.1659
     30 F           2.0182    3.1033   -2.5114 F       1  UNL1       -0.1659
     31 F          -0.1572    3.4166   -3.0537 F       1  UNL1       -0.1659
     32 C          -1.4151   -0.6424   -0.4557 C.ar    1  UNL1        0.1548
     33 C          -2.6313   -0.2528   -0.9772 C.ar    1  UNL1        0.2816
     34 O          -2.7332    0.7784   -1.6629 O.2     1  UNL1       -0.2652
     35 H          -4.3803   -4.6390    0.7066 H       1  UNL1        0.0433
     36 H          -6.1988   -4.4114    0.4518 H       1  UNL1        0.0433
     37 H          -5.3044   -3.6852    1.9012 H       1  UNL1        0.0433
     38 H          -5.1232   -0.8178   -2.3077 H       1  UNL1        0.0590
     39 H          -5.5108    0.1753   -0.8162 H       1  UNL1        0.0590
     40 H           1.7956    0.1531    2.2948 H       1  UNL1        0.0464
     41 H           2.9929    0.9360    1.1948 H       1  UNL1        0.0464
     42 H           4.2238   -0.1203    2.8719 H       1  UNL1        0.0281
     43 H           3.2516   -1.6427    2.8307 H       1  UNL1        0.0281
     44 H           4.5631   -2.5103    1.1973 H       1  UNL1        0.0281
     45 H           5.7113   -1.1652    1.4809 H       1  UNL1        0.0281
     46 H           4.4433    0.1764   -0.2341 H       1  UNL1        0.0474
     47 H           4.9310   -2.3981   -1.5618 H       1  UNL1        0.1185
     48 H           5.7463   -0.8941   -1.7682 H       1  UNL1        0.1185
     49 H           2.9414   -2.4811   -0.3876 H       1  UNL1        0.0480
     50 H           2.7010   -1.1934   -1.5890 H       1  UNL1        0.0480
     51 H           1.2843    0.9705   -1.4857 H       1  UNL1        0.0542
     52 H          -0.4492    1.1540   -2.0864 H       1  UNL1        0.0542
     53 H          -0.5703    1.1056    1.3914 H       1  UNL1        0.0650
     54 H          -0.2160    5.2853    2.0150 H       1  UNL1        0.0646
     55 H           0.5216    5.5809   -0.2798 H       1  UNL1        0.0624
@<TRIPOS>BOND
     1     1     2    1
     2     2     3   am
     3     3     4    2
     4     3     5    1
     5     5     6    1
     6     6     7   ar
     7     7     8   ar
     8     8     9   ar
     9     9    10   ar
    10    10    11   ar
    11    11    12    1
    12    12    13    1
    13    13    14    1
    14    14    15    1
    15    15    16    1
    16    16    17    1
    17    16    18    1
    18    11    19   ar
    19    19    20    1
    20    20    21    1
    21    21    22   ar
    22    22    23   ar
    23    23    24    1
    24    23    25   ar
    25    25    26   ar
    26    26    27   ar
    27    27    28    1
    28    28    29    1
    29    28    30    1
    30    28    31    1
    31    19    32   ar
    32    32    33   ar
    33    33    34    2
    34     7     2    1
    35    32     9   ar
    36    33     6   ar
    37    18    12    1
    38    27    21   ar
    39     1    35    1
    40     1    36    1
    41     1    37    1
    42     5    38    1
    43     5    39    1
    44    13    40    1
    45    13    41    1
    46    14    42    1
    47    14    43    1
    48    15    44    1
    49    15    45    1
    50    16    46    1
    51    17    47    1
    52    17    48    1
    53    18    49    1
    54    18    50    1
    55    20    51    1
    56    20    52    1
    57    22    53    1
    58    25    54    1
    59    26    55    1
