
     RDKit          3D

 55 59  0  0  0  0  0  0  0  0999 V2000
   -5.2654   -3.9792    0.8309 C   0  0  0  0  0  0  0  0  0  0  0  0
   -4.9775   -2.7383    0.0974 N   0  0  0  0  0  0  0  0  0  0  0  0
   -5.8611   -1.9286   -0.6201 C   0  0  0  0  0  0  0  0  0  0  0  0
   -7.1081   -2.1294   -0.7693 O   0  0  0  0  0  0  0  0  0  0  0  0
   -5.1064   -0.7947   -1.1805 C   0  0  0  0  0  0  0  0  0  0  0  0
   -3.7448   -1.0065   -0.7409 N   0  0  0  0  0  0  0  0  0  0  0  0
   -3.6891   -2.1240   -0.0101 C   0  0  0  0  0  0  0  0  0  0  0  0
   -2.4789   -2.5060    0.5052 N   0  0  0  0  0  0  0  0  0  0  0  0
   -1.3741   -1.7952    0.2945 C   0  0  0  0  0  0  0  0  0  0  0  0
   -0.1110   -1.9670    0.6864 N   0  0  0  0  0  0  0  0  0  0  0  0
    0.6565   -0.9515    0.2045 C   0  0  0  0  0  0  0  0  0  0  0  0
    2.0439   -0.7800    0.4035 N   0  0  0  0  0  0  0  0  0  0  0  0
    2.5658   -0.0363    1.5202 C   0  0  0  0  0  0  0  0  0  0  0  0
    3.6749   -0.8149    2.1936 C   0  0  0  0  0  0  0  0  0  0  0  0
    4.6542   -1.4051    1.2254 C   0  0  0  0  0  0  0  0  0  0  0  0
    4.3624   -0.9239   -0.2010 C   0  0  1  0  0  0  0  0  0  0  0  0
    5.2980   -1.5457   -1.1140 N   0  0  0  0  0  0  0  0  0  0  0  0
    2.9654   -1.3649   -0.5360 C   0  0  0  0  0  0  0  0  0  0  0  0
   -0.1591   -0.1371   -0.5007 N   0  0  0  0  0  0  0  0  0  0  0  0
    0.2189    1.0893   -1.2050 C   0  0  0  0  0  0  0  0  0  0  0  0
    0.0994    2.2617   -0.3127 C   0  0  0  0  0  0  0  0  0  0  0  0
   -0.3173    2.0878    0.9808 C   0  0  0  0  0  0  0  0  0  0  0  0
   -0.4427    3.1585    1.8500 C   0  0  0  0  0  0  0  0  0  0  0  0
   -0.8504    2.9792    3.1118 F   0  0  0  0  0  0  0  0  0  0  0  0
   -0.1290    4.4165    1.3582 C   0  0  0  0  0  0  0  0  0  0  0  0
    0.2830    4.5707    0.0716 C   0  0  0  0  0  0  0  0  0  0  0  0
    0.4110    3.5012   -0.8055 C   0  0  0  0  0  0  0  0  0  0  0  0
    0.8612    3.7659   -2.1699 C   0  0  0  0  0  0  0  0  0  0  0  0
    1.0847    5.1156   -2.3273 F   0  0  0  0  0  0  0  0  0  0  0  0
    2.0182    3.1033   -2.5114 F   0  0  0  0  0  0  0  0  0  0  0  0
   -0.1572    3.4166   -3.0537 F   0  0  0  0  0  0  0  0  0  0  0  0
   -1.4151   -0.6424   -0.4557 C   0  0  0  0  0  0  0  0  0  0  0  0
   -2.6313   -0.2528   -0.9772 C   0  0  0  0  0  0  0  0  0  0  0  0
   -2.7332    0.7784   -1.6629 O   0  0  0  0  0  0  0  0  0  0  0  0
   -4.3803   -4.6390    0.7066 H   0  0  0  0  0  0  0  0  0  0  0  0
   -6.1988   -4.4114    0.4518 H   0  0  0  0  0  0  0  0  0  0  0  0
   -5.3044   -3.6852    1.9012 H   0  0  0  0  0  0  0  0  0  0  0  0
   -5.1232   -0.8178   -2.3077 H   0  0  0  0  0  0  0  0  0  0  0  0
   -5.5108    0.1753   -0.8162 H   0  0  0  0  0  0  0  0  0  0  0  0
    1.7956    0.1531    2.2948 H   0  0  0  0  0  0  0  0  0  0  0  0
    2.9929    0.9360    1.1948 H   0  0  0  0  0  0  0  0  0  0  0  0
    4.2238   -0.1203    2.8719 H   0  0  0  0  0  0  0  0  0  0  0  0
    3.2516   -1.6427    2.8307 H   0  0  0  0  0  0  0  0  0  0  0  0
    4.5631   -2.5103    1.1973 H   0  0  0  0  0  0  0  0  0  0  0  0
    5.7113   -1.1652    1.4809 H   0  0  0  0  0  0  0  0  0  0  0  0
    4.4433    0.1764   -0.2341 H   0  0  0  0  0  0  0  0  0  0  0  0
    4.9310   -2.3981   -1.5618 H   0  0  0  0  0  0  0  0  0  0  0  0
    5.7463   -0.8941   -1.7682 H   0  0  0  0  0  0  0  0  0  0  0  0
    2.9414   -2.4811   -0.3876 H   0  0  0  0  0  0  0  0  0  0  0  0
    2.7010   -1.1934   -1.5890 H   0  0  0  0  0  0  0  0  0  0  0  0
    1.2843    0.9705   -1.4857 H   0  0  0  0  0  0  0  0  0  0  0  0
   -0.4492    1.1540   -2.0864 H   0  0  0  0  0  0  0  0  0  0  0  0
   -0.5703    1.1056    1.3914 H   0  0  0  0  0  0  0  0  0  0  0  0
   -0.2160    5.2853    2.0150 H   0  0  0  0  0  0  0  0  0  0  0  0
    0.5216    5.5809   -0.2798 H   0  0  0  0  0  0  0  0  0  0  0  0
  1  2  1  0
  2  3  1  0
  3  4  2  0
  3  5  1  0
  5  6  1  0
  6  7  1  0
  7  8  2  0
  8  9  1  0
  9 10  1  0
 10 11  2  0
 11 12  1  0
 12 13  1  0
 13 14  1  0
 14 15  1  0
 15 16  1  0
 16 17  1  0
 16 18  1  0
 11 19  1  0
 19 20  1  0
 20 21  1  0
 21 22  2  0
 22 23  1  0
 23 24  1  0
 23 25  2  0
 25 26  1  0
 26 27  2  0
 27 28  1  0
 28 29  1  0
 28 30  1  0
 28 31  1  0
 19 32  1  0
 32 33  1  0
 33 34  2  0
  7  2  1  0
 32  9  2  0
 33  6  1  0
 18 12  1  0
 27 21  1  0
  1 35  1  0
  1 36  1  0
  1 37  1  0
  5 38  1  0
  5 39  1  0
 13 40  1  0
 13 41  1  0
 14 42  1  0
 14 43  1  0
 15 44  1  0
 15 45  1  0
 16 46  1  1
 17 47  1  0
 17 48  1  0
 18 49  1  0
 18 50  1  0
 20 51  1  0
 20 52  1  0
 22 53  1  0
 25 54  1  0
 26 55  1  0
M  END
$$$$
