@<TRIPOS>MOLECULE
*****
 61 68 0 0 0
SMALL
GASTEIGER

@<TRIPOS>ATOM
      1 C           4.6558   -2.0870   -0.9703 C.3     1  UNL1       -0.0155
      2 N           3.9928   -0.7735   -0.9693 N.3     1  UNL1       -0.3136
      3 C           3.1194   -0.7383    0.1607 C.3     1  UNL1        0.0423
      4 C           2.0841   -1.8408    0.0690 C.3     1  UNL1        0.0107
      5 C           1.0496   -1.6703    1.1154 C.3     1  UNL1        0.1402
      6 O           1.1310   -0.5999    1.9328 O.3     1  UNL1       -0.3282
      7 C           1.4486    0.6321    1.4054 C.3     1  UNL1        0.1741
      8 C           2.2056    1.3937    2.4609 C.3     1  UNL1       -0.0136
      9 C           2.3547    0.5717    0.1859 C.3     1  UNL1        0.1214
     10 O           1.6775    0.7943   -1.0034 O.3     1  UNL1       -0.3735
     11 C           2.1867    1.8876   -1.7063 C.3     1  UNL1        0.0371
     12 N           0.2300    1.2522    0.9284 N.ar    1  UNL1       -0.3070
     13 C          -0.0258    2.5876    0.8919 C.ar    1  UNL1        0.0527
     14 C           0.7107    3.6933    1.2421 C.ar    1  UNL1       -0.0375
     15 C           0.1274    4.9415    1.0605 C.ar    1  UNL1       -0.0598
     16 C          -1.1415    5.0764    0.5483 C.ar    1  UNL1       -0.0611
     17 C          -1.8522    3.9612    0.2070 C.ar    1  UNL1       -0.0520
     18 C          -1.3068    2.7003    0.3726 C.ar    1  UNL1        0.0081
     19 C          -1.8227    1.4523    0.0932 C.ar    1  UNL1        0.0151
     20 C          -3.0231    1.0361   -0.4385 C.ar    1  UNL1       -0.0078
     21 C          -3.2709   -0.3189   -0.6297 C.ar    1  UNL1        0.0518
     22 C          -2.2978   -1.2273   -0.2796 C.ar    1  UNL1        0.0221
     23 C          -2.1833   -2.6136   -0.3287 C.ar    1  UNL1        0.0085
     24 C          -3.0192   -3.5903   -0.7482 C.ar    1  UNL1       -0.0520
     25 C          -2.5976   -4.9290   -0.6657 C.ar    1  UNL1       -0.0611
     26 C          -1.3547   -5.2107   -0.1643 C.ar    1  UNL1       -0.0598
     27 C          -0.5034   -4.2126    0.2631 C.ar    1  UNL1       -0.0375
     28 C          -0.9167   -2.8890    0.1831 C.ar    1  UNL1        0.0524
     29 N          -0.2929   -1.7792    0.5228 N.ar    1  UNL1       -0.3115
     30 C          -1.1090   -0.7687    0.2507 C.ar    1  UNL1        0.0774
     31 C          -0.8367    0.5658    0.4518 C.ar    1  UNL1        0.0772
     32 C          -4.6041   -0.4790   -1.1861 C.2     1  UNL1        0.2453
     33 O          -5.2610   -1.4717   -1.5213 O.2     1  UNL1       -0.2702
     34 N          -5.1538    0.8488   -1.3222 N.am    1  UNL1       -0.3072
     35 C          -4.2039    1.8349   -0.8984 C.3     1  UNL1        0.0385
     36 H           4.9276   -2.3588    0.0775 H       1  UNL1        0.0388
     37 H           4.0160   -2.8764   -1.3674 H       1  UNL1        0.0388
     38 H           5.6045   -2.0445   -1.5353 H       1  UNL1        0.0388
     39 H           3.4079   -0.7511   -1.8287 H       1  UNL1        0.1220
     40 H           3.6254   -0.8409    1.1351 H       1  UNL1        0.0489
     41 H           2.5586   -2.8417    0.0727 H       1  UNL1        0.0325
     42 H           1.6231   -1.7369   -0.9529 H       1  UNL1        0.0325
     43 H           1.1146   -2.5811    1.7842 H       1  UNL1        0.0839
     44 H           2.6437    0.5861    3.1627 H       1  UNL1        0.0277
     45 H           1.5496    1.9167    3.1775 H       1  UNL1        0.0277
     46 H           3.1120    1.8930    2.1348 H       1  UNL1        0.0277
     47 H           3.1337    1.3587    0.2542 H       1  UNL1        0.0660
     48 H           1.6200    2.0335   -2.6473 H       1  UNL1        0.0524
     49 H           3.2352    1.6720   -2.0272 H       1  UNL1        0.0524
     50 H           2.1885    2.7852   -1.0687 H       1  UNL1        0.0524
     51 H           1.7040    3.5852    1.6228 H       1  UNL1        0.0638
     52 H           0.7126    5.8033    1.3387 H       1  UNL1        0.0618
     53 H          -1.6132    6.0396    0.3996 H       1  UNL1        0.0618
     54 H          -2.8640    4.0076   -0.2020 H       1  UNL1        0.0624
     55 H          -3.9842   -3.3778   -1.1386 H       1  UNL1        0.0624
     56 H          -3.3048   -5.6678   -1.0144 H       1  UNL1        0.0618
     57 H          -1.0217   -6.2288   -0.0964 H       1  UNL1        0.0618
     58 H           0.4823   -4.4347    0.6609 H       1  UNL1        0.0638
     59 H          -6.1049    1.0957   -1.6756 H       1  UNL1        0.1493
     60 H          -3.9190    2.5261   -1.7214 H       1  UNL1        0.0512
     61 H          -4.6443    2.4080   -0.0585 H       1  UNL1        0.0512
@<TRIPOS>BOND
     1     1     2    1
     2     2     3    1
     3     3     4    1
     4     4     5    1
     5     5     6    1
     6     6     7    1
     7     7     8    1
     8     7     9    1
     9     9    10    1
    10    10    11    1
    11     7    12    1
    12    12    13   ar
    13    13    14   ar
    14    14    15   ar
    15    15    16   ar
    16    16    17   ar
    17    17    18   ar
    18    18    19   ar
    19    19    20   ar
    20    20    21   ar
    21    21    22   ar
    22    22    23   ar
    23    23    24   ar
    24    24    25   ar
    25    25    26   ar
    26    26    27   ar
    27    27    28   ar
    28    28    29   ar
    29    29    30   ar
    30    30    31   ar
    31    21    32    1
    32    32    33    2
    33    32    34   am
    34    34    35    1
    35     9     3    1
    36    31    12   ar
    37    29     5    1
    38    18    13   ar
    39    31    19   ar
    40    35    20    1
    41    30    22   ar
    42    28    23   ar
    43     1    36    1
    44     1    37    1
    45     1    38    1
    46     2    39    1
    47     3    40    1
    48     4    41    1
    49     4    42    1
    50     5    43    1
    51     8    44    1
    52     8    45    1
    53     8    46    1
    54     9    47    1
    55    11    48    1
    56    11    49    1
    57    11    50    1
    58    14    51    1
    59    15    52    1
    60    16    53    1
    61    17    54    1
    62    24    55    1
    63    25    56    1
    64    26    57    1
    65    27    58    1
    66    34    59    1
    67    35    60    1
    68    35    61    1
