@<TRIPOS>MOLECULE
*****
 63 69 0 0 0
SMALL
GASTEIGER

@<TRIPOS>ATOM
      1 C          -0.8524   -4.2765   -1.1285 C.3     1  UNL1       -0.0610
      2 C           0.5379   -4.0265   -0.5806 C.3     1  UNL1       -0.0287
      3 C           1.0956   -5.3786   -0.1826 C.3     1  UNL1       -0.0610
      4 C           0.5207   -3.1809    0.6872 C.3     1  UNL1        0.0262
      5 N          -0.0487   -1.8902    0.5322 N.ar    1  UNL1       -0.3393
      6 C          -1.3896   -1.6042    0.6625 C.ar    1  UNL1        0.0502
      7 C          -2.4816   -2.3981    0.9608 C.ar    1  UNL1       -0.0358
      8 C          -3.7668   -1.8519    1.0473 C.ar    1  UNL1       -0.0385
      9 C          -3.9727   -0.5207    0.8384 C.ar    1  UNL1        0.0343
     10 N          -5.2530    0.0763    0.9309 N.pl3   1  UNL1       -0.2836
     11 C          -5.4043    1.4228    0.5565 C.ar    1  UNL1        0.2194
     12 N          -5.8927    1.7276   -0.6588 N.ar    1  UNL1       -0.2227
     13 C          -6.0195    3.0074   -1.0358 C.ar    1  UNL1        0.0326
     14 C          -5.6580    4.0290   -0.1998 C.ar    1  UNL1       -0.0253
     15 C          -5.1510    3.7127    1.0628 C.ar    1  UNL1        0.0326
     16 N          -5.0446    2.3985    1.3915 N.ar    1  UNL1       -0.2227
     17 C          -2.8587    0.2662    0.5383 C.ar    1  UNL1       -0.0307
     18 C          -1.5994   -0.2680    0.4543 C.ar    1  UNL1        0.0097
     19 C          -0.3639    0.2930    0.1904 C.ar    1  UNL1        0.0133
     20 C           0.0306    1.5917   -0.0694 C.ar    1  UNL1       -0.0079
     21 C           1.3464    1.9466   -0.2808 C.ar    1  UNL1        0.0501
     22 C           2.2575    0.9294   -0.2208 C.ar    1  UNL1        0.0029
     23 C           1.8712   -0.3880    0.0345 C.ar    1  UNL1       -0.0144
     24 C           0.5536   -0.7331    0.2486 C.ar    1  UNL1        0.0543
     25 C           2.9235   -1.3989   -0.1023 C.3     1  UNL1       -0.0196
     26 C           4.1412   -1.0418    0.6930 C.3     1  UNL1       -0.0040
     27 C           4.6359    0.2461    0.1389 C.ar    1  UNL1        0.0710
     28 N           5.8363    0.7762   -0.0680 N.ar    1  UNL1       -0.1758
     29 N           5.7301    2.0112   -0.4856 N.ar    1  UNL1       -0.2736
     30 C           6.8078    2.9164   -0.8138 C.3     1  UNL1        0.0302
     31 C           4.3961    2.3416   -0.5709 C.ar    1  UNL1        0.0332
     32 C           3.7023    1.2415   -0.1832 C.ar    1  UNL1        0.0238
     33 C           1.4053    3.3746   -0.4839 C.2     1  UNL1        0.2453
     34 O           2.3338    4.1461   -0.6999 O.2     1  UNL1       -0.2702
     35 N           0.0552    3.8917   -0.3917 N.am    1  UNL1       -0.3072
     36 C          -0.8426    2.8016   -0.1575 C.3     1  UNL1        0.0385
     37 H          -1.4764   -4.9105   -0.5043 H       1  UNL1        0.0233
     38 H          -0.6699   -4.8778   -2.0715 H       1  UNL1        0.0233
     39 H          -1.2831   -3.3371   -1.4825 H       1  UNL1        0.0233
     40 H           1.1040   -3.5875   -1.4069 H       1  UNL1        0.0313
     41 H           0.7667   -5.5816    0.8669 H       1  UNL1        0.0233
     42 H           0.7089   -6.1945   -0.8200 H       1  UNL1        0.0233
     43 H           2.2249   -5.3623   -0.1779 H       1  UNL1        0.0233
     44 H           1.3700   -3.3079    1.3466 H       1  UNL1        0.0494
     45 H          -0.2744   -3.7714    1.2940 H       1  UNL1        0.0494
     46 H          -2.4119   -3.4602    1.1471 H       1  UNL1        0.0639
     47 H          -4.6256   -2.4657    1.2797 H       1  UNL1        0.0637
     48 H          -6.0550   -0.4684    1.2663 H       1  UNL1        0.1550
     49 H          -6.4144    3.2232   -2.0144 H       1  UNL1        0.0831
     50 H          -5.7373    5.0675   -0.4503 H       1  UNL1        0.0648
     51 H          -4.8485    4.4840    1.7628 H       1  UNL1        0.0831
     52 H          -3.0334    1.3071    0.3750 H       1  UNL1        0.0643
     53 H           3.3058   -1.1869   -1.1891 H       1  UNL1        0.0318
     54 H           2.7030   -2.4275   -0.1734 H       1  UNL1        0.0318
     55 H           3.8724   -0.7908    1.7652 H       1  UNL1        0.0332
     56 H           4.9075   -1.8141    0.6868 H       1  UNL1        0.0332
     57 H           6.5676    3.9731   -0.6463 H       1  UNL1        0.0473
     58 H           7.1644    2.7838   -1.8554 H       1  UNL1        0.0473
     59 H           7.6887    2.6950   -0.1391 H       1  UNL1        0.0473
     60 H           4.1116    3.2873   -0.9122 H       1  UNL1        0.0832
     61 H          -0.2529    4.8831   -0.4762 H       1  UNL1        0.1493
     62 H          -1.5939    2.6841   -0.9372 H       1  UNL1        0.0512
     63 H          -1.4004    2.9651    0.8124 H       1  UNL1        0.0512
@<TRIPOS>BOND
     1     1     2    1
     2     2     3    1
     3     2     4    1
     4     4     5    1
     5     5     6   ar
     6     6     7   ar
     7     7     8   ar
     8     8     9   ar
     9     9    10    1
    10    10    11    1
    11    11    12   ar
    12    12    13   ar
    13    13    14   ar
    14    14    15   ar
    15    15    16   ar
    16     9    17   ar
    17    17    18   ar
    18    18    19   ar
    19    19    20   ar
    20    20    21   ar
    21    21    22   ar
    22    22    23   ar
    23    23    24   ar
    24    23    25    1
    25    25    26    1
    26    26    27    1
    27    27    28   ar
    28    28    29   ar
    29    29    30    1
    30    29    31   ar
    31    31    32   ar
    32    21    33    1
    33    33    34    2
    34    33    35   am
    35    35    36    1
    36    24     5   ar
    37    32    27   ar
    38    18     6   ar
    39    24    19   ar
    40    16    11   ar
    41    36    20    1
    42    32    22    1
    43     1    37    1
    44     1    38    1
    45     1    39    1
    46     2    40    1
    47     3    41    1
    48     3    42    1
    49     3    43    1
    50     4    44    1
    51     4    45    1
    52     7    46    1
    53     8    47    1
    54    10    48    1
    55    13    49    1
    56    14    50    1
    57    15    51    1
    58    17    52    1
    59    25    53    1
    60    25    54    1
    61    26    55    1
    62    26    56    1
    63    30    57    1
    64    30    58    1
    65    30    59    1
    66    31    60    1
    67    35    61    1
    68    36    62    1
    69    36    63    1
