
     RDKit          3D

 63 69  0  0  0  0  0  0  0  0999 V2000
   -0.8524   -4.2765   -1.1285 C   0  0  0  0  0  0  0  0  0  0  0  0
    0.5379   -4.0265   -0.5806 C   0  0  0  0  0  0  0  0  0  0  0  0
    1.0956   -5.3786   -0.1826 C   0  0  0  0  0  0  0  0  0  0  0  0
    0.5207   -3.1809    0.6872 C   0  0  0  0  0  0  0  0  0  0  0  0
   -0.0487   -1.8902    0.5322 N   0  0  0  0  0  0  0  0  0  0  0  0
   -1.3896   -1.6042    0.6625 C   0  0  0  0  0  0  0  0  0  0  0  0
   -2.4816   -2.3981    0.9608 C   0  0  0  0  0  0  0  0  0  0  0  0
   -3.7668   -1.8519    1.0473 C   0  0  0  0  0  0  0  0  0  0  0  0
   -3.9727   -0.5207    0.8384 C   0  0  0  0  0  0  0  0  0  0  0  0
   -5.2530    0.0763    0.9309 N   0  0  0  0  0  0  0  0  0  0  0  0
   -5.4043    1.4228    0.5565 C   0  0  0  0  0  0  0  0  0  0  0  0
   -5.8927    1.7276   -0.6588 N   0  0  0  0  0  0  0  0  0  0  0  0
   -6.0195    3.0074   -1.0358 C   0  0  0  0  0  0  0  0  0  0  0  0
   -5.6580    4.0290   -0.1998 C   0  0  0  0  0  0  0  0  0  0  0  0
   -5.1510    3.7127    1.0628 C   0  0  0  0  0  0  0  0  0  0  0  0
   -5.0446    2.3985    1.3915 N   0  0  0  0  0  0  0  0  0  0  0  0
   -2.8587    0.2662    0.5383 C   0  0  0  0  0  0  0  0  0  0  0  0
   -1.5994   -0.2680    0.4543 C   0  0  0  0  0  0  0  0  0  0  0  0
   -0.3639    0.2930    0.1904 C   0  0  0  0  0  0  0  0  0  0  0  0
    0.0306    1.5917   -0.0694 C   0  0  0  0  0  0  0  0  0  0  0  0
    1.3464    1.9466   -0.2808 C   0  0  0  0  0  0  0  0  0  0  0  0
    2.2575    0.9294   -0.2208 C   0  0  0  0  0  0  0  0  0  0  0  0
    1.8712   -0.3880    0.0345 C   0  0  0  0  0  0  0  0  0  0  0  0
    0.5536   -0.7331    0.2486 C   0  0  0  0  0  0  0  0  0  0  0  0
    2.9235   -1.3989   -0.1023 C   0  0  0  0  0  0  0  0  0  0  0  0
    4.1412   -1.0418    0.6930 C   0  0  0  0  0  0  0  0  0  0  0  0
    4.6359    0.2461    0.1389 C   0  0  0  0  0  0  0  0  0  0  0  0
    5.8363    0.7762   -0.0680 N   0  0  0  0  0  0  0  0  0  0  0  0
    5.7301    2.0112   -0.4856 N   0  0  0  0  0  0  0  0  0  0  0  0
    6.8078    2.9164   -0.8138 C   0  0  0  0  0  0  0  0  0  0  0  0
    4.3961    2.3416   -0.5709 C   0  0  0  0  0  0  0  0  0  0  0  0
    3.7023    1.2415   -0.1832 C   0  0  0  0  0  0  0  0  0  0  0  0
    1.4053    3.3746   -0.4839 C   0  0  0  0  0  0  0  0  0  0  0  0
    2.3338    4.1461   -0.6999 O   0  0  0  0  0  0  0  0  0  0  0  0
    0.0552    3.8917   -0.3917 N   0  0  0  0  0  0  0  0  0  0  0  0
   -0.8426    2.8016   -0.1575 C   0  0  0  0  0  0  0  0  0  0  0  0
   -1.4764   -4.9105   -0.5043 H   0  0  0  0  0  0  0  0  0  0  0  0
   -0.6699   -4.8778   -2.0715 H   0  0  0  0  0  0  0  0  0  0  0  0
   -1.2831   -3.3371   -1.4825 H   0  0  0  0  0  0  0  0  0  0  0  0
    1.1040   -3.5875   -1.4069 H   0  0  0  0  0  0  0  0  0  0  0  0
    0.7667   -5.5816    0.8669 H   0  0  0  0  0  0  0  0  0  0  0  0
    0.7089   -6.1945   -0.8200 H   0  0  0  0  0  0  0  0  0  0  0  0
    2.2249   -5.3623   -0.1779 H   0  0  0  0  0  0  0  0  0  0  0  0
    1.3700   -3.3079    1.3466 H   0  0  0  0  0  0  0  0  0  0  0  0
   -0.2744   -3.7714    1.2940 H   0  0  0  0  0  0  0  0  0  0  0  0
   -2.4119   -3.4602    1.1471 H   0  0  0  0  0  0  0  0  0  0  0  0
   -4.6256   -2.4657    1.2797 H   0  0  0  0  0  0  0  0  0  0  0  0
   -6.0550   -0.4684    1.2663 H   0  0  0  0  0  0  0  0  0  0  0  0
   -6.4144    3.2232   -2.0144 H   0  0  0  0  0  0  0  0  0  0  0  0
   -5.7373    5.0675   -0.4503 H   0  0  0  0  0  0  0  0  0  0  0  0
   -4.8485    4.4840    1.7628 H   0  0  0  0  0  0  0  0  0  0  0  0
   -3.0334    1.3071    0.3750 H   0  0  0  0  0  0  0  0  0  0  0  0
    3.3058   -1.1869   -1.1891 H   0  0  0  0  0  0  0  0  0  0  0  0
    2.7030   -2.4275   -0.1734 H   0  0  0  0  0  0  0  0  0  0  0  0
    3.8724   -0.7908    1.7652 H   0  0  0  0  0  0  0  0  0  0  0  0
    4.9075   -1.8141    0.6868 H   0  0  0  0  0  0  0  0  0  0  0  0
    6.5676    3.9731   -0.6463 H   0  0  0  0  0  0  0  0  0  0  0  0
    7.1644    2.7838   -1.8554 H   0  0  0  0  0  0  0  0  0  0  0  0
    7.6887    2.6950   -0.1391 H   0  0  0  0  0  0  0  0  0  0  0  0
    4.1116    3.2873   -0.9122 H   0  0  0  0  0  0  0  0  0  0  0  0
   -0.2529    4.8831   -0.4762 H   0  0  0  0  0  0  0  0  0  0  0  0
   -1.5939    2.6841   -0.9372 H   0  0  0  0  0  0  0  0  0  0  0  0
   -1.4004    2.9651    0.8124 H   0  0  0  0  0  0  0  0  0  0  0  0
  1  2  1  0
  2  3  1  0
  2  4  1  0
  4  5  1  0
  5  6  1  0
  6  7  2  0
  7  8  1  0
  8  9  2  0
  9 10  1  0
 10 11  1  0
 11 12  2  0
 12 13  1  0
 13 14  2  0
 14 15  1  0
 15 16  2  0
  9 17  1  0
 17 18  2  0
 18 19  1  0
 19 20  2  0
 20 21  1  0
 21 22  2  0
 22 23  1  0
 23 24  2  0
 23 25  1  0
 25 26  1  0
 26 27  1  0
 27 28  2  0
 28 29  1  0
 29 30  1  0
 29 31  1  0
 31 32  2  0
 21 33  1  0
 33 34  2  0
 33 35  1  0
 35 36  1  0
 24  5  1  0
 32 27  1  0
 18  6  1  0
 24 19  1  0
 16 11  1  0
 36 20  1  0
 32 22  1  0
  1 37  1  0
  1 38  1  0
  1 39  1  0
  2 40  1  0
  3 41  1  0
  3 42  1  0
  3 43  1  0
  4 44  1  0
  4 45  1  0
  7 46  1  0
  8 47  1  0
 10 48  1  0
 13 49  1  0
 14 50  1  0
 15 51  1  0
 17 52  1  0
 25 53  1  0
 25 54  1  0
 26 55  1  0
 26 56  1  0
 30 57  1  0
 30 58  1  0
 30 59  1  0
 31 60  1  0
 35 61  1  0
 36 62  1  0
 36 63  1  0
M  END
$$$$
