
     RDKit          3D

 60 64  0  0  0  0  0  0  0  0999 V2000
    8.6282    1.1801   -2.2726 C   0  0  0  0  0  0  0  0  0  0  0  0
    7.2671    1.0388   -2.6251 O   0  0  0  0  0  0  0  0  0  0  0  0
    6.4383    0.3745   -1.7344 C   0  0  0  0  0  0  0  0  0  0  0  0
    5.0810    0.2029   -2.0274 C   0  0  0  0  0  0  0  0  0  0  0  0
    4.2871   -0.4381   -1.1652 N   0  0  0  0  0  0  0  0  0  0  0  0
    4.6950   -0.9525    0.0048 C   0  0  0  0  0  0  0  0  0  0  0  0
    3.8538   -1.6085    0.8735 C   0  0  0  0  0  0  0  0  0  0  0  0
    2.4899   -1.7681    0.5552 N   0  0  0  0  0  0  0  0  0  0  0  0
    1.5098   -0.8156    0.9371 C   0  0  0  0  0  0  0  0  0  0  0  0
    1.9150    0.3023    1.6361 C   0  0  0  0  0  0  0  0  0  0  0  0
    0.9553    1.2160    2.0012 C   0  0  0  0  0  0  0  0  0  0  0  0
   -0.3671    1.0028    1.6690 C   0  0  0  0  0  0  0  0  0  0  0  0
   -1.2803    1.9319    2.0502 F   0  0  0  0  0  0  0  0  0  0  0  0
   -0.7842   -0.1101    0.9710 C   0  0  0  0  0  0  0  0  0  0  0  0
   -2.2285   -0.2564    0.6586 C   0  0  2  0  0  0  0  0  0  0  0  0
   -2.9578   -0.3291    1.9819 C   0  0  0  0  0  0  0  0  0  0  0  0
   -2.5102   -1.5389   -0.0866 C   0  0  0  0  0  0  0  0  0  0  0  0
   -4.2476   -1.5058   -0.5343 S   0  0  0  0  0  6  0  0  0  0  0  0
   -5.0556   -2.2878    0.4510 O   0  0  0  0  0  0  0  0  0  0  0  0
   -4.3519   -2.1940   -1.8812 O   0  0  0  0  0  0  0  0  0  0  0  0
   -4.7989    0.1623   -0.6093 C   0  0  0  0  0  0  0  0  0  0  0  0
   -5.6841    0.5761    0.5259 C   0  0  0  0  0  0  0  0  0  0  0  0
   -7.0194    0.9713   -0.0357 C   0  0  0  0  0  0  0  0  0  0  0  0
   -6.7385    1.3255   -1.4584 C   0  0  0  0  0  0  0  0  0  0  0  0
   -5.6513    0.3565   -1.8706 C   0  0  0  0  0  0  0  0  0  0  0  0
   -3.6810    1.1305   -0.7120 C   0  0  0  0  0  0  0  0  0  0  0  0
   -3.7754    2.3377   -1.4361 N   0  0  0  0  0  0  0  0  0  0  0  0
   -2.5934    0.8706   -0.1286 N   0  0  0  0  0  0  0  0  0  0  0  0
    0.1854   -1.0195    0.6099 C   0  0  0  0  0  0  0  0  0  0  0  0
    4.3854   -2.0844    2.0260 N   0  0  0  0  0  0  0  0  0  0  0  0
    5.6623   -1.9485    2.3507 C   0  0  0  0  0  0  0  0  0  0  0  0
    6.5427   -1.2986    1.5115 C   0  0  0  0  0  0  0  0  0  0  0  0
    6.0463   -0.7977    0.3273 C   0  0  0  0  0  0  0  0  0  0  0  0
    6.8873   -0.1404   -0.5446 C   0  0  0  0  0  0  0  0  0  0  0  0
    9.0594    0.1758   -1.9882 H   0  0  0  0  0  0  0  0  0  0  0  0
    9.2565    1.5689   -3.0763 H   0  0  0  0  0  0  0  0  0  0  0  0
    8.7523    1.8186   -1.3615 H   0  0  0  0  0  0  0  0  0  0  0  0
    4.6960    0.6015   -2.9655 H   0  0  0  0  0  0  0  0  0  0  0  0
    2.2104   -2.6132    0.0250 H   0  0  0  0  0  0  0  0  0  0  0  0
    2.9761    0.4534    1.8912 H   0  0  0  0  0  0  0  0  0  0  0  0
    1.2750    2.0927    2.5495 H   0  0  0  0  0  0  0  0  0  0  0  0
   -2.2428   -0.6755    2.7852 H   0  0  0  0  0  0  0  0  0  0  0  0
   -3.3503    0.6638    2.2428 H   0  0  0  0  0  0  0  0  0  0  0  0
   -3.7570   -1.0989    1.9814 H   0  0  0  0  0  0  0  0  0  0  0  0
   -2.3470   -2.4374    0.5214 H   0  0  0  0  0  0  0  0  0  0  0  0
   -1.8806   -1.6301   -0.9961 H   0  0  0  0  0  0  0  0  0  0  0  0
   -5.8782   -0.2483    1.2573 H   0  0  0  0  0  0  0  0  0  0  0  0
   -5.2726    1.4796    1.0619 H   0  0  0  0  0  0  0  0  0  0  0  0
   -7.4040    1.8998    0.4647 H   0  0  0  0  0  0  0  0  0  0  0  0
   -7.7764    0.1580    0.0707 H   0  0  0  0  0  0  0  0  0  0  0  0
   -7.6549    1.2077   -2.0736 H   0  0  0  0  0  0  0  0  0  0  0  0
   -6.4298    2.3782   -1.5359 H   0  0  0  0  0  0  0  0  0  0  0  0
   -6.0684   -0.5940   -2.2270 H   0  0  0  0  0  0  0  0  0  0  0  0
   -5.0818    0.8198   -2.6852 H   0  0  0  0  0  0  0  0  0  0  0  0
   -3.8933    3.2269   -0.9325 H   0  0  0  0  0  0  0  0  0  0  0  0
   -3.7265    2.3279   -2.4633 H   0  0  0  0  0  0  0  0  0  0  0  0
   -0.1528   -1.8972    0.0577 H   0  0  0  0  0  0  0  0  0  0  0  0
    6.0821   -2.3357    3.2826 H   0  0  0  0  0  0  0  0  0  0  0  0
    7.5780   -1.1960    1.7890 H   0  0  0  0  0  0  0  0  0  0  0  0
    7.9262   -0.0322   -0.2759 H   0  0  0  0  0  0  0  0  0  0  0  0
  1  2  1  0
  2  3  1  0
  3  4  2  0
  4  5  1  0
  5  6  2  0
  6  7  1  0
  7  8  1  0
  8  9  1  0
  9 10  2  0
 10 11  1  0
 11 12  2  0
 12 13  1  0
 12 14  1  0
 14 15  1  0
 15 16  1  1
 15 17  1  0
 17 18  1  0
 18 19  2  0
 18 20  2  0
 18 21  1  0
 21 22  1  0
 22 23  1  0
 23 24  1  0
 24 25  1  0
 21 26  1  0
 26 27  1  0
 26 28  2  0
 14 29  2  0
  7 30  2  0
 30 31  1  0
 31 32  2  0
 32 33  1  0
 33 34  2  0
 34  3  1  0
 33  6  1  0
 29  9  1  0
 28 15  1  0
 25 21  1  0
  1 35  1  0
  1 36  1  0
  1 37  1  0
  4 38  1  0
  8 39  1  0
 10 40  1  0
 11 41  1  0
 16 42  1  0
 16 43  1  0
 16 44  1  0
 17 45  1  0
 17 46  1  0
 22 47  1  0
 22 48  1  0
 23 49  1  0
 23 50  1  0
 24 51  1  0
 24 52  1  0
 25 53  1  0
 25 54  1  0
 27 55  1  0
 27 56  1  0
 29 57  1  0
 31 58  1  0
 32 59  1  0
 34 60  1  0
M  END
$$$$
