@<TRIPOS>MOLECULE
*****
 60 64 0 0 0
SMALL
GASTEIGER

@<TRIPOS>ATOM
      1 C           8.6282    1.1801   -2.2726 C.3     1  UNL1        0.0789
      2 O           7.2671    1.0388   -2.6251 O.3     1  UNL1       -0.4936
      3 C           6.4383    0.3745   -1.7344 C.ar    1  UNL1        0.1387
      4 C           5.0810    0.2029   -2.0274 C.ar    1  UNL1        0.0700
      5 N           4.2871   -0.4381   -1.1652 N.ar    1  UNL1       -0.2479
      6 C           4.6950   -0.9525    0.0048 C.ar    1  UNL1        0.1111
      7 C           3.8538   -1.6085    0.8735 C.ar    1  UNL1        0.1490
      8 N           2.4899   -1.7681    0.5552 N.pl3   1  UNL1       -0.2977
      9 C           1.5098   -0.8156    0.9371 C.ar    1  UNL1        0.0330
     10 C           1.9150    0.3023    1.6361 C.ar    1  UNL1       -0.0378
     11 C           0.9553    1.2160    2.0012 C.ar    1  UNL1       -0.0243
     12 C          -0.3671    1.0028    1.6690 C.ar    1  UNL1        0.1311
     13 F          -1.2803    1.9319    2.0502 F       1  UNL1       -0.2050
     14 C          -0.7842   -0.1101    0.9710 C.ar    1  UNL1        0.0420
     15 C          -2.2285   -0.2564    0.6586 C.3     1  UNL1        0.1959
     16 C          -2.9578   -0.3291    1.9819 C.3     1  UNL1       -0.0112
     17 C          -2.5102   -1.5389   -0.0866 C.3     1  UNL1        0.1183
     18 S          -4.2476   -1.5058   -0.5343 S.O2    1  UNL1       -0.0095
     19 O          -5.0556   -2.2878    0.4510 O.2     1  UNL1       -0.1731
     20 O          -4.3519   -2.1940   -1.8812 O.2     1  UNL1       -0.1731
     21 C          -4.7989    0.1623   -0.6093 C.3     1  UNL1        0.1886
     22 C          -5.6841    0.5761    0.5259 C.3     1  UNL1       -0.0165
     23 C          -7.0194    0.9713   -0.0357 C.3     1  UNL1       -0.0504
     24 C          -6.7385    1.3255   -1.4584 C.3     1  UNL1       -0.0504
     25 C          -5.6513    0.3565   -1.8706 C.3     1  UNL1       -0.0165
     26 C          -3.6810    1.1305   -0.7120 C.2     1  UNL1        0.3072
     27 N          -3.7754    2.3377   -1.4361 N.pl3   1  UNL1       -0.2488
     28 N          -2.5934    0.8706   -0.1286 N.2     1  UNL1       -0.0727
     29 C           0.1854   -1.0195    0.6099 C.ar    1  UNL1       -0.0301
     30 N           4.3854   -2.0844    2.0260 N.ar    1  UNL1       -0.2380
     31 C           5.6623   -1.9485    2.3507 C.ar    1  UNL1        0.0304
     32 C           6.5427   -1.2986    1.5115 C.ar    1  UNL1       -0.0342
     33 C           6.0463   -0.7977    0.3273 C.ar    1  UNL1        0.0086
     34 C           6.8873   -0.1404   -0.5446 C.ar    1  UNL1       -0.0091
     35 H           9.0594    0.1758   -1.9882 H       1  UNL1        0.0660
     36 H           9.2565    1.5689   -3.0763 H       1  UNL1        0.0660
     37 H           8.7523    1.8186   -1.3615 H       1  UNL1        0.0660
     38 H           4.6960    0.6015   -2.9655 H       1  UNL1        0.0867
     39 H           2.2104   -2.6132    0.0250 H       1  UNL1        0.1536
     40 H           2.9761    0.4534    1.8912 H       1  UNL1        0.0637
     41 H           1.2750    2.0927    2.5495 H       1  UNL1        0.0647
     42 H          -2.2428   -0.6755    2.7852 H       1  UNL1        0.0279
     43 H          -3.3503    0.6638    2.2428 H       1  UNL1        0.0279
     44 H          -3.7570   -1.0989    1.9814 H       1  UNL1        0.0279
     45 H          -2.3470   -2.4374    0.5214 H       1  UNL1        0.0550
     46 H          -1.8806   -1.6301   -0.9961 H       1  UNL1        0.0550
     47 H          -5.8782   -0.2483    1.2573 H       1  UNL1        0.0292
     48 H          -5.2726    1.4796    1.0619 H       1  UNL1        0.0292
     49 H          -7.4040    1.8998    0.4647 H       1  UNL1        0.0266
     50 H          -7.7764    0.1580    0.0707 H       1  UNL1        0.0266
     51 H          -7.6549    1.2077   -2.0736 H       1  UNL1        0.0266
     52 H          -6.4298    2.3782   -1.5359 H       1  UNL1        0.0266
     53 H          -6.0684   -0.5940   -2.2270 H       1  UNL1        0.0292
     54 H          -5.0818    0.8198   -2.6852 H       1  UNL1        0.0292
     55 H          -3.8933    3.2269   -0.9325 H       1  UNL1        0.2881
     56 H          -3.7265    2.3279   -2.4633 H       1  UNL1        0.2881
     57 H          -0.1528   -1.8972    0.0577 H       1  UNL1        0.0641
     58 H           6.0821   -2.3357    3.2826 H       1  UNL1        0.0830
     59 H           7.5780   -1.1960    1.7890 H       1  UNL1        0.0639
     60 H           7.9262   -0.0322   -0.2759 H       1  UNL1        0.0661
@<TRIPOS>BOND
     1     1     2    1
     2     2     3    1
     3     3     4   ar
     4     4     5   ar
     5     5     6   ar
     6     6     7   ar
     7     7     8    1
     8     8     9    1
     9     9    10   ar
    10    10    11   ar
    11    11    12   ar
    12    12    13    1
    13    12    14   ar
    14    14    15    1
    15    15    16    1
    16    15    17    1
    17    17    18    1
    18    18    19    2
    19    18    20    2
    20    18    21    1
    21    21    22    1
    22    22    23    1
    23    23    24    1
    24    24    25    1
    25    21    26    1
    26    26    27    1
    27    26    28    2
    28    14    29   ar
    29     7    30   ar
    30    30    31   ar
    31    31    32   ar
    32    32    33   ar
    33    33    34   ar
    34    34     3   ar
    35    33     6   ar
    36    29     9   ar
    37    28    15    1
    38    25    21    1
    39     1    35    1
    40     1    36    1
    41     1    37    1
    42     4    38    1
    43     8    39    1
    44    10    40    1
    45    11    41    1
    46    16    42    1
    47    16    43    1
    48    16    44    1
    49    17    45    1
    50    17    46    1
    51    22    47    1
    52    22    48    1
    53    23    49    1
    54    23    50    1
    55    24    51    1
    56    24    52    1
    57    25    53    1
    58    25    54    1
    59    27    55    1
    60    27    56    1
    61    29    57    1
    62    31    58    1
    63    32    59    1
    64    34    60    1
