
     RDKit          3D

 41 43  0  0  0  0  0  0  0  0999 V2000
   -5.2924   -3.0308   -0.5949 C   0  0  0  0  0  0  0  0  0  0  0  0
   -4.8066   -1.7713   -0.1900 O   0  0  0  0  0  0  0  0  0  0  0  0
   -3.4584   -1.5488   -0.1051 C   0  0  0  0  0  0  0  0  0  0  0  0
   -2.5189   -2.5194   -0.3934 C   0  0  0  0  0  0  0  0  0  0  0  0
   -1.1792   -2.1808   -0.2762 C   0  0  0  0  0  0  0  0  0  0  0  0
   -0.7516   -0.9384    0.1085 C   0  0  0  0  0  0  0  0  0  0  0  0
   -1.6971    0.0290    0.3959 C   0  0  0  0  0  0  0  0  0  0  0  0
   -3.0369   -0.2871    0.2873 C   0  0  0  0  0  0  0  0  0  0  0  0
   -1.0126    1.1595    0.7346 C   0  0  0  0  0  0  0  0  0  0  0  0
   -1.5727    2.4605    1.1141 C   0  0  0  0  0  0  0  0  0  0  0  0
   -2.1810    3.2251    0.0306 C   0  0  0  0  0  0  0  0  0  0  0  0
   -3.3725    2.9026   -0.3258 O   0  0  0  0  0  0  0  0  0  0  0  0
   -1.5985    4.2708   -0.6614 O   0  0  0  0  0  0  0  0  0  0  0  0
    0.3688    0.8760    0.6593 C   0  0  0  0  0  0  0  0  0  0  0  0
    1.4258    1.8595    1.0630 C   0  0  0  0  0  0  0  0  0  0  0  0
    0.5005   -0.3917    0.2776 N   0  0  0  0  0  0  0  0  0  0  0  0
    1.6744   -1.1205   -0.0082 C   0  0  0  0  0  0  0  0  0  0  0  0
    1.5984   -2.3957   -0.1379 O   0  0  0  0  0  0  0  0  0  0  0  0
    3.0224   -0.6038   -0.1901 C   0  0  0  0  0  0  0  0  0  0  0  0
    4.1030   -1.2948    0.3218 C   0  0  0  0  0  0  0  0  0  0  0  0
    5.3803   -0.9056    0.0829 C   0  0  0  0  0  0  0  0  0  0  0  0
    5.6506    0.2283   -0.7027 C   0  0  0  0  0  0  0  0  0  0  0  0
    7.2998    0.7367   -1.0096 Cl  0  0  0  0  0  0  0  0  0  0  0  0
    4.6023    0.9121   -1.2110 C   0  0  0  0  0  0  0  0  0  0  0  0
    3.2939    0.5267   -0.9739 C   0  0  0  0  0  0  0  0  0  0  0  0
   -5.2701   -3.1652   -1.6932 H   0  0  0  0  0  0  0  0  0  0  0  0
   -6.3731   -3.1512   -0.3046 H   0  0  0  0  0  0  0  0  0  0  0  0
   -4.7265   -3.8280   -0.0876 H   0  0  0  0  0  0  0  0  0  0  0  0
   -2.8205   -3.5146   -0.6969 H   0  0  0  0  0  0  0  0  0  0  0  0
   -0.4717   -2.9851   -0.5186 H   0  0  0  0  0  0  0  0  0  0  0  0
   -3.7873    0.4411    0.5149 H   0  0  0  0  0  0  0  0  0  0  0  0
   -0.8399    3.0975    1.6798 H   0  0  0  0  0  0  0  0  0  0  0  0
   -2.3964    2.2583    1.8713 H   0  0  0  0  0  0  0  0  0  0  0  0
   -2.2356    5.0495   -0.9197 H   0  0  0  0  0  0  0  0  0  0  0  0
    1.0458    2.4517    1.9592 H   0  0  0  0  0  0  0  0  0  0  0  0
    2.3019    1.3267    1.4746 H   0  0  0  0  0  0  0  0  0  0  0  0
    1.7371    2.5267    0.2614 H   0  0  0  0  0  0  0  0  0  0  0  0
    3.9240   -2.1513    0.9357 H   0  0  0  0  0  0  0  0  0  0  0  0
    6.2445   -1.4428    0.4818 H   0  0  0  0  0  0  0  0  0  0  0  0
    4.7614    1.8201   -1.8413 H   0  0  0  0  0  0  0  0  0  0  0  0
    2.4645    1.0683   -1.4120 H   0  0  0  0  0  0  0  0  0  0  0  0
  1  2  1  0
  2  3  1  0
  3  4  2  0
  4  5  1  0
  5  6  2  0
  6  7  1  0
  7  8  2  0
  7  9  1  0
  9 10  1  0
 10 11  1  0
 11 12  2  0
 11 13  1  0
  9 14  2  0
 14 15  1  0
 14 16  1  0
 16 17  1  0
 17 18  2  0
 17 19  1  0
 19 20  2  0
 20 21  1  0
 21 22  2  0
 22 23  1  0
 22 24  1  0
 24 25  2  0
  8  3  1  0
 25 19  1  0
 16  6  1  0
  1 26  1  0
  1 27  1  0
  1 28  1  0
  4 29  1  0
  5 30  1  0
  8 31  1  0
 10 32  1  0
 10 33  1  0
 13 34  1  0
 15 35  1  0
 15 36  1  0
 15 37  1  0
 20 38  1  0
 21 39  1  0
 24 40  1  0
 25 41  1  0
M  END
$$$$
