@<TRIPOS>MOLECULE
*****
 41 43 0 0 0
SMALL
GASTEIGER

@<TRIPOS>ATOM
      1 C          -5.2924   -3.0308   -0.5949 C.3     1  UNL1        0.0788
      2 O          -4.8066   -1.7713   -0.1900 O.3     1  UNL1       -0.4951
      3 C          -3.4584   -1.5488   -0.1051 C.ar    1  UNL1        0.1208
      4 C          -2.5189   -2.5194   -0.3934 C.ar    1  UNL1       -0.0180
      5 C          -1.1792   -2.1808   -0.2762 C.ar    1  UNL1       -0.0337
      6 C          -0.7516   -0.9384    0.1085 C.ar    1  UNL1        0.0574
      7 C          -1.6971    0.0290    0.3959 C.ar    1  UNL1        0.0077
      8 C          -3.0369   -0.2871    0.2873 C.ar    1  UNL1       -0.0105
      9 C          -1.0126    1.1595    0.7346 C.ar    1  UNL1       -0.0080
     10 C          -1.5727    2.4605    1.1141 C.3     1  UNL1        0.0721
     11 C          -2.1810    3.2251    0.0306 C.2     1  UNL1        0.3091
     12 O          -3.3725    2.9026   -0.3258 O.2     1  UNL1       -0.2507
     13 O          -1.5985    4.2708   -0.6614 O.3     1  UNL1       -0.4804
     14 C           0.3688    0.8760    0.6593 C.ar    1  UNL1        0.0284
     15 C           1.4258    1.8595    1.0630 C.3     1  UNL1       -0.0235
     16 N           0.5005   -0.3917    0.2776 N.ar    1  UNL1       -0.2801
     17 C           1.6744   -1.1205   -0.0082 C.2     1  UNL1        0.2631
     18 O           1.5984   -2.3957   -0.1379 O.2     1  UNL1       -0.2667
     19 C           3.0224   -0.6038   -0.1901 C.ar    1  UNL1        0.0399
     20 C           4.1030   -1.2948    0.3218 C.ar    1  UNL1       -0.0480
     21 C           5.3803   -0.9056    0.0829 C.ar    1  UNL1       -0.0427
     22 C           5.6506    0.2283   -0.7027 C.ar    1  UNL1        0.0410
     23 CL          7.2998    0.7367   -1.0096 Cl      1  UNL1       -0.0835
     24 C           4.6023    0.9121   -1.2110 C.ar    1  UNL1       -0.0427
     25 C           3.2939    0.5267   -0.9739 C.ar    1  UNL1       -0.0480
     26 H          -5.2701   -3.1652   -1.6932 H       1  UNL1        0.0660
     27 H          -6.3731   -3.1512   -0.3046 H       1  UNL1        0.0660
     28 H          -4.7265   -3.8280   -0.0876 H       1  UNL1        0.0660
     29 H          -2.8205   -3.5146   -0.6969 H       1  UNL1        0.0655
     30 H          -0.4717   -2.9851   -0.5186 H       1  UNL1        0.0640
     31 H          -3.7873    0.4411    0.5149 H       1  UNL1        0.0661
     32 H          -0.8399    3.0975    1.6798 H       1  UNL1        0.0427
     33 H          -2.3964    2.2583    1.8713 H       1  UNL1        0.0427
     34 H          -2.2356    5.0495   -0.9197 H       1  UNL1        0.2951
     35 H           1.0458    2.4517    1.9592 H       1  UNL1        0.0292
     36 H           2.3019    1.3267    1.4746 H       1  UNL1        0.0292
     37 H           1.7371    2.5267    0.2614 H       1  UNL1        0.0292
     38 H           3.9240   -2.1513    0.9357 H       1  UNL1        0.0626
     39 H           6.2445   -1.4428    0.4818 H       1  UNL1        0.0632
     40 H           4.7614    1.8201   -1.8413 H       1  UNL1        0.0632
     41 H           2.4645    1.0683   -1.4120 H       1  UNL1        0.0626
@<TRIPOS>BOND
     1     1     2    1
     2     2     3    1
     3     3     4   ar
     4     4     5   ar
     5     5     6   ar
     6     6     7   ar
     7     7     8   ar
     8     7     9   ar
     9     9    10    1
    10    10    11    1
    11    11    12    2
    12    11    13    1
    13     9    14   ar
    14    14    15    1
    15    14    16   ar
    16    16    17   am
    17    17    18    2
    18    17    19    1
    19    19    20   ar
    20    20    21   ar
    21    21    22   ar
    22    22    23    1
    23    22    24   ar
    24    24    25   ar
    25     8     3   ar
    26    25    19   ar
    27    16     6   ar
    28     1    26    1
    29     1    27    1
    30     1    28    1
    31     4    29    1
    32     5    30    1
    33     8    31    1
    34    10    32    1
    35    10    33    1
    36    13    34    1
    37    15    35    1
    38    15    36    1
    39    15    37    1
    40    20    38    1
    41    21    39    1
    42    24    40    1
    43    25    41    1
