
     RDKit          3D

 26 28  0  0  0  0  0  0  0  0999 V2000
   -0.9223    3.1897   -2.0367 O   0  0  0  0  0  0  0  0  0  0  0  0
   -1.2402    2.1848   -1.3418 C   0  0  0  0  0  0  0  0  0  0  0  0
   -2.5211    1.7468   -0.9450 N   0  0  0  0  0  0  0  0  0  0  0  0
   -2.3804    0.5613   -0.1706 C   0  0  0  0  0  0  0  0  0  0  0  0
   -3.3295   -0.2458    0.4190 C   0  0  0  0  0  0  0  0  0  0  0  0
   -2.9219   -1.3703    1.1068 C   0  0  0  0  0  0  0  0  0  0  0  0
   -1.5953   -1.7159    1.2238 C   0  0  0  0  0  0  0  0  0  0  0  0
   -0.6545   -0.9031    0.6306 C   0  0  0  0  0  0  0  0  0  0  0  0
   -1.0234    0.2191   -0.0555 C   0  0  0  0  0  0  0  0  0  0  0  0
   -0.2614    1.2251   -0.7831 C   0  0  0  0  0  0  0  0  0  0  0  0
    1.0327    1.2585   -0.9623 C   0  0  0  0  0  0  0  0  0  0  0  0
    1.9864    0.3259   -0.4032 C   0  0  0  0  0  0  0  0  0  0  0  0
    2.7564   -0.5656   -1.0859 C   0  0  0  0  0  0  0  0  0  0  0  0
    3.6229   -1.2128   -0.1993 C   0  0  0  0  0  0  0  0  0  0  0  0
    3.3268   -0.6612    1.0450 C   0  0  0  0  0  0  0  0  0  0  0  0
    2.3500    0.2514    0.8931 N   0  0  0  0  0  0  0  0  0  0  0  0
   -3.3909    2.2370   -1.1968 H   0  0  0  0  0  0  0  0  0  0  0  0
   -4.3703    0.0289    0.3259 H   0  0  0  0  0  0  0  0  0  0  0  0
   -3.7189   -1.9601    1.5522 H   0  0  0  0  0  0  0  0  0  0  0  0
   -1.3343   -2.6226    1.7771 H   0  0  0  0  0  0  0  0  0  0  0  0
    0.3527   -1.2214    0.7198 H   0  0  0  0  0  0  0  0  0  0  0  0
    1.3973    2.0938   -1.6084 H   0  0  0  0  0  0  0  0  0  0  0  0
    2.7055   -0.7426   -2.1377 H   0  0  0  0  0  0  0  0  0  0  0  0
    4.3613   -1.9698   -0.4139 H   0  0  0  0  0  0  0  0  0  0  0  0
    3.8145   -0.9350    1.9723 H   0  0  0  0  0  0  0  0  0  0  0  0
    1.9580    0.8037    1.6749 H   0  0  0  0  0  0  0  0  0  0  0  0
  1  2  2  0
  2  3  1  0
  3  4  1  0
  4  5  2  0
  5  6  1  0
  6  7  2  0
  7  8  1  0
  8  9  2  0
  9 10  1  0
 10 11  2  0
 11 12  1  0
 12 13  2  0
 13 14  1  0
 14 15  2  0
 15 16  1  0
 10  2  1  0
 16 12  1  0
  9  4  1  0
  3 17  1  0
  5 18  1  0
  6 19  1  0
  7 20  1  0
  8 21  1  0
 11 22  1  0
 13 23  1  0
 14 24  1  0
 15 25  1  0
 16 26  1  0
M  END
$$$$
