@<TRIPOS>MOLECULE
*****
 26 28 0 0 0
SMALL
GASTEIGER

@<TRIPOS>ATOM
      1 O          -0.9223    3.1897   -2.0367 O.2     1  UNL1       -0.2698
      2 C          -1.2402    2.1848   -1.3418 C.2     1  UNL1        0.2490
      3 N          -2.5211    1.7468   -0.9450 N.am    1  UNL1       -0.2809
      4 C          -2.3804    0.5613   -0.1706 C.ar    1  UNL1        0.0416
      5 C          -3.3295   -0.2458    0.4190 C.ar    1  UNL1       -0.0399
      6 C          -2.9219   -1.3703    1.1068 C.ar    1  UNL1       -0.0600
      7 C          -1.5953   -1.7159    1.2238 C.ar    1  UNL1       -0.0611
      8 C          -0.6545   -0.9031    0.6306 C.ar    1  UNL1       -0.0521
      9 C          -1.0234    0.2191   -0.0555 C.ar    1  UNL1        0.0084
     10 C          -0.2614    1.2251   -0.7831 C.2     1  UNL1        0.0479
     11 C           1.0327    1.2585   -0.9623 C.2     1  UNL1       -0.0256
     12 C           1.9864    0.3259   -0.4032 C.ar    1  UNL1        0.0400
     13 C           2.7564   -0.5656   -1.0859 C.ar    1  UNL1       -0.0370
     14 C           3.6229   -1.2128   -0.1993 C.ar    1  UNL1       -0.0438
     15 C           3.3268   -0.6612    1.0450 C.ar    1  UNL1        0.0022
     16 N           2.3500    0.2514    0.8931 N.ar    1  UNL1       -0.3611
     17 H          -3.3909    2.2370   -1.1968 H       1  UNL1        0.1552
     18 H          -4.3703    0.0289    0.3259 H       1  UNL1        0.0636
     19 H          -3.7189   -1.9601    1.5522 H       1  UNL1        0.0618
     20 H          -1.3343   -2.6226    1.7771 H       1  UNL1        0.0618
     21 H           0.3527   -1.2214    0.7198 H       1  UNL1        0.0624
     22 H           1.3973    2.0938   -1.6084 H       1  UNL1        0.0646
     23 H           2.7055   -0.7426   -2.1377 H       1  UNL1        0.0638
     24 H           4.3613   -1.9698   -0.4139 H       1  UNL1        0.0633
     25 H           3.8145   -0.9350    1.9723 H       1  UNL1        0.0807
     26 H           1.9580    0.8037    1.6749 H       1  UNL1        0.1653
@<TRIPOS>BOND
     1     1     2    2
     2     2     3   am
     3     3     4    1
     4     4     5   ar
     5     5     6   ar
     6     6     7   ar
     7     7     8   ar
     8     8     9   ar
     9     9    10    1
    10    10    11    2
    11    11    12    1
    12    12    13   ar
    13    13    14   ar
    14    14    15   ar
    15    15    16   ar
    16    10     2    1
    17    16    12   ar
    18     9     4   ar
    19     3    17    1
    20     5    18    1
    21     6    19    1
    22     7    20    1
    23     8    21    1
    24    11    22    1
    25    13    23    1
    26    14    24    1
    27    15    25    1
    28    16    26    1
