@<TRIPOS>MOLECULE
*****
 22 23 0 0 0
SMALL
GASTEIGER

@<TRIPOS>ATOM
      1 O           1.5402    3.2042    0.3188 O.co2   1  UNL1       -0.5474
      2 C           0.7854    2.3313   -0.1816 C.2     1  UNL1        0.0698
      3 O           0.2925    2.4376   -1.4897 O.co2   1  UNL1       -0.5474
      4 C           0.4215    1.1668    0.6565 C.3     1  UNL1        0.1257
      5 C          -0.6155    0.3348   -0.0446 C.2     1  UNL1        0.1246
      6 C          -1.9206    0.3469    0.1215 C.2     1  UNL1       -0.0190
      7 C          -2.8210   -0.5390   -0.6491 C.3     1  UNL1        0.0658
      8 O          -3.5424   -1.3757    0.2184 O.3     1  UNL1       -0.3909
      9 O           0.0594   -0.4916   -0.9421 O.2     1  UNL1       -0.4725
     10 C           1.4508   -0.3582   -0.7267 C.3     1  UNL1        0.1783
     11 C           2.1192   -1.5513   -0.1232 C.3     1  UNL1        0.0786
     12 C           2.6987   -0.5717    0.8069 C.2     1  UNL1        0.2243
     13 O           3.7313   -0.4627    1.4855 O.2     1  UNL1       -0.2753
     14 N           1.5586    0.2390    0.6145 N.am    1  UNL1       -0.2502
     15 H           0.1356    1.4188    1.6766 H       1  UNL1        0.0645
     16 H          -2.2978    1.0554    0.8671 H       1  UNL1        0.0628
     17 H          -2.1857   -1.2143   -1.2571 H       1  UNL1        0.0602
     18 H          -3.5041    0.0339   -1.3163 H       1  UNL1        0.0602
     19 H          -4.1225   -1.9430   -0.3487 H       1  UNL1        0.2098
     20 H           2.0082    0.2111   -1.4789 H       1  UNL1        0.0957
     21 H           1.3794   -2.2161    0.3649 H       1  UNL1        0.0412
     22 H           2.8291   -2.0562   -0.8081 H       1  UNL1        0.0412
@<TRIPOS>UNITY_ATOM_ATTR
3 1
charge -1
@<TRIPOS>BOND
     1     1     2   ar
     2     2     3   ar
     3     2     4    1
     4     4     5    1
     5     5     6    2
     6     6     7    1
     7     7     8    1
     8     5     9    1
     9     9    10    1
    10    10    11    1
    11    11    12    1
    12    12    13    2
    13    12    14   am
    14    14     4    1
    15    14    10    1
    16     4    15    1
    17     6    16    1
    18     7    17    1
    19     7    18    1
    20     8    19    1
    21    10    20    1
    22    11    21    1
    23    11    22    1
