@<TRIPOS>MOLECULE
*****
 65 69 0 0 0
SMALL
GASTEIGER

@<TRIPOS>ATOM
      1 C          10.8427   -0.3897    0.3345 C.3     1  UNL1        0.0788
      2 O           9.9496   -1.3855   -0.1289 O.3     1  UNL1       -0.4951
      3 C           8.7318   -0.9890   -0.6669 C.ar    1  UNL1        0.1202
      4 C           8.3242    0.3213   -0.7839 C.ar    1  UNL1       -0.0182
      5 C           7.0960    0.6348   -1.3307 C.ar    1  UNL1       -0.0369
      6 C           6.2219   -0.3289   -1.7831 C.ar    1  UNL1        0.0367
      7 N           4.9691    0.0857   -2.3306 N.am    1  UNL1       -0.2508
      8 C           3.8593    0.1964   -1.4642 C.2     1  UNL1        0.4099
      9 O           4.0097   -0.0776   -0.2460 O.2     1  UNL1       -0.2257
     10 O           2.6131    0.5896   -1.8756 O.3     1  UNL1       -0.4113
     11 C           1.5366    0.6877   -1.0019 C.ar    1  UNL1        0.1336
     12 C           1.4466    1.8391   -0.2447 C.ar    1  UNL1       -0.0174
     13 C           0.4220    2.0422    0.6529 C.ar    1  UNL1       -0.0369
     14 C          -0.5488    1.0392    0.7871 C.ar    1  UNL1        0.0347
     15 C          -0.4586   -0.1095    0.0301 C.ar    1  UNL1       -0.0139
     16 C           0.5861   -0.2982   -0.8731 C.ar    1  UNL1       -0.0136
     17 C          -1.5943   -0.9986    0.3449 C.3     1  UNL1        0.0279
     18 C          -1.1855   -2.1714    1.2052 C.3     1  UNL1       -0.0525
     19 C          -2.3701   -1.4107   -0.8654 C.3     1  UNL1       -0.0277
     20 C          -3.6661   -0.5714   -0.8528 C.3     1  UNL1        0.0015
     21 N          -3.3116    0.4757    0.0019 N.3     1  UNL1       -0.2833
     22 C          -4.1093    1.5666    0.2584 C.3     1  UNL1        0.0046
     23 C          -5.3441    1.5111    1.0530 C.3     1  UNL1       -0.0148
     24 C          -6.4256    0.6329    0.5936 C.ar    1  UNL1       -0.0462
     25 C          -6.5838   -0.6446    1.1050 C.ar    1  UNL1       -0.0585
     26 C          -7.5885   -1.5037    0.7054 C.ar    1  UNL1       -0.0615
     27 C          -8.4812   -1.0631   -0.2548 C.ar    1  UNL1       -0.0617
     28 C          -8.3648    0.1978   -0.7923 C.ar    1  UNL1       -0.0615
     29 C          -7.3556    1.0200   -0.3706 C.ar    1  UNL1       -0.0585
     30 C          -2.5439   -0.0773    1.0676 C.3     1  UNL1        0.0863
     31 N          -1.7019    0.9324    1.6079 N.pl3   1  UNL1       -0.3161
     32 C          -1.9077    1.7704    2.8015 C.3     1  UNL1        0.0022
     33 C           6.6150   -1.6427   -1.6728 C.ar    1  UNL1       -0.0369
     34 C           7.8519   -1.9664   -1.1228 C.ar    1  UNL1       -0.0182
     35 H          11.6475   -0.8135    0.9538 H       1  UNL1        0.0660
     36 H          10.2990    0.3809    0.9467 H       1  UNL1        0.0660
     37 H          11.3465    0.1400   -0.5073 H       1  UNL1        0.0660
     38 H           8.9936    1.1091   -0.4354 H       1  UNL1        0.0655
     39 H           6.7768    1.6781   -1.4205 H       1  UNL1        0.0637
     40 H           4.8458    0.3079   -3.3464 H       1  UNL1        0.1582
     41 H           2.1955    2.6163   -0.3461 H       1  UNL1        0.0655
     42 H           0.3448    2.9569    1.2610 H       1  UNL1        0.0637
     43 H           0.6657   -1.1954   -1.4712 H       1  UNL1        0.0658
     44 H          -1.8914   -3.0112    1.0030 H       1  UNL1        0.0239
     45 H          -1.1708   -1.9647    2.2747 H       1  UNL1        0.0239
     46 H          -0.1638   -2.4608    0.8854 H       1  UNL1        0.0239
     47 H          -1.7679   -1.2313   -1.7584 H       1  UNL1        0.0287
     48 H          -2.6584   -2.4859   -0.7355 H       1  UNL1        0.0287
     49 H          -3.7171   -0.1437   -1.9059 H       1  UNL1        0.0427
     50 H          -4.5245   -1.1915   -0.6438 H       1  UNL1        0.0427
     51 H          -4.3803    2.0673   -0.7233 H       1  UNL1        0.0430
     52 H          -3.4445    2.3738    0.7328 H       1  UNL1        0.0430
     53 H          -5.7926    2.5610    1.0111 H       1  UNL1        0.0326
     54 H          -5.1611    1.3964    2.1583 H       1  UNL1        0.0326
     55 H          -5.8971   -1.0091    1.8566 H       1  UNL1        0.0620
     56 H          -7.6532   -2.4791    1.1416 H       1  UNL1        0.0618
     57 H          -9.2808   -1.7258   -0.5825 H       1  UNL1        0.0618
     58 H          -9.0650    0.5402   -1.5445 H       1  UNL1        0.0618
     59 H          -7.2845    2.0031   -0.8056 H       1  UNL1        0.0620
     60 H          -3.1479   -0.6150    1.8262 H       1  UNL1        0.0680
     61 H          -1.6561    2.8309    2.5418 H       1  UNL1        0.0428
     62 H          -2.9067    1.6428    3.2285 H       1  UNL1        0.0428
     63 H          -1.1718    1.4842    3.5846 H       1  UNL1        0.0428
     64 H           5.9287   -2.4124   -2.0300 H       1  UNL1        0.0637
     65 H           8.1575   -2.9979   -1.0375 H       1  UNL1        0.0655
@<TRIPOS>BOND
     1     1     2    1
     2     2     3    1
     3     3     4   ar
     4     4     5   ar
     5     5     6   ar
     6     6     7    1
     7     7     8   am
     8     8     9    2
     9     8    10    1
    10    10    11    1
    11    11    12   ar
    12    12    13   ar
    13    13    14   ar
    14    14    15   ar
    15    15    16   ar
    16    15    17    1
    17    17    18    1
    18    17    19    1
    19    19    20    1
    20    20    21    1
    21    21    22    1
    22    22    23    1
    23    23    24    1
    24    24    25   ar
    25    25    26   ar
    26    26    27   ar
    27    27    28   ar
    28    28    29   ar
    29    21    30    1
    30    30    31    1
    31    31    32    1
    32     6    33   ar
    33    33    34   ar
    34    34     3   ar
    35    16    11   ar
    36    30    17    1
    37    31    14    1
    38    29    24   ar
    39     1    35    1
    40     1    36    1
    41     1    37    1
    42     4    38    1
    43     5    39    1
    44     7    40    1
    45    12    41    1
    46    13    42    1
    47    16    43    1
    48    18    44    1
    49    18    45    1
    50    18    46    1
    51    19    47    1
    52    19    48    1
    53    20    49    1
    54    20    50    1
    55    22    51    1
    56    22    52    1
    57    23    53    1
    58    23    54    1
    59    25    55    1
    60    26    56    1
    61    27    57    1
    62    28    58    1
    63    29    59    1
    64    30    60    1
    65    32    61    1
    66    32    62    1
    67    32    63    1
    68    33    64    1
    69    34    65    1
