
     RDKit          3D

 65 69  0  0  0  0  0  0  0  0999 V2000
   10.8427   -0.3897    0.3345 C   0  0  0  0  0  0  0  0  0  0  0  0
    9.9496   -1.3855   -0.1289 O   0  0  0  0  0  0  0  0  0  0  0  0
    8.7318   -0.9890   -0.6669 C   0  0  0  0  0  0  0  0  0  0  0  0
    8.3242    0.3213   -0.7839 C   0  0  0  0  0  0  0  0  0  0  0  0
    7.0960    0.6348   -1.3307 C   0  0  0  0  0  0  0  0  0  0  0  0
    6.2219   -0.3289   -1.7831 C   0  0  0  0  0  0  0  0  0  0  0  0
    4.9691    0.0857   -2.3306 N   0  0  0  0  0  0  0  0  0  0  0  0
    3.8593    0.1964   -1.4642 C   0  0  0  0  0  0  0  0  0  0  0  0
    4.0097   -0.0776   -0.2460 O   0  0  0  0  0  0  0  0  0  0  0  0
    2.6131    0.5896   -1.8756 O   0  0  0  0  0  0  0  0  0  0  0  0
    1.5366    0.6877   -1.0019 C   0  0  0  0  0  0  0  0  0  0  0  0
    1.4466    1.8391   -0.2447 C   0  0  0  0  0  0  0  0  0  0  0  0
    0.4220    2.0422    0.6529 C   0  0  0  0  0  0  0  0  0  0  0  0
   -0.5488    1.0392    0.7871 C   0  0  0  0  0  0  0  0  0  0  0  0
   -0.4586   -0.1095    0.0301 C   0  0  0  0  0  0  0  0  0  0  0  0
    0.5861   -0.2982   -0.8731 C   0  0  0  0  0  0  0  0  0  0  0  0
   -1.5943   -0.9986    0.3449 C   0  0  2  0  0  0  0  0  0  0  0  0
   -1.1855   -2.1714    1.2052 C   0  0  0  0  0  0  0  0  0  0  0  0
   -2.3701   -1.4107   -0.8654 C   0  0  0  0  0  0  0  0  0  0  0  0
   -3.6661   -0.5714   -0.8528 C   0  0  0  0  0  0  0  0  0  0  0  0
   -3.3116    0.4757    0.0019 N   0  0  0  0  0  0  0  0  0  0  0  0
   -4.1093    1.5666    0.2584 C   0  0  0  0  0  0  0  0  0  0  0  0
   -5.3441    1.5111    1.0530 C   0  0  0  0  0  0  0  0  0  0  0  0
   -6.4256    0.6329    0.5936 C   0  0  0  0  0  0  0  0  0  0  0  0
   -6.5838   -0.6446    1.1050 C   0  0  0  0  0  0  0  0  0  0  0  0
   -7.5885   -1.5037    0.7054 C   0  0  0  0  0  0  0  0  0  0  0  0
   -8.4812   -1.0631   -0.2548 C   0  0  0  0  0  0  0  0  0  0  0  0
   -8.3648    0.1978   -0.7923 C   0  0  0  0  0  0  0  0  0  0  0  0
   -7.3556    1.0200   -0.3706 C   0  0  0  0  0  0  0  0  0  0  0  0
   -2.5439   -0.0773    1.0676 C   0  0  2  0  0  0  0  0  0  0  0  0
   -1.7019    0.9324    1.6079 N   0  0  0  0  0  0  0  0  0  0  0  0
   -1.9077    1.7704    2.8015 C   0  0  0  0  0  0  0  0  0  0  0  0
    6.6150   -1.6427   -1.6728 C   0  0  0  0  0  0  0  0  0  0  0  0
    7.8519   -1.9664   -1.1228 C   0  0  0  0  0  0  0  0  0  0  0  0
   11.6475   -0.8135    0.9538 H   0  0  0  0  0  0  0  0  0  0  0  0
   10.2990    0.3809    0.9467 H   0  0  0  0  0  0  0  0  0  0  0  0
   11.3465    0.1400   -0.5073 H   0  0  0  0  0  0  0  0  0  0  0  0
    8.9936    1.1091   -0.4354 H   0  0  0  0  0  0  0  0  0  0  0  0
    6.7768    1.6781   -1.4205 H   0  0  0  0  0  0  0  0  0  0  0  0
    4.8458    0.3079   -3.3464 H   0  0  0  0  0  0  0  0  0  0  0  0
    2.1955    2.6163   -0.3461 H   0  0  0  0  0  0  0  0  0  0  0  0
    0.3448    2.9569    1.2610 H   0  0  0  0  0  0  0  0  0  0  0  0
    0.6657   -1.1954   -1.4712 H   0  0  0  0  0  0  0  0  0  0  0  0
   -1.8914   -3.0112    1.0030 H   0  0  0  0  0  0  0  0  0  0  0  0
   -1.1708   -1.9647    2.2747 H   0  0  0  0  0  0  0  0  0  0  0  0
   -0.1638   -2.4608    0.8854 H   0  0  0  0  0  0  0  0  0  0  0  0
   -1.7679   -1.2313   -1.7584 H   0  0  0  0  0  0  0  0  0  0  0  0
   -2.6584   -2.4859   -0.7355 H   0  0  0  0  0  0  0  0  0  0  0  0
   -3.7171   -0.1437   -1.9059 H   0  0  0  0  0  0  0  0  0  0  0  0
   -4.5245   -1.1915   -0.6438 H   0  0  0  0  0  0  0  0  0  0  0  0
   -4.3803    2.0673   -0.7233 H   0  0  0  0  0  0  0  0  0  0  0  0
   -3.4445    2.3738    0.7328 H   0  0  0  0  0  0  0  0  0  0  0  0
   -5.7926    2.5610    1.0111 H   0  0  0  0  0  0  0  0  0  0  0  0
   -5.1611    1.3964    2.1583 H   0  0  0  0  0  0  0  0  0  0  0  0
   -5.8971   -1.0091    1.8566 H   0  0  0  0  0  0  0  0  0  0  0  0
   -7.6532   -2.4791    1.1416 H   0  0  0  0  0  0  0  0  0  0  0  0
   -9.2808   -1.7258   -0.5825 H   0  0  0  0  0  0  0  0  0  0  0  0
   -9.0650    0.5402   -1.5445 H   0  0  0  0  0  0  0  0  0  0  0  0
   -7.2845    2.0031   -0.8056 H   0  0  0  0  0  0  0  0  0  0  0  0
   -3.1479   -0.6150    1.8262 H   0  0  0  0  0  0  0  0  0  0  0  0
   -1.6561    2.8309    2.5418 H   0  0  0  0  0  0  0  0  0  0  0  0
   -2.9067    1.6428    3.2285 H   0  0  0  0  0  0  0  0  0  0  0  0
   -1.1718    1.4842    3.5846 H   0  0  0  0  0  0  0  0  0  0  0  0
    5.9287   -2.4124   -2.0300 H   0  0  0  0  0  0  0  0  0  0  0  0
    8.1575   -2.9979   -1.0375 H   0  0  0  0  0  0  0  0  0  0  0  0
  1  2  1  0
  2  3  1  0
  3  4  2  0
  4  5  1  0
  5  6  2  0
  6  7  1  0
  7  8  1  0
  8  9  2  0
  8 10  1  0
 10 11  1  0
 11 12  2  0
 12 13  1  0
 13 14  2  0
 14 15  1  0
 15 16  2  0
 15 17  1  0
 17 18  1  1
 17 19  1  0
 19 20  1  0
 20 21  1  0
 21 22  1  0
 22 23  1  0
 23 24  1  0
 24 25  2  0
 25 26  1  0
 26 27  2  0
 27 28  1  0
 28 29  2  0
 21 30  1  0
 30 31  1  0
 31 32  1  0
  6 33  1  0
 33 34  2  0
 34  3  1  0
 16 11  1  0
 30 17  1  0
 31 14  1  0
 29 24  1  0
  1 35  1  0
  1 36  1  0
  1 37  1  0
  4 38  1  0
  5 39  1  0
  7 40  1  0
 12 41  1  0
 13 42  1  0
 16 43  1  0
 18 44  1  0
 18 45  1  0
 18 46  1  0
 19 47  1  0
 19 48  1  0
 20 49  1  0
 20 50  1  0
 22 51  1  0
 22 52  1  0
 23 53  1  0
 23 54  1  0
 25 55  1  0
 26 56  1  0
 27 57  1  0
 28 58  1  0
 29 59  1  0
 30 60  1  1
 32 61  1  0
 32 62  1  0
 32 63  1  0
 33 64  1  0
 34 65  1  0
M  END
$$$$
