@<TRIPOS>MOLECULE
*****
 53 57 0 0 0
SMALL
GASTEIGER

@<TRIPOS>ATOM
      1 C          -4.7866    1.1347   -2.4863 C.3     1  UNL1        0.0124
      2 C          -3.8843    1.8747   -1.5741 C.2     1  UNL1        0.2131
      3 O          -3.3676    2.9534   -1.9862 O.2     1  UNL1       -0.2759
      4 N          -3.5939    1.3872   -0.2450 N.am    1  UNL1       -0.2899
      5 C          -4.2608    0.1612    0.0494 C.3     1  UNL1        0.0422
      6 C          -3.4662   -0.6701    0.9815 C.ar    1  UNL1       -0.0048
      7 C          -4.2260   -1.6255    1.6528 C.ar    1  UNL1       -0.0367
      8 C          -3.6444   -2.4597    2.5796 C.ar    1  UNL1        0.0414
      9 CL         -4.6222   -3.6531    3.4074 Cl      1  UNL1       -0.0835
     10 C          -2.2964   -2.3892    2.8859 C.ar    1  UNL1       -0.0414
     11 C          -1.5063   -1.4567    2.2456 C.ar    1  UNL1       -0.0361
     12 C          -2.1058   -0.6493    1.3330 C.ar    1  UNL1        0.0542
     13 N          -1.1334    0.2312    0.7429 N.ar    1  UNL1       -0.2812
     14 C          -1.3444    1.5499    0.4065 C.ar    1  UNL1        0.1554
     15 N          -0.2025    1.9947   -0.0663 N.ar    1  UNL1       -0.1323
     16 N           0.6675    1.0029   -0.0281 N.ar    1  UNL1       -0.1337
     17 C           0.1063   -0.1383    0.4799 C.ar    1  UNL1        0.1412
     18 C           0.7059   -1.4730    0.5926 C.3     1  UNL1        0.0223
     19 C           1.2016   -1.7191   -0.8809 C.3     1  UNL1       -0.0274
     20 C           2.2696   -0.7799   -1.2342 C.3     1  UNL1        0.0141
     21 N           3.0566   -0.1736   -0.2354 N.pl3   1  UNL1       -0.3151
     22 C           4.1732    0.6016   -0.6132 C.ar    1  UNL1        0.1212
     23 C           4.4536    0.7760   -1.9457 C.ar    1  UNL1       -0.0217
     24 C           5.5516    1.5362   -2.3687 C.ar    1  UNL1       -0.0571
     25 C           6.3704    2.1236   -1.4269 C.ar    1  UNL1       -0.0435
     26 C           6.0577    1.9266   -0.0969 C.ar    1  UNL1        0.0297
     27 N           4.9861    1.1840    0.2744 N.ar    1  UNL1       -0.2403
     28 C           2.7685   -0.3091    1.1714 C.3     1  UNL1        0.0141
     29 C           1.9840   -1.5865    1.3307 C.3     1  UNL1       -0.0274
     30 C          -2.6868    2.2282    0.5340 C.3     1  UNL1        0.0752
     31 H          -5.1432    1.7943   -3.2817 H       1  UNL1        0.0323
     32 H          -5.6965    0.7566   -1.9460 H       1  UNL1        0.0323
     33 H          -4.2978    0.2637   -2.9575 H       1  UNL1        0.0323
     34 H          -4.4598   -0.4502   -0.8622 H       1  UNL1        0.0515
     35 H          -5.2548    0.4193    0.5179 H       1  UNL1        0.0515
     36 H          -5.2737   -1.6810    1.4170 H       1  UNL1        0.0636
     37 H          -1.8139   -3.0306    3.6089 H       1  UNL1        0.0633
     38 H          -0.5002   -1.3533    2.5271 H       1  UNL1        0.0639
     39 H           0.0268   -2.3358    0.6667 H       1  UNL1        0.0381
     40 H           1.5815   -2.7586   -0.9586 H       1  UNL1        0.0287
     41 H           0.3312   -1.6493   -1.5649 H       1  UNL1        0.0287
     42 H           1.8205    0.0436   -1.8664 H       1  UNL1        0.0464
     43 H           2.9771   -1.2812   -1.9539 H       1  UNL1        0.0464
     44 H           3.8712    0.3569   -2.7552 H       1  UNL1        0.0652
     45 H           5.7809    1.6795   -3.4148 H       1  UNL1        0.0619
     46 H           7.2343    2.7230   -1.6825 H       1  UNL1        0.0633
     47 H           6.6894    2.3804    0.6642 H       1  UNL1        0.0830
     48 H           3.6935   -0.4565    1.7786 H       1  UNL1        0.0464
     49 H           2.2753    0.5716    1.6269 H       1  UNL1        0.0464
     50 H           1.8806   -1.8706    2.3978 H       1  UNL1        0.0287
     51 H           2.6506   -2.3963    0.9082 H       1  UNL1        0.0287
     52 H          -2.9923    2.2857    1.5995 H       1  UNL1        0.0545
     53 H          -2.6057    3.2246    0.0512 H       1  UNL1        0.0545
@<TRIPOS>BOND
     1     1     2    1
     2     2     3    2
     3     2     4   am
     4     4     5    1
     5     5     6    1
     6     6     7   ar
     7     7     8   ar
     8     8     9    1
     9     8    10   ar
    10    10    11   ar
    11    11    12   ar
    12    12    13    1
    13    13    14   ar
    14    14    15   ar
    15    15    16   ar
    16    16    17   ar
    17    17    18    1
    18    18    19    1
    19    19    20    1
    20    20    21    1
    21    21    22    1
    22    22    23   ar
    23    23    24   ar
    24    24    25   ar
    25    25    26   ar
    26    26    27   ar
    27    21    28    1
    28    28    29    1
    29    14    30    1
    30    30     4    1
    31    12     6   ar
    32    17    13   ar
    33    29    18    1
    34    27    22   ar
    35     1    31    1
    36     1    32    1
    37     1    33    1
    38     5    34    1
    39     5    35    1
    40     7    36    1
    41    10    37    1
    42    11    38    1
    43    18    39    1
    44    19    40    1
    45    19    41    1
    46    20    42    1
    47    20    43    1
    48    23    44    1
    49    24    45    1
    50    25    46    1
    51    26    47    1
    52    28    48    1
    53    28    49    1
    54    29    50    1
    55    29    51    1
    56    30    52    1
    57    30    53    1
