@<TRIPOS>MOLECULE
*****
 49 53 0 0 0
SMALL
GASTEIGER

@<TRIPOS>ATOM
      1 O          -4.2752    4.5512    0.3504 O.3     1  UNL1       -0.5067
      2 C          -3.0483    4.2794   -0.2184 C.ar    1  UNL1        0.1175
      3 C          -2.3035    5.2894   -0.7843 C.ar    1  UNL1       -0.0201
      4 C          -1.0827    4.9872   -1.3446 C.ar    1  UNL1       -0.0577
      5 C          -0.6155    3.6672   -1.3330 C.ar    1  UNL1       -0.0523
      6 C          -1.3629    2.6590   -0.7657 C.ar    1  UNL1        0.0040
      7 C          -0.9278    1.2616   -0.7125 C.ar    1  UNL1        0.0780
      8 C           0.2826    0.8427   -1.2229 C.ar    1  UNL1        0.0046
      9 C           0.6706   -0.5005   -1.1440 C.ar    1  UNL1        0.1286
     10 N           1.8903   -0.9457   -1.6658 N.pl3   1  UNL1       -0.2993
     11 C           3.1330   -0.8842   -0.9766 C.ar    1  UNL1        0.0331
     12 C           4.2748   -1.4006   -1.5523 C.ar    1  UNL1       -0.0385
     13 C           5.5198   -1.3829   -0.9735 C.ar    1  UNL1       -0.0345
     14 C           5.6322   -0.7983    0.2897 C.ar    1  UNL1        0.0658
     15 N           6.6587   -0.6056    1.1334 N.ar    1  UNL1       -0.2770
     16 N           6.2135    0.0095    2.2167 N.ar    1  UNL1       -0.1812
     17 C           4.9076    0.2369    2.1227 C.ar    1  UNL1        0.0569
     18 C           4.5049   -0.2740    0.8877 C.ar    1  UNL1        0.0212
     19 C           3.2623   -0.3115    0.2696 C.ar    1  UNL1       -0.0298
     20 N          -0.1849   -1.3480   -0.5537 N.ar    1  UNL1       -0.1992
     21 C          -1.3785   -0.9714   -0.0438 C.ar    1  UNL1        0.2202
     22 N          -2.2554   -1.8827    0.5697 N.pl3   1  UNL1       -0.2952
     23 C          -3.5822   -1.4473    0.9587 C.3     1  UNL1        0.0384
     24 C          -4.5413   -2.6466    0.8616 C.3     1  UNL1        0.0635
     25 O          -4.0036   -3.5993    1.7280 O.3     1  UNL1       -0.3767
     26 C          -2.8807   -4.1877    1.1920 C.3     1  UNL1        0.0635
     27 C          -1.7960   -3.2409    0.7932 C.3     1  UNL1        0.0384
     28 N          -1.7040    0.3280   -0.1445 N.ar    1  UNL1       -0.2142
     29 C          -2.5836    2.9831   -0.2098 C.ar    1  UNL1       -0.0110
     30 H          -4.3465    4.6927    1.3501 H       1  UNL1        0.2921
     31 H          -2.6755    6.3261   -0.7896 H       1  UNL1        0.0654
     32 H          -0.4786    5.7734   -1.7992 H       1  UNL1        0.0619
     33 H           0.3449    3.4461   -1.7756 H       1  UNL1        0.0624
     34 H           0.9580    1.5433   -1.6949 H       1  UNL1        0.0673
     35 H           1.8810   -1.3516   -2.6332 H       1  UNL1        0.1536
     36 H           4.1898   -1.8571   -2.5375 H       1  UNL1        0.0637
     37 H           6.3953   -1.7819   -1.4202 H       1  UNL1        0.0639
     38 H           7.6525   -0.9056    0.9437 H       1  UNL1        0.1889
     39 H           4.1969    0.7144    2.8047 H       1  UNL1        0.0854
     40 H           2.3976    0.1067    0.7632 H       1  UNL1        0.0643
     41 H          -3.6494   -1.0490    1.9734 H       1  UNL1        0.0487
     42 H          -3.9366   -0.6916    0.2402 H       1  UNL1        0.0487
     43 H          -5.5246   -2.2932    1.1776 H       1  UNL1        0.0575
     44 H          -4.5984   -3.0003   -0.1935 H       1  UNL1        0.0575
     45 H          -2.5023   -4.9604    1.9242 H       1  UNL1        0.0575
     46 H          -3.2012   -4.7445    0.2706 H       1  UNL1        0.0575
     47 H          -1.3151   -3.5776   -0.1699 H       1  UNL1        0.0487
     48 H          -1.0057   -3.2805    1.5897 H       1  UNL1        0.0487
     49 H          -3.2065    2.2225    0.2483 H       1  UNL1        0.0661
@<TRIPOS>BOND
     1     1     2    1
     2     2     3   ar
     3     3     4   ar
     4     4     5   ar
     5     5     6   ar
     6     6     7    1
     7     7     8   ar
     8     8     9   ar
     9     9    10    1
    10    10    11    1
    11    11    12   ar
    12    12    13   ar
    13    13    14   ar
    14    14    15   ar
    15    15    16   ar
    16    16    17   ar
    17    17    18   ar
    18    18    19   ar
    19     9    20   ar
    20    20    21   ar
    21    21    22    1
    22    22    23    1
    23    23    24    1
    24    24    25    1
    25    25    26    1
    26    26    27    1
    27    21    28   ar
    28     6    29   ar
    29    29     2   ar
    30    28     7   ar
    31    19    11   ar
    32    27    22    1
    33    18    14   ar
    34     1    30    1
    35     3    31    1
    36     4    32    1
    37     5    33    1
    38     8    34    1
    39    10    35    1
    40    12    36    1
    41    13    37    1
    42    15    38    1
    43    17    39    1
    44    19    40    1
    45    23    41    1
    46    23    42    1
    47    24    43    1
    48    24    44    1
    49    26    45    1
    50    26    46    1
    51    27    47    1
    52    27    48    1
    53    29    49    1
