
     RDKit          3D

 65 69  0  0  0  0  0  0  0  0999 V2000
   -5.6579   -0.5050   -1.5605 C   0  0  0  0  0  0  0  0  0  0  0  0
   -5.7209    0.5321   -0.4239 C   0  0  0  0  0  0  0  0  0  0  0  0
   -4.7202    0.6256    0.4546 C   0  0  0  0  0  0  0  0  0  0  0  0
   -3.5761   -0.1594    0.5760 N   0  0  0  0  0  0  0  0  0  0  0  0
   -3.6824   -1.6345    0.7313 C   0  0  0  0  0  0  0  0  0  0  0  0
   -4.8598   -2.0857    1.2775 C   0  0  0  0  0  0  0  0  0  0  0  0
   -5.9300   -1.3862    1.7967 C   0  0  0  0  0  0  0  0  0  0  0  0
   -6.8293   -0.7838    2.2530 N   0  0  0  0  0  0  0  0  0  0  0  0
   -4.9638   -3.5814    1.2742 C   0  0  0  0  0  0  0  0  0  0  0  0
   -3.8316   -3.8130    0.7191 N   0  0  0  0  0  0  0  0  0  0  0  0
   -2.8699   -4.0316    0.2465 C   0  0  0  0  0  0  0  0  0  0  0  0
   -2.6366   -2.2878    0.2190 C   0  0  0  0  0  0  0  0  0  0  0  0
   -1.2779   -1.9562    0.0990 C   0  0  0  0  0  0  0  0  0  0  0  0
   -0.5114   -2.0014    1.3387 C   0  0  0  0  0  0  0  0  0  0  0  0
    0.7584   -1.6866    1.4718 C   0  0  0  0  0  0  0  0  0  0  0  0
    1.5180   -1.2406    0.3449 C   0  0  0  0  0  0  0  0  0  0  0  0
    2.8151   -0.9621    0.6052 O   0  0  0  0  0  0  0  0  0  0  0  0
    3.8985   -0.5053   -0.1280 C   0  0  0  0  0  0  0  0  0  0  0  0
    5.0371   -0.4058    0.9092 C   0  0  0  0  0  0  0  0  0  0  0  0
    6.2259    0.0944    0.4286 N   0  0  0  0  0  0  0  0  0  0  0  0
    7.0512   -0.5568   -0.4725 C   0  0  0  0  0  0  0  0  0  0  0  0
    7.6822    0.3243   -1.5353 C   0  0  0  0  0  0  0  0  0  0  0  0
    8.4089    1.3659   -0.8398 N   0  0  0  0  0  0  0  0  0  0  0  0
    8.9497    2.2756   -1.8387 C   0  0  0  0  0  0  0  0  0  0  0  0
    7.4752    2.1428   -0.0541 C   0  0  0  0  0  0  0  0  0  0  0  0
    6.7383    1.3227    0.9610 C   0  0  0  0  0  0  0  0  0  0  0  0
    0.8202   -1.1787   -0.8058 C   0  0  0  0  0  0  0  0  0  0  0  0
   -0.5446   -1.5246   -0.9622 C   0  0  0  0  0  0  0  0  0  0  0  0
   -4.8104    1.7017    1.4234 C   0  0  0  0  0  0  0  0  0  0  0  0
   -5.8995    2.5459    1.3989 C   0  0  0  0  0  0  0  0  0  0  0  0
   -6.9263    2.4136    0.4919 C   0  0  0  0  0  0  0  0  0  0  0  0
   -8.0998    3.0576    0.2602 N   0  0  0  0  0  0  0  0  0  0  0  0
   -8.7593    2.4809   -0.7747 C   0  0  0  0  0  0  0  0  0  0  0  0
   -7.9612    1.4734   -1.1741 C   0  0  0  0  0  0  0  0  0  0  0  0
   -6.8099    1.3516   -0.4536 C   0  0  0  0  0  0  0  0  0  0  0  0
   -6.5795   -0.3298   -2.1608 H   0  0  0  0  0  0  0  0  0  0  0  0
   -5.6551   -1.5137   -1.1919 H   0  0  0  0  0  0  0  0  0  0  0  0
   -4.7643   -0.2964   -2.1626 H   0  0  0  0  0  0  0  0  0  0  0  0
   -2.6161    0.2135    0.5823 H   0  0  0  0  0  0  0  0  0  0  0  0
   -5.8023   -4.0430    1.6455 H   0  0  0  0  0  0  0  0  0  0  0  0
   -1.7739   -4.0052   -0.0873 H   0  0  0  0  0  0  0  0  0  0  0  0
   -1.1237   -2.3549    2.1905 H   0  0  0  0  0  0  0  0  0  0  0  0
    1.3127   -1.7458    2.4182 H   0  0  0  0  0  0  0  0  0  0  0  0
    4.2166   -1.2579   -0.8588 H   0  0  0  0  0  0  0  0  0  0  0  0
    3.7236    0.4800   -0.5649 H   0  0  0  0  0  0  0  0  0  0  0  0
    4.6515    0.2753    1.6948 H   0  0  0  0  0  0  0  0  0  0  0  0
    5.1318   -1.4423    1.3468 H   0  0  0  0  0  0  0  0  0  0  0  0
    6.4979   -1.3375   -1.0581 H   0  0  0  0  0  0  0  0  0  0  0  0
    7.9027   -1.1552   -0.0078 H   0  0  0  0  0  0  0  0  0  0  0  0
    6.9314    0.6982   -2.2520 H   0  0  0  0  0  0  0  0  0  0  0  0
    8.4172   -0.3007   -2.1026 H   0  0  0  0  0  0  0  0  0  0  0  0
    9.4780    1.7734   -2.6450 H   0  0  0  0  0  0  0  0  0  0  0  0
    9.5134    3.1091   -1.3655 H   0  0  0  0  0  0  0  0  0  0  0  0
    8.0659    2.7681   -2.3529 H   0  0  0  0  0  0  0  0  0  0  0  0
    8.0475    2.9301    0.4824 H   0  0  0  0  0  0  0  0  0  0  0  0
    6.8154    2.6980   -0.7292 H   0  0  0  0  0  0  0  0  0  0  0  0
    5.8942    1.9188    1.3250 H   0  0  0  0  0  0  0  0  0  0  0  0
    7.3656    1.0596    1.8139 H   0  0  0  0  0  0  0  0  0  0  0  0
    1.3215   -0.8450   -1.7060 H   0  0  0  0  0  0  0  0  0  0  0  0
   -1.0159   -1.4380   -1.9037 H   0  0  0  0  0  0  0  0  0  0  0  0
   -4.0541    1.8528    2.1457 H   0  0  0  0  0  0  0  0  0  0  0  0
   -5.9928    3.3762    2.1074 H   0  0  0  0  0  0  0  0  0  0  0  0
   -8.4433    3.8919    0.8172 H   0  0  0  0  0  0  0  0  0  0  0  0
   -9.7608    2.8054   -1.1200 H   0  0  0  0  0  0  0  0  0  0  0  0
   -8.2049    0.7933   -2.0036 H   0  0  0  0  0  0  0  0  0  0  0  0
  1  2  1  0
  2  3  2  0
  3  4  1  0
  4  5  1  0
  5  6  2  0
  6  7  1  0
  7  8  3  0
  6  9  1  0
  9 10  2  0
 10 11  1  0
 11 12  2  0
 12 13  1  0
 13 14  2  0
 14 15  1  0
 15 16  2  0
 16 17  1  0
 17 18  1  0
 18 19  1  0
 19 20  1  0
 20 21  1  0
 21 22  1  0
 22 23  1  0
 23 24  1  0
 23 25  1  0
 25 26  1  0
 16 27  1  0
 27 28  2  0
  3 29  1  0
 29 30  2  0
 30 31  1  0
 31 32  1  0
 32 33  1  0
 33 34  2  0
 34 35  1  0
 35  2  1  0
 12  5  1  0
 28 13  1  0
 35 31  2  0
 26 20  1  0
  1 36  1  0
  1 37  1  0
  1 38  1  0
  4 39  1  0
  9 40  1  0
 11 41  1  0
 14 42  1  0
 15 43  1  0
 18 44  1  0
 18 45  1  0
 19 46  1  0
 19 47  1  0
 21 48  1  0
 21 49  1  0
 22 50  1  0
 22 51  1  0
 24 52  1  0
 24 53  1  0
 24 54  1  0
 25 55  1  0
 25 56  1  0
 26 57  1  0
 26 58  1  0
 27 59  1  0
 28 60  1  0
 29 61  1  0
 30 62  1  0
 32 63  1  0
 33 64  1  0
 34 65  1  0
M  END
$$$$
