@<TRIPOS>MOLECULE
*****
 65 69 0 0 0
SMALL
GASTEIGER

@<TRIPOS>ATOM
      1 C          -5.6579   -0.5050   -1.5605 C.3     1  UNL1       -0.0373
      2 C          -5.7209    0.5321   -0.4239 C.ar    1  UNL1       -0.0202
      3 C          -4.7202    0.6256    0.4546 C.ar    1  UNL1        0.0350
      4 N          -3.5761   -0.1594    0.5760 N.pl3   1  UNL1       -0.3127
      5 C          -3.6824   -1.6345    0.7313 C.ar    1  UNL1        0.0597
      6 C          -4.8598   -2.0857    1.2775 C.ar    1  UNL1        0.0915
      7 C          -5.9300   -1.3862    1.7967 C.1     1  UNL1        0.1026
      8 N          -6.8293   -0.7838    2.2530 N.1     1  UNL1       -0.1908
      9 C          -4.9638   -3.5814    1.2742 C.ar    1  UNL1        0.0468
     10 N          -3.8316   -3.8130    0.7191 N.ar    1  UNL1       -0.2613
     11 C          -2.8699   -4.0316    0.2465 C.ar    1  UNL1        0.0371
     12 C          -2.6366   -2.2878    0.2190 C.ar    1  UNL1        0.0226
     13 C          -1.2779   -1.9562    0.0990 C.ar    1  UNL1       -0.0144
     14 C          -0.5114   -2.0014    1.3387 C.ar    1  UNL1       -0.0505
     15 C           0.7584   -1.6866    1.4718 C.ar    1  UNL1       -0.0194
     16 C           1.5180   -1.2406    0.3449 C.ar    1  UNL1        0.1206
     17 O           2.8151   -0.9621    0.6052 O.3     1  UNL1       -0.4907
     18 C           3.8985   -0.5053   -0.1280 C.3     1  UNL1        0.1022
     19 C           5.0371   -0.4058    0.9092 C.3     1  UNL1        0.0332
     20 N           6.2259    0.0944    0.4286 N.3     1  UNL1       -0.2967
     21 C           7.0512   -0.5568   -0.4725 C.3     1  UNL1        0.0118
     22 C           7.6822    0.3243   -1.5353 C.3     1  UNL1        0.0114
     23 N           8.4089    1.3659   -0.8398 N.3     1  UNL1       -0.3029
     24 C           8.9497    2.2756   -1.8387 C.3     1  UNL1       -0.0127
     25 C           7.4752    2.1428   -0.0541 C.3     1  UNL1        0.0114
     26 C           6.7383    1.3227    0.9610 C.3     1  UNL1        0.0118
     27 C           0.8202   -1.1787   -0.8058 C.ar    1  UNL1       -0.0194
     28 C          -0.5446   -1.5246   -0.9622 C.ar    1  UNL1       -0.0505
     29 C          -4.8104    1.7017    1.4234 C.ar    1  UNL1       -0.0383
     30 C          -5.8995    2.5459    1.3989 C.ar    1  UNL1       -0.0360
     31 C          -6.9263    2.4136    0.4919 C.ar    1  UNL1        0.0468
     32 N          -8.0998    3.0576    0.2602 N.ar    1  UNL1       -0.3606
     33 C          -8.7593    2.4809   -0.7747 C.ar    1  UNL1        0.0027
     34 C          -7.9612    1.4734   -1.1741 C.ar    1  UNL1       -0.0364
     35 C          -6.8099    1.3516   -0.4536 C.ar    1  UNL1        0.0043
     36 H          -6.5795   -0.3298   -2.1608 H       1  UNL1        0.0278
     37 H          -5.6551   -1.5137   -1.1919 H       1  UNL1        0.0278
     38 H          -4.7643   -0.2964   -2.1626 H       1  UNL1        0.0278
     39 H          -2.6161    0.2135    0.5823 H       1  UNL1        0.1522
     40 H          -5.8023   -4.0430    1.6455 H       1  UNL1        0.0843
     41 H          -1.7739   -4.0052   -0.0873 H       1  UNL1        0.0836
     42 H          -1.1237   -2.3549    2.1905 H       1  UNL1        0.0625
     43 H           1.3127   -1.7458    2.4182 H       1  UNL1        0.0654
     44 H           4.2166   -1.2579   -0.8588 H       1  UNL1        0.0709
     45 H           3.7236    0.4800   -0.5649 H       1  UNL1        0.0709
     46 H           4.6515    0.2753    1.6948 H       1  UNL1        0.0460
     47 H           5.1318   -1.4423    1.3468 H       1  UNL1        0.0460
     48 H           6.4979   -1.3375   -1.0581 H       1  UNL1        0.0439
     49 H           7.9027   -1.1552   -0.0078 H       1  UNL1        0.0439
     50 H           6.9314    0.6982   -2.2520 H       1  UNL1        0.0439
     51 H           8.4172   -0.3007   -2.1026 H       1  UNL1        0.0439
     52 H           9.4780    1.7734   -2.6450 H       1  UNL1        0.0391
     53 H           9.5134    3.1091   -1.3655 H       1  UNL1        0.0391
     54 H           8.0659    2.7681   -2.3529 H       1  UNL1        0.0391
     55 H           8.0475    2.9301    0.4824 H       1  UNL1        0.0439
     56 H           6.8154    2.6980   -0.7292 H       1  UNL1        0.0439
     57 H           5.8942    1.9188    1.3250 H       1  UNL1        0.0439
     58 H           7.3656    1.0596    1.8139 H       1  UNL1        0.0439
     59 H           1.3215   -0.8450   -1.7060 H       1  UNL1        0.0654
     60 H          -1.0159   -1.4380   -1.9037 H       1  UNL1        0.0625
     61 H          -4.0541    1.8528    2.1457 H       1  UNL1        0.0637
     62 H          -5.9928    3.3762    2.1074 H       1  UNL1        0.0639
     63 H          -8.4433    3.8919    0.8172 H       1  UNL1        0.1653
     64 H          -9.7608    2.8054   -1.1200 H       1  UNL1        0.0807
     65 H          -8.2049    0.7933   -2.0036 H       1  UNL1        0.0639
@<TRIPOS>BOND
     1     1     2    1
     2     2     3   ar
     3     3     4    1
     4     4     5    1
     5     5     6   ar
     6     6     7    1
     7     7     8    3
     8     6     9   ar
     9     9    10   ar
    10    10    11   ar
    11    11    12   ar
    12    12    13    1
    13    13    14   ar
    14    14    15   ar
    15    15    16   ar
    16    16    17    1
    17    17    18    1
    18    18    19    1
    19    19    20    1
    20    20    21    1
    21    21    22    1
    22    22    23    1
    23    23    24    1
    24    23    25    1
    25    25    26    1
    26    16    27   ar
    27    27    28   ar
    28     3    29   ar
    29    29    30   ar
    30    30    31   ar
    31    31    32   ar
    32    32    33   ar
    33    33    34   ar
    34    34    35   ar
    35    35     2   ar
    36    12     5   ar
    37    28    13   ar
    38    35    31   ar
    39    26    20    1
    40     1    36    1
    41     1    37    1
    42     1    38    1
    43     4    39    1
    44     9    40    1
    45    11    41    1
    46    14    42    1
    47    15    43    1
    48    18    44    1
    49    18    45    1
    50    19    46    1
    51    19    47    1
    52    21    48    1
    53    21    49    1
    54    22    50    1
    55    22    51    1
    56    24    52    1
    57    24    53    1
    58    24    54    1
    59    25    55    1
    60    25    56    1
    61    26    57    1
    62    26    58    1
    63    27    59    1
    64    28    60    1
    65    29    61    1
    66    30    62    1
    67    32    63    1
    68    33    64    1
    69    34    65    1
