
     RDKit          3D

 75 80  0  0  0  0  0  0  0  0999 V2000
   -2.2713   -6.7776   -0.3314 C   0  0  0  0  0  0  0  0  0  0  0  0
   -2.3774   -5.4324   -0.9514 C   0  0  0  0  0  0  0  0  0  0  0  0
   -1.6444   -4.3608   -0.5100 C   0  0  0  0  0  0  0  0  0  0  0  0
   -1.7215   -3.0997   -1.0652 C   0  0  0  0  0  0  0  0  0  0  0  0
   -0.9625   -1.9898   -0.6054 N   0  0  0  0  0  0  0  0  0  0  0  0
    0.3281   -1.5780   -1.0418 C   0  0  0  0  0  0  0  0  0  0  0  0
    0.8451   -1.8412   -2.1727 O   0  0  0  0  0  0  0  0  0  0  0  0
    0.9550   -0.8181   -0.0039 N   0  0  0  0  0  0  0  0  0  0  0  0
    2.2398   -0.2068    0.0156 C   0  0  0  0  0  0  0  0  0  0  0  0
    2.5070    1.0641   -0.4058 C   0  0  0  0  0  0  0  0  0  0  0  0
    3.7914    1.6076   -0.3571 C   0  0  0  0  0  0  0  0  0  0  0  0
    4.8240    0.8500    0.1273 C   0  0  0  0  0  0  0  0  0  0  0  0
    6.1746    1.3728    0.2016 C   0  0  0  0  0  0  0  0  0  0  0  0
    7.2241    0.6238   -0.3134 C   0  0  0  0  0  0  0  0  0  0  0  0
    8.4822    1.1134   -0.2548 C   0  0  0  0  0  0  0  0  0  0  0  0
    8.7718    2.3356    0.2990 C   0  0  0  0  0  0  0  0  0  0  0  0
   10.1366    2.8477    0.3549 C   0  0  0  0  0  0  0  0  0  0  0  0
   11.0547    2.1070   -0.1329 O   0  0  0  0  0  0  0  0  0  0  0  0
   10.4128    4.0856    0.9150 O   0  0  0  0  0  0  0  0  0  0  0  0
    7.7176    3.0588    0.8023 C   0  0  0  0  0  0  0  0  0  0  0  0
    6.3937    2.5980    0.7676 C   0  0  0  0  0  0  0  0  0  0  0  0
    5.3093    3.4520    1.3531 C   0  0  0  0  0  0  0  0  0  0  0  0
    4.5801   -0.4510    0.5642 C   0  0  0  0  0  0  0  0  0  0  0  0
    3.2959   -0.9503    0.4991 C   0  0  0  0  0  0  0  0  0  0  0  0
    0.0141   -0.7839    1.0616 C   0  0  0  0  0  0  0  0  0  0  0  0
    0.2240   -0.6109    2.2927 O   0  0  0  0  0  0  0  0  0  0  0  0
   -1.3119   -0.9987    0.4238 C   0  0  0  0  0  0  0  0  0  0  0  0
   -1.7356    0.3064   -0.1564 C   0  0  0  0  0  0  0  0  0  0  0  0
   -3.2147    0.4408   -0.3006 C   0  0  0  0  0  0  0  0  0  0  0  0
   -3.9618    0.1557    0.8758 N   0  0  0  0  0  0  0  0  0  0  0  0
   -5.3189   -0.1831    0.5367 C   0  0  0  0  0  0  0  0  0  0  0  0
   -6.0088    0.9493   -0.1603 C   0  0  0  0  0  0  0  0  0  0  0  0
   -6.2148    0.9501   -1.4823 N   0  0  0  0  0  0  0  0  0  0  0  0
   -6.8295    1.9623   -2.1105 C   0  0  0  0  0  0  0  0  0  0  0  0
   -7.2583    3.0294   -1.3636 C   0  0  0  0  0  0  0  0  0  0  0  0
   -7.0811    3.0952   -0.0082 C   0  0  0  0  0  0  0  0  0  0  0  0
   -6.4431    2.0289    0.5932 C   0  0  0  0  0  0  0  0  0  0  0  0
   -6.2058    2.0082    2.0672 C   0  0  0  0  0  0  0  0  0  0  0  0
   -3.3576   -0.6779    1.8477 C   0  0  0  0  0  0  0  0  0  0  0  0
   -2.3041   -1.6133    1.3746 C   0  0  0  0  0  0  0  0  0  0  0  0
   -2.5850   -2.9582   -2.1052 N   0  0  0  0  0  0  0  0  0  0  0  0
   -3.3141   -4.0144   -2.5479 C   0  0  0  0  0  0  0  0  0  0  0  0
   -3.2123   -5.2241   -1.9835 N   0  0  0  0  0  0  0  0  0  0  0  0
   -2.7650   -7.5183   -0.9892 H   0  0  0  0  0  0  0  0  0  0  0  0
   -2.8282   -6.8349    0.6449 H   0  0  0  0  0  0  0  0  0  0  0  0
   -1.2491   -7.1054   -0.1514 H   0  0  0  0  0  0  0  0  0  0  0  0
   -0.9534   -4.4893    0.3274 H   0  0  0  0  0  0  0  0  0  0  0  0
    1.6932    1.6546   -0.7853 H   0  0  0  0  0  0  0  0  0  0  0  0
    3.9032    2.6121   -0.7140 H   0  0  0  0  0  0  0  0  0  0  0  0
    6.9888   -0.3552   -0.7570 H   0  0  0  0  0  0  0  0  0  0  0  0
    9.3192    0.5455   -0.6508 H   0  0  0  0  0  0  0  0  0  0  0  0
   11.3747    4.4334    0.7837 H   0  0  0  0  0  0  0  0  0  0  0  0
    7.9219    4.0211    1.2416 H   0  0  0  0  0  0  0  0  0  0  0  0
    5.7799    3.9216    2.2631 H   0  0  0  0  0  0  0  0  0  0  0  0
    4.9788    4.2320    0.6405 H   0  0  0  0  0  0  0  0  0  0  0  0
    4.4602    2.8332    1.6334 H   0  0  0  0  0  0  0  0  0  0  0  0
    5.4277   -1.0161    0.9407 H   0  0  0  0  0  0  0  0  0  0  0  0
    3.1343   -1.9585    0.8434 H   0  0  0  0  0  0  0  0  0  0  0  0
   -1.3839    1.1746    0.4641 H   0  0  0  0  0  0  0  0  0  0  0  0
   -1.2792    0.4004   -1.1638 H   0  0  0  0  0  0  0  0  0  0  0  0
   -3.4198    1.5056   -0.5777 H   0  0  0  0  0  0  0  0  0  0  0  0
   -3.6023   -0.1489   -1.1835 H   0  0  0  0  0  0  0  0  0  0  0  0
   -5.3368   -1.0423   -0.1927 H   0  0  0  0  0  0  0  0  0  0  0  0
   -5.9234   -0.4739    1.4117 H   0  0  0  0  0  0  0  0  0  0  0  0
   -6.9977    1.9644   -3.1889 H   0  0  0  0  0  0  0  0  0  0  0  0
   -7.7628    3.8694   -1.8492 H   0  0  0  0  0  0  0  0  0  0  0  0
   -7.4287    3.9449    0.5497 H   0  0  0  0  0  0  0  0  0  0  0  0
   -5.1374    2.1805    2.3137 H   0  0  0  0  0  0  0  0  0  0  0  0
   -6.7858    2.8466    2.5026 H   0  0  0  0  0  0  0  0  0  0  0  0
   -6.6155    1.0908    2.5389 H   0  0  0  0  0  0  0  0  0  0  0  0
   -4.1261   -1.3016    2.3884 H   0  0  0  0  0  0  0  0  0  0  0  0
   -2.9088   -0.0399    2.6615 H   0  0  0  0  0  0  0  0  0  0  0  0
   -2.7125   -2.5825    0.9624 H   0  0  0  0  0  0  0  0  0  0  0  0
   -1.7109   -1.9376    2.2805 H   0  0  0  0  0  0  0  0  0  0  0  0
   -4.0015   -3.8988   -3.3764 H   0  0  0  0  0  0  0  0  0  0  0  0
  1  2  1  0
  2  3  2  0
  3  4  1  0
  4  5  1  0
  5  6  1  0
  6  7  2  0
  6  8  1  0
  8  9  1  0
  9 10  2  0
 10 11  1  0
 11 12  2  0
 12 13  1  0
 13 14  2  0
 14 15  1  0
 15 16  2  0
 16 17  1  0
 17 18  2  0
 17 19  1  0
 16 20  1  0
 20 21  2  0
 21 22  1  0
 12 23  1  0
 23 24  2  0
  8 25  1  0
 25 26  2  0
 25 27  1  0
 27 28  1  0
 28 29  1  0
 29 30  1  0
 30 31  1  0
 31 32  1  0
 32 33  2  0
 33 34  1  0
 34 35  2  0
 35 36  1  0
 36 37  2  0
 37 38  1  0
 30 39  1  0
 39 40  1  0
  4 41  2  0
 41 42  1  0
 42 43  2  0
 43  2  1  0
 27  5  1  0
 37 32  1  0
 24  9  1  0
 40 27  1  0
 21 13  1  0
  1 44  1  0
  1 45  1  0
  1 46  1  0
  3 47  1  0
 10 48  1  0
 11 49  1  0
 14 50  1  0
 15 51  1  0
 19 52  1  0
 20 53  1  0
 22 54  1  0
 22 55  1  0
 22 56  1  0
 23 57  1  0
 24 58  1  0
 28 59  1  0
 28 60  1  0
 29 61  1  0
 29 62  1  0
 31 63  1  0
 31 64  1  0
 34 65  1  0
 35 66  1  0
 36 67  1  0
 38 68  1  0
 38 69  1  0
 38 70  1  0
 39 71  1  0
 39 72  1  0
 40 73  1  0
 40 74  1  0
 42 75  1  0
M  END
$$$$
