@<TRIPOS>MOLECULE
*****
 75 80 0 0 0
SMALL
GASTEIGER

@<TRIPOS>ATOM
      1 C          -2.2713   -6.7776   -0.3314 C.3     1  UNL1       -0.0222
      2 C          -2.3774   -5.4324   -0.9514 C.ar    1  UNL1        0.0432
      3 C          -1.6444   -4.3608   -0.5100 C.ar    1  UNL1       -0.0002
      4 C          -1.7215   -3.0997   -1.0652 C.ar    1  UNL1        0.1330
      5 N          -0.9625   -1.9898   -0.6054 N.am    1  UNL1       -0.2241
      6 C           0.3281   -1.5780   -1.0418 C.2     1  UNL1        0.3219
      7 O           0.8451   -1.8412   -2.1727 O.2     1  UNL1       -0.2512
      8 N           0.9550   -0.8181   -0.0039 N.am    1  UNL1       -0.1920
      9 C           2.2398   -0.2068    0.0156 C.ar    1  UNL1        0.0455
     10 C           2.5070    1.0641   -0.4058 C.ar    1  UNL1       -0.0392
     11 C           3.7914    1.6076   -0.3571 C.ar    1  UNL1       -0.0523
     12 C           4.8240    0.8500    0.1273 C.ar    1  UNL1       -0.0175
     13 C           6.1746    1.3728    0.2016 C.ar    1  UNL1       -0.0149
     14 C           7.2241    0.6238   -0.3134 C.ar    1  UNL1       -0.0530
     15 C           8.4822    1.1134   -0.2548 C.ar    1  UNL1       -0.0472
     16 C           8.7718    2.3356    0.2990 C.ar    1  UNL1        0.0591
     17 C          10.1366    2.8477    0.3549 C.2     1  UNL1        0.3368
     18 O          11.0547    2.1070   -0.1329 O.2     1  UNL1       -0.2451
     19 O          10.4128    4.0856    0.9150 O.3     1  UNL1       -0.4771
     20 C           7.7176    3.0588    0.8023 C.ar    1  UNL1       -0.0443
     21 C           6.3937    2.5980    0.7676 C.ar    1  UNL1       -0.0420
     22 C           5.3093    3.4520    1.3531 C.3     1  UNL1       -0.0391
     23 C           4.5801   -0.4510    0.5642 C.ar    1  UNL1       -0.0523
     24 C           3.2959   -0.9503    0.4991 C.ar    1  UNL1       -0.0392
     25 C           0.0141   -0.7839    1.0616 C.2     1  UNL1        0.2516
     26 O           0.2240   -0.6109    2.2927 O.2     1  UNL1       -0.2724
     27 C          -1.3119   -0.9987    0.4238 C.3     1  UNL1        0.1240
     28 C          -1.7356    0.3064   -0.1564 C.3     1  UNL1       -0.0095
     29 C          -3.2147    0.4408   -0.3006 C.3     1  UNL1        0.0017
     30 N          -3.9618    0.1557    0.8758 N.3     1  UNL1       -0.2965
     31 C          -5.3189   -0.1831    0.5367 C.3     1  UNL1        0.0415
     32 C          -6.0088    0.9493   -0.1603 C.ar    1  UNL1        0.0581
     33 N          -6.2148    0.9501   -1.4823 N.ar    1  UNL1       -0.2583
     34 C          -6.8295    1.9623   -2.1105 C.ar    1  UNL1        0.0279
     35 C          -7.2583    3.0294   -1.3636 C.ar    1  UNL1       -0.0433
     36 C          -7.0811    3.0952   -0.0082 C.ar    1  UNL1       -0.0557
     37 C          -6.4431    2.0289    0.5932 C.ar    1  UNL1       -0.0279
     38 C          -6.2058    2.0082    2.0672 C.3     1  UNL1       -0.0380
     39 C          -3.3576   -0.6779    1.8477 C.3     1  UNL1        0.0017
     40 C          -2.3041   -1.6133    1.3746 C.3     1  UNL1       -0.0095
     41 N          -2.5850   -2.9582   -2.1052 N.ar    1  UNL1       -0.2203
     42 C          -3.3141   -4.0144   -2.5479 C.ar    1  UNL1        0.1183
     43 N          -3.2123   -5.2241   -1.9835 N.ar    1  UNL1       -0.2405
     44 H          -2.7650   -7.5183   -0.9892 H       1  UNL1        0.0293
     45 H          -2.8282   -6.8349    0.6449 H       1  UNL1        0.0293
     46 H          -1.2491   -7.1054   -0.1514 H       1  UNL1        0.0293
     47 H          -0.9534   -4.4893    0.3274 H       1  UNL1        0.0670
     48 H           1.6932    1.6546   -0.7853 H       1  UNL1        0.0636
     49 H           3.9032    2.6121   -0.7140 H       1  UNL1        0.0624
     50 H           6.9888   -0.3552   -0.7570 H       1  UNL1        0.0624
     51 H           9.3192    0.5455   -0.6508 H       1  UNL1        0.0626
     52 H          11.3747    4.4334    0.7837 H       1  UNL1        0.2954
     53 H           7.9219    4.0211    1.2416 H       1  UNL1        0.0628
     54 H           5.7799    3.9216    2.2631 H       1  UNL1        0.0278
     55 H           4.9788    4.2320    0.6405 H       1  UNL1        0.0278
     56 H           4.4602    2.8332    1.6334 H       1  UNL1        0.0278
     57 H           5.4277   -1.0161    0.9407 H       1  UNL1        0.0624
     58 H           3.1343   -1.9585    0.8434 H       1  UNL1        0.0636
     59 H          -1.3839    1.1746    0.4641 H       1  UNL1        0.0303
     60 H          -1.2792    0.4004   -1.1638 H       1  UNL1        0.0303
     61 H          -3.4198    1.5056   -0.5777 H       1  UNL1        0.0427
     62 H          -3.6023   -0.1489   -1.1835 H       1  UNL1        0.0427
     63 H          -5.3368   -1.0423   -0.1927 H       1  UNL1        0.0491
     64 H          -5.9234   -0.4739    1.4117 H       1  UNL1        0.0491
     65 H          -6.9977    1.9644   -3.1889 H       1  UNL1        0.0829
     66 H          -7.7628    3.8694   -1.8492 H       1  UNL1        0.0633
     67 H          -7.4287    3.9449    0.5497 H       1  UNL1        0.0621
     68 H          -5.1374    2.1805    2.3137 H       1  UNL1        0.0278
     69 H          -6.7858    2.8466    2.5026 H       1  UNL1        0.0278
     70 H          -6.6155    1.0908    2.5389 H       1  UNL1        0.0278
     71 H          -4.1261   -1.3016    2.3884 H       1  UNL1        0.0427
     72 H          -2.9088   -0.0399    2.6615 H       1  UNL1        0.0427
     73 H          -2.7125   -2.5825    0.9624 H       1  UNL1        0.0303
     74 H          -1.7109   -1.9376    2.2805 H       1  UNL1        0.0303
     75 H          -4.0015   -3.8988   -3.3764 H       1  UNL1        0.1047
@<TRIPOS>BOND
     1     1     2    1
     2     2     3   ar
     3     3     4   ar
     4     4     5    1
     5     5     6   am
     6     6     7    2
     7     6     8   am
     8     8     9    1
     9     9    10   ar
    10    10    11   ar
    11    11    12   ar
    12    12    13    1
    13    13    14   ar
    14    14    15   ar
    15    15    16   ar
    16    16    17    1
    17    17    18    2
    18    17    19    1
    19    16    20   ar
    20    20    21   ar
    21    21    22    1
    22    12    23   ar
    23    23    24   ar
    24     8    25   am
    25    25    26    2
    26    25    27    1
    27    27    28    1
    28    28    29    1
    29    29    30    1
    30    30    31    1
    31    31    32    1
    32    32    33   ar
    33    33    34   ar
    34    34    35   ar
    35    35    36   ar
    36    36    37   ar
    37    37    38    1
    38    30    39    1
    39    39    40    1
    40     4    41   ar
    41    41    42   ar
    42    42    43   ar
    43    43     2   ar
    44    27     5    1
    45    37    32   ar
    46    24     9   ar
    47    40    27    1
    48    21    13   ar
    49     1    44    1
    50     1    45    1
    51     1    46    1
    52     3    47    1
    53    10    48    1
    54    11    49    1
    55    14    50    1
    56    15    51    1
    57    19    52    1
    58    20    53    1
    59    22    54    1
    60    22    55    1
    61    22    56    1
    62    23    57    1
    63    24    58    1
    64    28    59    1
    65    28    60    1
    66    29    61    1
    67    29    62    1
    68    31    63    1
    69    31    64    1
    70    34    65    1
    71    35    66    1
    72    36    67    1
    73    38    68    1
    74    38    69    1
    75    38    70    1
    76    39    71    1
    77    39    72    1
    78    40    73    1
    79    40    74    1
    80    42    75    1
