@<TRIPOS>MOLECULE
*****
 48 49 0 0 0
SMALL
GASTEIGER

@<TRIPOS>ATOM
      1 C          -6.0394    1.9855    0.4713 C.3     1  UNL1       -0.0653
      2 C          -5.7222    1.0208   -0.6116 C.3     1  UNL1       -0.0559
      3 C          -5.7925   -0.4220   -0.2074 C.3     1  UNL1       -0.0533
      4 C          -4.8654   -0.7978    0.8892 C.3     1  UNL1       -0.0531
      5 C          -3.4288   -0.5292    0.4886 C.3     1  UNL1       -0.0530
      6 C          -2.9881   -1.2841   -0.7112 C.3     1  UNL1       -0.0528
      7 C          -1.5610   -0.9432   -1.0428 C.3     1  UNL1       -0.0491
      8 C          -0.6486   -1.2981    0.0942 C.3     1  UNL1       -0.0276
      9 C           0.7319   -0.9565   -0.3226 C.ar    1  UNL1       -0.0437
     10 C           1.5105   -1.8812   -0.9631 C.ar    1  UNL1       -0.0549
     11 C           2.8173   -1.5676   -1.3610 C.ar    1  UNL1       -0.0154
     12 C           3.2840   -0.3075   -1.0866 C.ar    1  UNL1        0.1696
     13 O           4.5656    0.0271   -1.4681 O.3     1  UNL1       -0.4524
     14 C           5.4815    0.3742   -0.4891 C.ar    1  UNL1        0.1286
     15 C           5.2220    0.3132    0.8584 C.ar    1  UNL1       -0.0193
     16 C           6.1960    0.6814    1.7918 C.ar    1  UNL1       -0.0583
     17 C           7.4367    1.1122    1.3509 C.ar    1  UNL1       -0.0615
     18 C           7.7226    1.1822    0.0019 C.ar    1  UNL1       -0.0583
     19 C           6.7385    0.8117   -0.8855 C.ar    1  UNL1       -0.0193
     20 C           2.5137    0.6269   -0.4463 C.ar    1  UNL1        0.1593
     21 O           2.9829    1.9240   -0.1615 O.3     1  UNL1       -0.5033
     22 C           1.2220    0.2911   -0.0621 C.ar    1  UNL1       -0.0133
     23 H          -5.5125    2.9589    0.3566 H       1  UNL1        0.0230
     24 H          -7.1370    2.2410    0.4469 H       1  UNL1        0.0230
     25 H          -5.8570    1.6007    1.4932 H       1  UNL1        0.0230
     26 H          -4.7431    1.2807   -1.0536 H       1  UNL1        0.0263
     27 H          -6.4673    1.1525   -1.4474 H       1  UNL1        0.0263
     28 H          -5.5763   -1.0419   -1.0968 H       1  UNL1        0.0265
     29 H          -6.8564   -0.7007    0.0625 H       1  UNL1        0.0265
     30 H          -5.1073   -0.3618    1.8691 H       1  UNL1        0.0265
     31 H          -4.9613   -1.9137    1.0288 H       1  UNL1        0.0265
     32 H          -3.2689    0.5477    0.3035 H       1  UNL1        0.0265
     33 H          -2.8269   -0.8981    1.3732 H       1  UNL1        0.0265
     34 H          -3.6310   -0.9673   -1.5761 H       1  UNL1        0.0265
     35 H          -3.1442   -2.3827   -0.6321 H       1  UNL1        0.0265
     36 H          -1.2626   -1.4827   -1.9898 H       1  UNL1        0.0268
     37 H          -1.4504    0.1372   -1.3201 H       1  UNL1        0.0268
     38 H          -0.9137   -0.6916    1.0121 H       1  UNL1        0.0313
     39 H          -0.7433   -2.3480    0.4073 H       1  UNL1        0.0313
     40 H           1.1471   -2.8872   -1.1858 H       1  UNL1        0.0621
     41 H           3.4045   -2.3238   -1.8653 H       1  UNL1        0.0655
     42 H           4.2701   -0.0236    1.2188 H       1  UNL1        0.0654
     43 H           5.9722    0.6265    2.8431 H       1  UNL1        0.0619
     44 H           8.1838    1.3950    2.0850 H       1  UNL1        0.0618
     45 H           8.6957    1.5213   -0.2875 H       1  UNL1        0.0619
     46 H           6.9427    0.8596   -1.9396 H       1  UNL1        0.0654
     47 H           2.8277    2.2771    0.7714 H       1  UNL1        0.2923
     48 H           0.6363    1.0621    0.4470 H       1  UNL1        0.0658
@<TRIPOS>BOND
     1     1     2    1
     2     2     3    1
     3     3     4    1
     4     4     5    1
     5     5     6    1
     6     6     7    1
     7     7     8    1
     8     8     9    1
     9     9    10   ar
    10    10    11   ar
    11    11    12   ar
    12    12    13    1
    13    13    14    1
    14    14    15   ar
    15    15    16   ar
    16    16    17   ar
    17    17    18   ar
    18    18    19   ar
    19    12    20   ar
    20    20    21    1
    21    20    22   ar
    22    22     9   ar
    23    19    14   ar
    24     1    23    1
    25     1    24    1
    26     1    25    1
    27     2    26    1
    28     2    27    1
    29     3    28    1
    30     3    29    1
    31     4    30    1
    32     4    31    1
    33     5    32    1
    34     5    33    1
    35     6    34    1
    36     6    35    1
    37     7    36    1
    38     7    37    1
    39     8    38    1
    40     8    39    1
    41    10    40    1
    42    11    41    1
    43    15    42    1
    44    16    43    1
    45    17    44    1
    46    18    45    1
    47    19    46    1
    48    21    47    1
    49    22    48    1
