
     RDKit          3D

 48 49  0  0  0  0  0  0  0  0999 V2000
   -6.0394    1.9855    0.4713 C   0  0  0  0  0  0  0  0  0  0  0  0
   -5.7222    1.0208   -0.6116 C   0  0  0  0  0  0  0  0  0  0  0  0
   -5.7925   -0.4220   -0.2074 C   0  0  0  0  0  0  0  0  0  0  0  0
   -4.8654   -0.7978    0.8892 C   0  0  0  0  0  0  0  0  0  0  0  0
   -3.4288   -0.5292    0.4886 C   0  0  0  0  0  0  0  0  0  0  0  0
   -2.9881   -1.2841   -0.7112 C   0  0  0  0  0  0  0  0  0  0  0  0
   -1.5610   -0.9432   -1.0428 C   0  0  0  0  0  0  0  0  0  0  0  0
   -0.6486   -1.2981    0.0942 C   0  0  0  0  0  0  0  0  0  0  0  0
    0.7319   -0.9565   -0.3226 C   0  0  0  0  0  0  0  0  0  0  0  0
    1.5105   -1.8812   -0.9631 C   0  0  0  0  0  0  0  0  0  0  0  0
    2.8173   -1.5676   -1.3610 C   0  0  0  0  0  0  0  0  0  0  0  0
    3.2840   -0.3075   -1.0866 C   0  0  0  0  0  0  0  0  0  0  0  0
    4.5656    0.0271   -1.4681 O   0  0  0  0  0  0  0  0  0  0  0  0
    5.4815    0.3742   -0.4891 C   0  0  0  0  0  0  0  0  0  0  0  0
    5.2220    0.3132    0.8584 C   0  0  0  0  0  0  0  0  0  0  0  0
    6.1960    0.6814    1.7918 C   0  0  0  0  0  0  0  0  0  0  0  0
    7.4367    1.1122    1.3509 C   0  0  0  0  0  0  0  0  0  0  0  0
    7.7226    1.1822    0.0019 C   0  0  0  0  0  0  0  0  0  0  0  0
    6.7385    0.8117   -0.8855 C   0  0  0  0  0  0  0  0  0  0  0  0
    2.5137    0.6269   -0.4463 C   0  0  0  0  0  0  0  0  0  0  0  0
    2.9829    1.9240   -0.1615 O   0  0  0  0  0  0  0  0  0  0  0  0
    1.2220    0.2911   -0.0621 C   0  0  0  0  0  0  0  0  0  0  0  0
   -5.5125    2.9589    0.3566 H   0  0  0  0  0  0  0  0  0  0  0  0
   -7.1370    2.2410    0.4469 H   0  0  0  0  0  0  0  0  0  0  0  0
   -5.8570    1.6007    1.4932 H   0  0  0  0  0  0  0  0  0  0  0  0
   -4.7431    1.2807   -1.0536 H   0  0  0  0  0  0  0  0  0  0  0  0
   -6.4673    1.1525   -1.4474 H   0  0  0  0  0  0  0  0  0  0  0  0
   -5.5763   -1.0419   -1.0968 H   0  0  0  0  0  0  0  0  0  0  0  0
   -6.8564   -0.7007    0.0625 H   0  0  0  0  0  0  0  0  0  0  0  0
   -5.1073   -0.3618    1.8691 H   0  0  0  0  0  0  0  0  0  0  0  0
   -4.9613   -1.9137    1.0288 H   0  0  0  0  0  0  0  0  0  0  0  0
   -3.2689    0.5477    0.3035 H   0  0  0  0  0  0  0  0  0  0  0  0
   -2.8269   -0.8981    1.3732 H   0  0  0  0  0  0  0  0  0  0  0  0
   -3.6310   -0.9673   -1.5761 H   0  0  0  0  0  0  0  0  0  0  0  0
   -3.1442   -2.3827   -0.6321 H   0  0  0  0  0  0  0  0  0  0  0  0
   -1.2626   -1.4827   -1.9898 H   0  0  0  0  0  0  0  0  0  0  0  0
   -1.4504    0.1372   -1.3201 H   0  0  0  0  0  0  0  0  0  0  0  0
   -0.9137   -0.6916    1.0121 H   0  0  0  0  0  0  0  0  0  0  0  0
   -0.7433   -2.3480    0.4073 H   0  0  0  0  0  0  0  0  0  0  0  0
    1.1471   -2.8872   -1.1858 H   0  0  0  0  0  0  0  0  0  0  0  0
    3.4045   -2.3238   -1.8653 H   0  0  0  0  0  0  0  0  0  0  0  0
    4.2701   -0.0236    1.2188 H   0  0  0  0  0  0  0  0  0  0  0  0
    5.9722    0.6265    2.8431 H   0  0  0  0  0  0  0  0  0  0  0  0
    8.1838    1.3950    2.0850 H   0  0  0  0  0  0  0  0  0  0  0  0
    8.6957    1.5213   -0.2875 H   0  0  0  0  0  0  0  0  0  0  0  0
    6.9427    0.8596   -1.9396 H   0  0  0  0  0  0  0  0  0  0  0  0
    2.8277    2.2771    0.7714 H   0  0  0  0  0  0  0  0  0  0  0  0
    0.6363    1.0621    0.4470 H   0  0  0  0  0  0  0  0  0  0  0  0
  1  2  1  0
  2  3  1  0
  3  4  1  0
  4  5  1  0
  5  6  1  0
  6  7  1  0
  7  8  1  0
  8  9  1  0
  9 10  2  0
 10 11  1  0
 11 12  2  0
 12 13  1  0
 13 14  1  0
 14 15  2  0
 15 16  1  0
 16 17  2  0
 17 18  1  0
 18 19  2  0
 12 20  1  0
 20 21  1  0
 20 22  2  0
 22  9  1  0
 19 14  1  0
  1 23  1  0
  1 24  1  0
  1 25  1  0
  2 26  1  0
  2 27  1  0
  3 28  1  0
  3 29  1  0
  4 30  1  0
  4 31  1  0
  5 32  1  0
  5 33  1  0
  6 34  1  0
  6 35  1  0
  7 36  1  0
  7 37  1  0
  8 38  1  0
  8 39  1  0
 10 40  1  0
 11 41  1  0
 15 42  1  0
 16 43  1  0
 17 44  1  0
 18 45  1  0
 19 46  1  0
 21 47  1  0
 22 48  1  0
M  END
$$$$
