
     RDKit          3D

 54 58  0  0  0  0  0  0  0  0999 V2000
   -3.8154   -0.2573   -2.1420 C   0  0  0  0  0  0  0  0  0  0  0  0
   -3.4666   -0.0541   -0.6678 C   0  0  1  0  0  0  0  0  0  0  0  0
   -2.1668   -0.1691   -0.4100 O   0  0  0  0  0  0  0  0  0  0  0  0
   -1.1402   -0.7242    0.1976 C   0  0  0  0  0  0  0  0  0  0  0  0
    0.1764   -0.2508   -0.0561 C   0  0  0  0  0  0  0  0  0  0  0  0
    1.2541   -0.7772    0.5327 C   0  0  0  0  0  0  0  0  0  0  0  0
    2.6270   -0.3241    0.3025 C   0  0  0  0  0  0  0  0  0  0  0  0
    3.5657   -0.4004    1.2872 C   0  0  0  0  0  0  0  0  0  0  0  0
    4.8823    0.0121    1.1303 C   0  0  0  0  0  0  0  0  0  0  0  0
    5.2641    0.5328   -0.1022 C   0  0  0  0  0  0  0  0  0  0  0  0
    4.3124    0.6096   -1.0987 C   0  0  0  0  0  0  0  0  0  0  0  0
    3.0090    0.1938   -0.9214 C   0  0  0  0  0  0  0  0  0  0  0  0
    4.9917    1.1634   -2.1887 C   0  0  0  0  0  0  0  0  0  0  0  0
    4.3568    1.4121   -3.4388 N   0  0  0  0  0  0  0  0  0  0  0  0
    6.2499    1.3747   -1.7967 N   0  0  0  0  0  0  0  0  0  0  0  0
    6.4483    1.0077   -0.5502 N   0  0  0  0  0  0  0  0  0  0  0  0
    7.7037    1.0930    0.2130 C   0  0  0  0  0  0  0  0  0  0  0  0
    1.0849   -1.8127    1.4146 C   0  0  0  0  0  0  0  0  0  0  0  0
   -0.1676   -2.3080    1.6949 C   0  0  0  0  0  0  0  0  0  0  0  0
   -0.5812   -3.3132    2.5207 N   0  0  0  0  0  0  0  0  0  0  0  0
   -1.8847   -3.4020    2.4408 N   0  0  0  0  0  0  0  0  0  0  0  0
   -2.6768   -4.3557    3.1758 C   0  0  0  0  0  0  0  0  0  0  0  0
   -2.3895   -2.4929    1.5879 C   0  0  0  0  0  0  0  0  0  0  0  0
   -1.2900   -1.7829    1.1020 C   0  0  0  0  0  0  0  0  0  0  0  0
   -3.9480    1.3120   -0.2010 C   0  0  1  0  0  0  0  0  0  0  0  0
   -3.3649    2.4565   -0.9432 C   0  0  0  0  0  0  0  0  0  0  0  0
   -4.3160    3.5398   -0.6839 N   0  0  0  0  0  0  0  0  0  0  0  0
   -5.5004    3.0077   -0.1134 C   0  0  0  0  0  0  0  0  0  0  0  0
   -6.4562    3.6127    0.4230 O   0  0  0  0  0  0  0  0  0  0  0  0
   -5.4135    1.5197   -0.2673 C   0  0  0  0  0  0  0  0  0  0  0  0
   -4.1713   -1.2947   -2.2700 H   0  0  0  0  0  0  0  0  0  0  0  0
   -2.9035   -0.0595   -2.7558 H   0  0  0  0  0  0  0  0  0  0  0  0
   -4.5862    0.4274   -2.4683 H   0  0  0  0  0  0  0  0  0  0  0  0
   -4.1142   -0.7743   -0.1274 H   0  0  0  0  0  0  0  0  0  0  0  0
    0.2724    0.5646   -0.7550 H   0  0  0  0  0  0  0  0  0  0  0  0
    3.2985   -0.8035    2.2652 H   0  0  0  0  0  0  0  0  0  0  0  0
    5.6259   -0.0404    1.8870 H   0  0  0  0  0  0  0  0  0  0  0  0
    2.3319    0.2849   -1.7383 H   0  0  0  0  0  0  0  0  0  0  0  0
    4.5541    0.7288   -4.2045 H   0  0  0  0  0  0  0  0  0  0  0  0
    3.7233    2.2254   -3.6099 H   0  0  0  0  0  0  0  0  0  0  0  0
    8.4354    0.3462   -0.1121 H   0  0  0  0  0  0  0  0  0  0  0  0
    8.0952    2.1402    0.0651 H   0  0  0  0  0  0  0  0  0  0  0  0
    7.5125    0.9766    1.2880 H   0  0  0  0  0  0  0  0  0  0  0  0
    1.9323   -2.2764    1.9206 H   0  0  0  0  0  0  0  0  0  0  0  0
   -2.0810   -5.2992    3.2726 H   0  0  0  0  0  0  0  0  0  0  0  0
   -3.6417   -4.5027    2.6889 H   0  0  0  0  0  0  0  0  0  0  0  0
   -2.8346   -4.0159    4.2341 H   0  0  0  0  0  0  0  0  0  0  0  0
   -3.4069   -2.3201    1.3145 H   0  0  0  0  0  0  0  0  0  0  0  0
   -3.6471    1.3726    0.8683 H   0  0  0  0  0  0  0  0  0  0  0  0
   -2.3454    2.7442   -0.5980 H   0  0  0  0  0  0  0  0  0  0  0  0
   -3.3752    2.2912   -2.0484 H   0  0  0  0  0  0  0  0  0  0  0  0
   -4.1589    4.5506   -0.8838 H   0  0  0  0  0  0  0  0  0  0  0  0
   -5.9622    1.0066    0.5533 H   0  0  0  0  0  0  0  0  0  0  0  0
   -5.9019    1.3043   -1.2280 H   0  0  0  0  0  0  0  0  0  0  0  0
  1  2  1  0
  2  3  1  0
  3  4  1  0
  4  5  2  0
  5  6  1  0
  6  7  1  0
  7  8  2  0
  8  9  1  0
  9 10  2  0
 10 11  1  0
 11 12  2  0
 11 13  1  0
 13 14  1  0
 13 15  2  0
 15 16  1  0
 16 17  1  0
  6 18  2  0
 18 19  1  0
 19 20  2  0
 20 21  1  0
 21 22  1  0
 21 23  1  0
 23 24  2  0
  2 25  1  0
 25 26  1  0
 26 27  1  0
 27 28  1  0
 28 29  2  0
 28 30  1  0
 24  4  1  0
 30 25  1  0
 12  7  1  0
 24 19  1  0
 16 10  1  0
  1 31  1  0
  1 32  1  0
  1 33  1  0
  2 34  1  1
  5 35  1  0
  8 36  1  0
  9 37  1  0
 12 38  1  0
 14 39  1  0
 14 40  1  0
 17 41  1  0
 17 42  1  0
 17 43  1  0
 18 44  1  0
 22 45  1  0
 22 46  1  0
 22 47  1  0
 23 48  1  0
 25 49  1  1
 26 50  1  0
 26 51  1  0
 27 52  1  0
 30 53  1  0
 30 54  1  0
M  END
$$$$
