@<TRIPOS>MOLECULE
*****
 54 58 0 0 0
SMALL
GASTEIGER

@<TRIPOS>ATOM
      1 C          -3.8154   -0.2573   -2.1420 C.3     1  UNL1       -0.0275
      2 C          -3.4666   -0.0541   -0.6678 C.3     1  UNL1        0.1021
      3 O          -2.1668   -0.1691   -0.4100 O.3     1  UNL1       -0.4880
      4 C          -1.1402   -0.7242    0.1976 C.ar    1  UNL1        0.1321
      5 C           0.1764   -0.2508   -0.0561 C.ar    1  UNL1       -0.0114
      6 C           1.2541   -0.7772    0.5327 C.ar    1  UNL1       -0.0123
      7 C           2.6270   -0.3241    0.3025 C.ar    1  UNL1       -0.0169
      8 C           3.5657   -0.4004    1.2872 C.ar    1  UNL1       -0.0520
      9 C           4.8823    0.0121    1.1303 C.ar    1  UNL1       -0.0354
     10 C           5.2641    0.5328   -0.1022 C.ar    1  UNL1        0.0705
     11 C           4.3124    0.6096   -1.0987 C.ar    1  UNL1        0.0417
     12 C           3.0090    0.1938   -0.9214 C.ar    1  UNL1       -0.0415
     13 C           4.9917    1.1634   -2.1887 C.ar    1  UNL1        0.1459
     14 N           4.3568    1.4121   -3.4388 N.pl3   1  UNL1       -0.3412
     15 N           6.2499    1.3747   -1.7967 N.ar    1  UNL1       -0.1556
     16 N           6.4483    1.0077   -0.5502 N.ar    1  UNL1       -0.2650
     17 C           7.7037    1.0930    0.2130 C.3     1  UNL1        0.0309
     18 C           1.0849   -1.8127    1.4146 C.ar    1  UNL1       -0.0260
     19 C          -0.1676   -2.3080    1.6949 C.ar    1  UNL1        0.0968
     20 N          -0.5812   -3.3132    2.5207 N.ar    1  UNL1       -0.1713
     21 N          -1.8847   -3.4020    2.4408 N.ar    1  UNL1       -0.2732
     22 C          -2.6768   -4.3557    3.1758 C.3     1  UNL1        0.0302
     23 C          -2.3895   -2.4929    1.5879 C.ar    1  UNL1        0.0364
     24 C          -1.2900   -1.7829    1.1020 C.ar    1  UNL1        0.0614
     25 C          -3.9480    1.3120   -0.2010 C.3     1  UNL1        0.0195
     26 C          -3.3649    2.4565   -0.9432 C.3     1  UNL1        0.0182
     27 N          -4.3160    3.5398   -0.6839 N.am    1  UNL1       -0.3149
     28 C          -5.5004    3.0077   -0.1134 C.2     1  UNL1        0.2135
     29 O          -6.4562    3.6127    0.4230 O.2     1  UNL1       -0.2758
     30 C          -5.4135    1.5197   -0.2673 C.3     1  UNL1        0.0315
     31 H          -4.1713   -1.2947   -2.2700 H       1  UNL1        0.0265
     32 H          -2.9035   -0.0595   -2.7558 H       1  UNL1        0.0265
     33 H          -4.5862    0.4274   -2.4683 H       1  UNL1        0.0265
     34 H          -4.1142   -0.7743   -0.1274 H       1  UNL1        0.0733
     35 H           0.2724    0.5646   -0.7550 H       1  UNL1        0.0660
     36 H           3.2985   -0.8035    2.2652 H       1  UNL1        0.0624
     37 H           5.6259   -0.0404    1.8870 H       1  UNL1        0.0639
     38 H           2.3319    0.2849   -1.7383 H       1  UNL1        0.0631
     39 H           4.5541    0.7288   -4.2045 H       1  UNL1        0.1438
     40 H           3.7233    2.2254   -3.6099 H       1  UNL1        0.1438
     41 H           8.4354    0.3462   -0.1121 H       1  UNL1        0.0473
     42 H           8.0952    2.1402    0.0651 H       1  UNL1        0.0473
     43 H           7.5125    0.9766    1.2880 H       1  UNL1        0.0473
     44 H           1.9323   -2.2764    1.9206 H       1  UNL1        0.0646
     45 H          -2.0810   -5.2992    3.2726 H       1  UNL1        0.0473
     46 H          -3.6417   -4.5027    2.6889 H       1  UNL1        0.0473
     47 H          -2.8346   -4.0159    4.2341 H       1  UNL1        0.0473
     48 H          -3.4069   -2.3201    1.3145 H       1  UNL1        0.0833
     49 H          -3.6471    1.3726    0.8683 H       1  UNL1        0.0356
     50 H          -2.3454    2.7442   -0.5980 H       1  UNL1        0.0466
     51 H          -3.3752    2.2912   -2.0484 H       1  UNL1        0.0466
     52 H          -4.1589    4.5506   -0.8838 H       1  UNL1        0.1487
     53 H          -5.9622    1.0066    0.5533 H       1  UNL1        0.0363
     54 H          -5.9019    1.3043   -1.2280 H       1  UNL1        0.0363
@<TRIPOS>BOND
     1     1     2    1
     2     2     3    1
     3     3     4    1
     4     4     5   ar
     5     5     6   ar
     6     6     7    1
     7     7     8   ar
     8     8     9   ar
     9     9    10   ar
    10    10    11   ar
    11    11    12   ar
    12    11    13   ar
    13    13    14    1
    14    13    15   ar
    15    15    16   ar
    16    16    17    1
    17     6    18   ar
    18    18    19   ar
    19    19    20   ar
    20    20    21   ar
    21    21    22    1
    22    21    23   ar
    23    23    24   ar
    24     2    25    1
    25    25    26    1
    26    26    27    1
    27    27    28   am
    28    28    29    2
    29    28    30    1
    30    24     4   ar
    31    30    25    1
    32    12     7   ar
    33    24    19   ar
    34    16    10   ar
    35     1    31    1
    36     1    32    1
    37     1    33    1
    38     2    34    1
    39     5    35    1
    40     8    36    1
    41     9    37    1
    42    12    38    1
    43    14    39    1
    44    14    40    1
    45    17    41    1
    46    17    42    1
    47    17    43    1
    48    18    44    1
    49    22    45    1
    50    22    46    1
    51    22    47    1
    52    23    48    1
    53    25    49    1
    54    26    50    1
    55    26    51    1
    56    27    52    1
    57    30    53    1
    58    30    54    1
