
     RDKit          3D

 42 42  0  0  0  0  0  0  0  0999 V2000
   -5.3101    0.8305    2.6172 C   0  0  0  0  0  0  0  0  0  0  0  0
   -4.8094   -0.2465    1.7847 N   0  0  0  0  0  0  0  0  0  0  0  0
   -4.0895   -0.3887    0.5736 C   0  0  0  0  0  0  0  0  0  0  0  0
   -2.7927    0.1147    0.2942 N   0  0  0  0  0  0  0  0  0  0  0  0
   -2.2818    0.8500   -0.8359 C   0  0  0  0  0  0  0  0  0  0  0  0
   -0.8145    1.1324   -0.6006 C   0  0  0  0  0  0  0  0  0  0  0  0
   -0.1986    2.0569   -2.0358 S   0  0  0  0  0  0  0  0  0  0  0  0
    1.5458    2.3938   -1.7485 C   0  0  0  0  0  0  0  0  0  0  0  0
    2.3038    1.0924   -1.7523 C   0  0  0  0  0  0  0  0  0  0  0  0
    2.8685    0.5354   -2.9154 C   0  0  0  0  0  0  0  0  0  0  0  0
    3.6211   -1.0215   -2.1909 S   0  0  0  0  0  0  0  0  0  0  0  0
    3.0428   -0.6202   -0.5279 C   0  0  0  0  0  0  0  0  0  0  0  0
    3.3219   -1.5237    0.6409 C   0  0  0  0  0  0  0  0  0  0  0  0
    4.5674   -1.1874    1.3050 N   0  0  0  0  0  0  0  0  0  0  0  0
    5.6342   -1.3292    0.3318 C   0  0  0  0  0  0  0  0  0  0  0  0
    4.4822    0.2040    1.7035 C   0  0  0  0  0  0  0  0  0  0  0  0
    2.4413    0.4400   -0.5930 N   0  0  0  0  0  0  0  0  0  0  0  0
   -4.6399   -1.0491   -0.4276 C   0  0  0  0  0  0  0  0  0  0  0  0
   -5.7701   -1.7660   -0.8821 N   0  0  0  0  0  4  0  0  0  0  0  0
   -6.8830   -1.2876   -1.5446 O   0  0  0  0  0  1  0  0  0  0  0  0
   -5.9930   -3.0027   -0.7733 O   0  0  0  0  0  0  0  0  0  0  0  0
   -5.0619    0.6055    3.6632 H   0  0  0  0  0  0  0  0  0  0  0  0
   -6.3927    0.8737    2.4613 H   0  0  0  0  0  0  0  0  0  0  0  0
   -4.8276    1.7966    2.3663 H   0  0  0  0  0  0  0  0  0  0  0  0
   -5.0329   -1.2067    2.1707 H   0  0  0  0  0  0  0  0  0  0  0  0
   -2.1945   -0.1440    1.0981 H   0  0  0  0  0  0  0  0  0  0  0  0
   -2.8138    1.8131   -0.9488 H   0  0  0  0  0  0  0  0  0  0  0  0
   -2.4180    0.2699   -1.7530 H   0  0  0  0  0  0  0  0  0  0  0  0
   -0.2119    0.2198   -0.5389 H   0  0  0  0  0  0  0  0  0  0  0  0
   -0.6755    1.7162    0.3207 H   0  0  0  0  0  0  0  0  0  0  0  0
    1.7098    2.9793   -0.8264 H   0  0  0  0  0  0  0  0  0  0  0  0
    1.9780    3.0336   -2.5705 H   0  0  0  0  0  0  0  0  0  0  0  0
    2.8033    0.9882   -3.8658 H   0  0  0  0  0  0  0  0  0  0  0  0
    3.3356   -2.5991    0.2944 H   0  0  0  0  0  0  0  0  0  0  0  0
    2.4791   -1.3602    1.3413 H   0  0  0  0  0  0  0  0  0  0  0  0
    5.7417   -0.4204   -0.3138 H   0  0  0  0  0  0  0  0  0  0  0  0
    5.5386   -2.2506   -0.2783 H   0  0  0  0  0  0  0  0  0  0  0  0
    6.6154   -1.4419    0.8556 H   0  0  0  0  0  0  0  0  0  0  0  0
    4.4149    0.8527    0.8073 H   0  0  0  0  0  0  0  0  0  0  0  0
    5.3762    0.4940    2.3143 H   0  0  0  0  0  0  0  0  0  0  0  0
    3.5970    0.3325    2.3787 H   0  0  0  0  0  0  0  0  0  0  0  0
   -4.2070   -1.2314   -1.3994 H   0  0  0  0  0  0  0  0  0  0  0  0
  1  2  1  0
  2  3  1  0
  3  4  1  0
  4  5  1  0
  5  6  1  0
  6  7  1  0
  7  8  1  0
  8  9  1  0
  9 10  2  0
 10 11  1  0
 11 12  1  0
 12 13  1  0
 13 14  1  0
 14 15  1  0
 14 16  1  0
 12 17  2  0
  3 18  2  3
 18 19  1  0
 19 20  1  0
 19 21  2  0
 17  9  1  0
  1 22  1  0
  1 23  1  0
  1 24  1  0
  2 25  1  0
  4 26  1  0
  5 27  1  0
  5 28  1  0
  6 29  1  0
  6 30  1  0
  8 31  1  0
  8 32  1  0
 10 33  1  0
 13 34  1  0
 13 35  1  0
 15 36  1  0
 15 37  1  0
 15 38  1  0
 16 39  1  0
 16 40  1  0
 16 41  1  0
 18 42  1  0
M  CHG  2  19   1  20  -1
M  END
$$$$
