@<TRIPOS>MOLECULE
*****
 42 42 0 0 0
SMALL
GASTEIGER

@<TRIPOS>ATOM
      1 C          -5.3101    0.8305    2.6172 C.3     1  UNL1        0.0671
      2 N          -4.8094   -0.2465    1.7847 N.pl3   1  UNL1       -0.2362
      3 C          -4.0895   -0.3887    0.5736 C.2     1  UNL1        0.3260
      4 N          -2.7927    0.1147    0.2942 N.pl3   1  UNL1       -0.2327
      5 C          -2.2818    0.8500   -0.8359 C.3     1  UNL1        0.0871
      6 C          -0.8145    1.1324   -0.6006 C.3     1  UNL1        0.0300
      7 S          -0.1986    2.0569   -2.0358 S.3     1  UNL1       -0.1508
      8 C           1.5458    2.3938   -1.7485 C.3     1  UNL1        0.0366
      9 C           2.3038    1.0924   -1.7523 C.ar    1  UNL1        0.0585
     10 C           2.8685    0.5354   -2.9154 C.ar    1  UNL1       -0.0005
     11 S           3.6211   -1.0215   -2.1909 S.2     1  UNL1       -0.0790
     12 C           3.0428   -0.6202   -0.5279 C.ar    1  UNL1        0.0925
     13 C           3.3219   -1.5237    0.6409 C.3     1  UNL1        0.0470
     14 N           4.5674   -1.1874    1.3050 N.3     1  UNL1       -0.3022
     15 C           5.6342   -1.3292    0.3318 C.3     1  UNL1       -0.0126
     16 C           4.4822    0.2040    1.7035 C.3     1  UNL1       -0.0126
     17 N           2.4413    0.4400   -0.5930 N.ar    1  UNL1       -0.2468
     18 C          -4.6399   -1.0491   -0.4276 C.2     1  UNL1        0.3211
     19 N          -5.7701   -1.7660   -0.8821 N.pl3   1  UNL1        0.0799
     20 O          -6.8830   -1.2876   -1.5446 O.co2   1  UNL1       -0.5763
     21 O          -5.9930   -3.0027   -0.7733 O.2     1  UNL1        0.0411
     22 H          -5.0619    0.6055    3.6632 H       1  UNL1        0.0687
     23 H          -6.3927    0.8737    2.4613 H       1  UNL1        0.0687
     24 H          -4.8276    1.7966    2.3663 H       1  UNL1        0.0687
     25 H          -5.0329   -1.2067    2.1707 H       1  UNL1        0.2910
     26 H          -2.1945   -0.1440    1.0981 H       1  UNL1        0.2913
     27 H          -2.8138    1.8131   -0.9488 H       1  UNL1        0.0732
     28 H          -2.4180    0.2699   -1.7530 H       1  UNL1        0.0732
     29 H          -0.2119    0.2198   -0.5389 H       1  UNL1        0.0413
     30 H          -0.6755    1.7162    0.3207 H       1  UNL1        0.0413
     31 H           1.7098    2.9793   -0.8264 H       1  UNL1        0.0440
     32 H           1.9780    3.0336   -2.5705 H       1  UNL1        0.0440
     33 H           2.8033    0.9882   -3.8658 H       1  UNL1        0.0712
     34 H           3.3356   -2.5991    0.2944 H       1  UNL1        0.0496
     35 H           2.4791   -1.3602    1.3413 H       1  UNL1        0.0496
     36 H           5.7417   -0.4204   -0.3138 H       1  UNL1        0.0391
     37 H           5.5386   -2.2506   -0.2783 H       1  UNL1        0.0391
     38 H           6.6154   -1.4419    0.8556 H       1  UNL1        0.0391
     39 H           4.4149    0.8527    0.8073 H       1  UNL1        0.0391
     40 H           5.3762    0.4940    2.3143 H       1  UNL1        0.0391
     41 H           3.5970    0.3325    2.3787 H       1  UNL1        0.0391
     42 H          -4.2070   -1.2314   -1.3994 H       1  UNL1        0.1524
@<TRIPOS>UNITY_ATOM_ATTR
19 1
charge 1
20 1
charge -1
@<TRIPOS>BOND
     1     1     2    1
     2     2     3    1
     3     3     4    1
     4     4     5    1
     5     5     6    1
     6     6     7    1
     7     7     8    1
     8     8     9    1
     9     9    10   ar
    10    10    11   ar
    11    11    12   ar
    12    12    13    1
    13    13    14    1
    14    14    15    1
    15    14    16    1
    16    12    17   ar
    17     3    18    2
    18    18    19    1
    19    19    20    1
    20    19    21    2
    21    17     9   ar
    22     1    22    1
    23     1    23    1
    24     1    24    1
    25     2    25    1
    26     4    26    1
    27     5    27    1
    28     5    28    1
    29     6    29    1
    30     6    30    1
    31     8    31    1
    32     8    32    1
    33    10    33    1
    34    13    34    1
    35    13    35    1
    36    15    36    1
    37    15    37    1
    38    15    38    1
    39    16    39    1
    40    16    40    1
    41    16    41    1
    42    18    42    1
