@<TRIPOS>MOLECULE
*****
 64 68 0 0 0
SMALL
GASTEIGER

@<TRIPOS>ATOM
      1 C          -2.5676   -3.8403    3.1742 C.3     1  UNL1       -0.0653
      2 C          -2.0734   -4.1688    1.7897 C.3     1  UNL1       -0.0556
      3 C          -2.4092   -3.0053    0.8756 C.3     1  UNL1       -0.0478
      4 C          -1.7525   -1.7181    1.3430 C.3     1  UNL1       -0.0084
      5 C          -2.0993   -0.6240    0.4184 C.ar    1  UNL1        0.0677
      6 N          -3.0939    0.2860    0.6567 N.ar    1  UNL1       -0.1701
      7 N          -3.1917    1.1101   -0.3453 N.ar    1  UNL1       -0.2186
      8 C          -4.1000    2.1882   -0.4677 C.ar    1  UNL1        0.1430
      9 C          -3.6885    3.4525   -0.0399 C.ar    1  UNL1       -0.0296
     10 C          -4.5651    4.5074   -0.1584 C.ar    1  UNL1       -0.0593
     11 C          -5.8176    4.2902   -0.6924 C.ar    1  UNL1       -0.0552
     12 C          -6.2082    3.0458   -1.1078 C.ar    1  UNL1        0.0178
     13 C          -5.3583    1.9806   -1.0018 C.ar    1  UNL1        0.2982
     14 N          -5.7415    0.6979   -1.4214 N.pl3   1  UNL1        0.0818
     15 O          -5.3515   -0.3775   -0.9093 O.2     1  UNL1        0.0415
     16 O          -6.6214    0.5881   -2.4857 O.co2   1  UNL1       -0.5760
     17 C          -2.2684    0.7968   -1.3086 C.ar    1  UNL1        0.1550
     18 C          -2.1070    1.5018   -2.5679 C.2     1  UNL1        0.3557
     19 O          -2.8650    2.5136   -2.8154 O.2     1  UNL1       -0.2434
     20 O          -1.1812    1.1413   -3.5178 O.3     1  UNL1       -0.4761
     21 C          -1.5877   -0.3016   -0.8039 C.ar    1  UNL1        0.0123
     22 C          -0.4704   -0.9713   -1.5078 C.3     1  UNL1        0.0016
     23 C           0.8416   -0.5976   -0.9298 C.ar    1  UNL1       -0.0429
     24 C           1.5852   -1.4236   -0.0984 C.ar    1  UNL1       -0.0577
     25 C           2.7945   -1.0318    0.4260 C.ar    1  UNL1       -0.0537
     26 C           3.3392    0.1892    0.1632 C.ar    1  UNL1       -0.0172
     27 C           4.5974    0.6420    0.7121 C.ar    1  UNL1       -0.0072
     28 C           4.5994    1.7087    1.6263 C.ar    1  UNL1       -0.0534
     29 C           5.7556    2.1702    2.2048 C.ar    1  UNL1       -0.0611
     30 C           6.9637    1.5825    1.8933 C.ar    1  UNL1       -0.0611
     31 C           6.9912    0.5366    1.0012 C.ar    1  UNL1       -0.0504
     32 C           5.7974    0.0693    0.4106 C.ar    1  UNL1        0.0282
     33 C           5.8541   -1.0151   -0.5548 C.ar    1  UNL1        0.1799
     34 N           4.8664   -1.4922   -1.2710 N.ar    1  UNL1       -0.1084
     35 N           5.3123   -2.4548   -2.0426 N.ar    1  UNL1       -0.0229
     36 N           6.6095   -2.5712   -1.7921 N.ar    1  UNL1       -0.0464
     37 N           6.9844   -1.6927   -0.8722 N.ar    1  UNL1       -0.2388
     38 C           2.5951    1.0248   -0.6749 C.ar    1  UNL1       -0.0537
     39 C           1.3787    0.6335   -1.2032 C.ar    1  UNL1       -0.0577
     40 H          -2.8321   -4.7471    3.7582 H       1  UNL1        0.0230
     41 H          -3.4694   -3.2080    3.1115 H       1  UNL1        0.0230
     42 H          -1.8026   -3.2201    3.7015 H       1  UNL1        0.0230
     43 H          -2.6730   -5.0307    1.4226 H       1  UNL1        0.0263
     44 H          -0.9985   -4.3870    1.7709 H       1  UNL1        0.0263
     45 H          -2.2035   -3.1912   -0.1792 H       1  UNL1        0.0269
     46 H          -3.5259   -2.8155    0.9222 H       1  UNL1        0.0269
     47 H          -2.1749   -1.4284    2.3485 H       1  UNL1        0.0329
     48 H          -0.6817   -1.8491    1.4819 H       1  UNL1        0.0329
     49 H          -2.6979    3.5835    0.3742 H       1  UNL1        0.0641
     50 H          -4.2605    5.5133    0.1721 H       1  UNL1        0.0618
     51 H          -6.4998    5.1276   -0.7824 H       1  UNL1        0.0620
     52 H          -7.1992    2.8544   -1.5345 H       1  UNL1        0.0686
     53 H          -1.2733    1.4202   -4.4796 H       1  UNL1        0.2955
     54 H          -0.4469   -0.7254   -2.5916 H       1  UNL1        0.0363
     55 H          -0.5919   -2.0990   -1.4123 H       1  UNL1        0.0363
     56 H           1.1890   -2.3942    0.1255 H       1  UNL1        0.0621
     57 H           3.3776   -1.6907    1.0860 H       1  UNL1        0.0624
     58 H           3.6259    2.1616    1.8571 H       1  UNL1        0.0624
     59 H           5.7411    2.9945    2.9098 H       1  UNL1        0.0618
     60 H           7.8915    1.9260    2.3366 H       1  UNL1        0.0618
     61 H           7.9271    0.0451    0.7298 H       1  UNL1        0.0625
     62 H           7.9600   -1.5704   -0.4870 H       1  UNL1        0.1923
     63 H           2.9849    1.9905   -0.9074 H       1  UNL1        0.0624
     64 H           0.8874    1.3690   -1.8396 H       1  UNL1        0.0621
@<TRIPOS>UNITY_ATOM_ATTR
14 1
charge 1
16 1
charge -1
@<TRIPOS>BOND
     1     1     2    1
     2     2     3    1
     3     3     4    1
     4     4     5    1
     5     5     6   ar
     6     6     7   ar
     7     7     8    1
     8     8     9   ar
     9     9    10   ar
    10    10    11   ar
    11    11    12   ar
    12    12    13   ar
    13    13    14    1
    14    14    15    2
    15    14    16    1
    16     7    17   ar
    17    17    18    1
    18    18    19    2
    19    18    20    1
    20    17    21   ar
    21    21    22    1
    22    22    23    1
    23    23    24   ar
    24    24    25   ar
    25    25    26   ar
    26    26    27    1
    27    27    28   ar
    28    28    29   ar
    29    29    30   ar
    30    30    31   ar
    31    31    32   ar
    32    32    33    1
    33    33    34   ar
    34    34    35   ar
    35    35    36   ar
    36    36    37   ar
    37    26    38   ar
    38    38    39   ar
    39    21     5   ar
    40    39    23   ar
    41    13     8   ar
    42    32    27   ar
    43    37    33   ar
    44     1    40    1
    45     1    41    1
    46     1    42    1
    47     2    43    1
    48     2    44    1
    49     3    45    1
    50     3    46    1
    51     4    47    1
    52     4    48    1
    53     9    49    1
    54    10    50    1
    55    11    51    1
    56    12    52    1
    57    20    53    1
    58    22    54    1
    59    22    55    1
    60    24    56    1
    61    25    57    1
    62    28    58    1
    63    29    59    1
    64    30    60    1
    65    31    61    1
    66    37    62    1
    67    38    63    1
    68    39    64    1
