
     RDKit          3D

 44 43  0  0  0  0  0  0  0  0999 V2000
   -4.6922   -1.4111   -0.9982 C   0  0  0  0  0  0  0  0  0  0  0  0
   -5.6100   -0.6982   -0.0991 C   0  0  0  0  0  0  0  0  0  0  0  0
   -5.0499    0.2697    0.8890 C   0  0  0  0  0  0  0  0  0  0  0  0
   -4.2971    1.4211    0.3682 C   0  0  0  0  0  0  0  0  0  0  0  0
   -3.0689    1.2557   -0.4011 C   0  0  0  0  0  0  0  0  0  0  0  0
   -1.9142    0.5866    0.2521 C   0  0  0  0  0  0  0  0  0  0  0  0
   -0.7482    0.5133   -0.7218 C   0  0  0  0  0  0  0  0  0  0  0  0
    0.4515   -0.1617   -0.0981 C   0  0  0  0  0  0  0  0  0  0  0  0
    1.5263   -0.1615   -1.1795 C   0  0  0  0  0  0  0  0  0  0  0  0
    2.8068   -0.8114   -0.7056 C   0  0  0  0  0  0  0  0  0  0  0  0
    3.3722   -0.0806    0.4960 C   0  0  0  0  0  0  0  0  0  0  0  0
    4.6342   -0.7471    0.9368 C   0  0  0  0  0  0  0  0  0  0  0  0
    5.6968   -0.7587   -0.1374 C   0  0  0  0  0  0  0  0  0  0  0  0
    6.0794    0.6116   -0.5670 C   0  0  0  0  0  0  0  0  0  0  0  0
    7.0528    0.6918   -1.5540 O   0  0  0  0  0  0  0  0  0  0  0  0
    5.6272    1.7257   -0.1445 O   0  0  0  0  0  0  0  0  0  0  0  0
   -4.6066   -0.9912   -2.0211 H   0  0  0  0  0  0  0  0  0  0  0  0
   -3.6761   -1.5333   -0.6014 H   0  0  0  0  0  0  0  0  0  0  0  0
   -5.1293   -2.4435   -1.1852 H   0  0  0  0  0  0  0  0  0  0  0  0
   -6.3959   -0.1427   -0.6696 H   0  0  0  0  0  0  0  0  0  0  0  0
   -6.1710   -1.4662    0.5216 H   0  0  0  0  0  0  0  0  0  0  0  0
   -4.5881   -0.2290    1.7741 H   0  0  0  0  0  0  0  0  0  0  0  0
   -5.9861    0.7095    1.3632 H   0  0  0  0  0  0  0  0  0  0  0  0
   -4.1340    2.1709    1.2032 H   0  0  0  0  0  0  0  0  0  0  0  0
   -5.0288    1.9898   -0.2888 H   0  0  0  0  0  0  0  0  0  0  0  0
   -2.6803    2.2966   -0.6447 H   0  0  0  0  0  0  0  0  0  0  0  0
   -3.2154    0.8283   -1.4137 H   0  0  0  0  0  0  0  0  0  0  0  0
   -1.5300    1.2423    1.0913 H   0  0  0  0  0  0  0  0  0  0  0  0
   -2.0475   -0.3916    0.6798 H   0  0  0  0  0  0  0  0  0  0  0  0
   -0.9999   -0.0054   -1.6498 H   0  0  0  0  0  0  0  0  0  0  0  0
   -0.4129    1.5373   -0.9997 H   0  0  0  0  0  0  0  0  0  0  0  0
    0.1878   -1.1734    0.2124 H   0  0  0  0  0  0  0  0  0  0  0  0
    0.8015    0.4412    0.7418 H   0  0  0  0  0  0  0  0  0  0  0  0
    1.7795    0.8566   -1.4760 H   0  0  0  0  0  0  0  0  0  0  0  0
    1.1988   -0.7067   -2.0821 H   0  0  0  0  0  0  0  0  0  0  0  0
    2.6306   -1.8705   -0.5115 H   0  0  0  0  0  0  0  0  0  0  0  0
    3.5345   -0.7064   -1.5161 H   0  0  0  0  0  0  0  0  0  0  0  0
    3.4349    0.9943    0.3357 H   0  0  0  0  0  0  0  0  0  0  0  0
    2.6367   -0.2199    1.3367 H   0  0  0  0  0  0  0  0  0  0  0  0
    5.0307   -0.3688    1.8791 H   0  0  0  0  0  0  0  0  0  0  0  0
    4.3775   -1.8246    1.1097 H   0  0  0  0  0  0  0  0  0  0  0  0
    5.4076   -1.3896   -0.9973 H   0  0  0  0  0  0  0  0  0  0  0  0
    6.5819   -1.2804    0.3098 H   0  0  0  0  0  0  0  0  0  0  0  0
    7.1334    1.4313   -2.2288 H   0  0  0  0  0  0  0  0  0  0  0  0
  1  2  1  0
  2  3  1  0
  3  4  1  0
  4  5  1  0
  5  6  1  0
  6  7  1  0
  7  8  1  0
  8  9  1  0
  9 10  1  0
 10 11  1  0
 11 12  1  0
 12 13  1  0
 13 14  1  0
 14 15  1  0
 14 16  2  0
  1 17  1  0
  1 18  1  0
  1 19  1  0
  2 20  1  0
  2 21  1  0
  3 22  1  0
  3 23  1  0
  4 24  1  0
  4 25  1  0
  5 26  1  0
  5 27  1  0
  6 28  1  0
  6 29  1  0
  7 30  1  0
  7 31  1  0
  8 32  1  0
  8 33  1  0
  9 34  1  0
  9 35  1  0
 10 36  1  0
 10 37  1  0
 11 38  1  0
 11 39  1  0
 12 40  1  0
 12 41  1  0
 13 42  1  0
 13 43  1  0
 15 44  1  0
M  END
$$$$
