@<TRIPOS>MOLECULE
*****
 59 63 0 0 0
SMALL
GASTEIGER

@<TRIPOS>ATOM
      1 C           0.9210   -2.9496   -1.1116 C.3     1  UNL1        0.0035
      2 N           0.9801   -1.4466   -0.8828 N.am    1  UNL1       -0.2990
      3 C           2.2699   -0.9906   -0.6986 C.2     1  UNL1        0.2261
      4 O           3.1582   -1.9757   -0.7186 O.2     1  UNL1       -0.2746
      5 C           2.9196    0.2953   -0.4807 C.3     1  UNL1        0.0720
      6 C           4.3152    0.2043    0.0549 C.ar    1  UNL1       -0.0323
      7 C           5.2326   -0.5743   -0.5748 C.ar    1  UNL1       -0.0549
      8 C           6.5365   -0.6914   -0.0746 C.ar    1  UNL1       -0.0262
      9 C           6.8849   -0.0093    1.0636 C.ar    1  UNL1        0.1234
     10 F           8.1736   -0.1349    1.5445 F       1  UNL1       -0.2055
     11 C           5.9658    0.7759    1.7004 C.ar    1  UNL1       -0.0262
     12 C           4.6649    0.8754    1.1775 C.ar    1  UNL1       -0.0549
     13 C           3.1337    0.9702   -1.8866 C.3     1  UNL1       -0.0350
     14 C           3.1081    2.2782   -1.0904 C.3     1  UNL1       -0.0506
     15 C           2.1852    1.5163   -0.1215 C.3     1  UNL1       -0.0350
     16 C          -0.2988   -0.8541   -0.8856 C.3     1  UNL1        0.0439
     17 C          -0.6923    0.0981   -1.9426 C.3     1  UNL1       -0.0273
     18 C          -1.7892    1.0702   -1.4603 C.3     1  UNL1       -0.0103
     19 C          -2.7042    0.3706   -0.5022 C.ar    1  UNL1        0.0236
     20 C          -4.0710    0.2814   -0.3468 C.ar    1  UNL1       -0.0083
     21 C          -5.0308    0.9689   -1.2412 C.3     1  UNL1        0.0721
     22 C          -5.0849    2.4139   -0.9186 C.2     1  UNL1        0.3091
     23 O          -4.3716    2.8699    0.0015 O.2     1  UNL1       -0.2507
     24 O          -5.9084    3.2823   -1.6109 O.3     1  UNL1       -0.4804
     25 C          -4.3714   -0.5204    0.7342 C.ar    1  UNL1        0.0038
     26 C          -5.5418   -0.9405    1.3283 C.ar    1  UNL1       -0.0523
     27 C          -5.5617   -1.7640    2.4320 C.ar    1  UNL1       -0.0611
     28 C          -4.3352   -2.1574    2.9263 C.ar    1  UNL1       -0.0598
     29 C          -3.1539   -1.7523    2.3520 C.ar    1  UNL1       -0.0376
     30 C          -3.1370   -0.9271    1.2460 C.ar    1  UNL1        0.0496
     31 N          -2.1799   -0.3762    0.4835 N.ar    1  UNL1       -0.3417
     32 C          -0.7271   -0.4404    0.5299 C.3     1  UNL1        0.0422
     33 H           0.8955   -3.0494   -2.2135 H       1  UNL1        0.0429
     34 H           0.0013   -3.3578   -0.7038 H       1  UNL1        0.0429
     35 H           1.7632   -3.4372   -0.6313 H       1  UNL1        0.0429
     36 H           5.0735   -1.1433   -1.4872 H       1  UNL1        0.0621
     37 H           7.2803   -1.3195   -0.5795 H       1  UNL1        0.0646
     38 H           6.2528    1.3095    2.5977 H       1  UNL1        0.0646
     39 H           3.9880    1.5001    1.7146 H       1  UNL1        0.0621
     40 H           4.1374    0.7911   -2.2956 H       1  UNL1        0.0278
     41 H           2.2972    0.8198   -2.5393 H       1  UNL1        0.0278
     42 H           2.6164    3.0520   -1.6817 H       1  UNL1        0.0266
     43 H           4.0658    2.5887   -0.6699 H       1  UNL1        0.0266
     44 H           1.1758    1.5889   -0.5471 H       1  UNL1        0.0278
     45 H           2.2154    1.8972    0.9185 H       1  UNL1        0.0278
     46 H          -1.0376   -1.7625   -1.0515 H       1  UNL1        0.0518
     47 H           0.0520    0.7149   -2.4127 H       1  UNL1        0.0287
     48 H          -1.1955   -0.4527   -2.8054 H       1  UNL1        0.0287
     49 H          -2.4042    1.3997   -2.3282 H       1  UNL1        0.0328
     50 H          -1.3270    1.9416   -0.9541 H       1  UNL1        0.0328
     51 H          -6.0390    0.5605   -1.0237 H       1  UNL1        0.0427
     52 H          -4.8320    0.7798   -2.3163 H       1  UNL1        0.0427
     53 H          -6.3060    4.1049   -1.1551 H       1  UNL1        0.2951
     54 H          -6.4683   -0.6067    0.9056 H       1  UNL1        0.0624
     55 H          -6.4756   -2.0989    2.9055 H       1  UNL1        0.0618
     56 H          -4.2624   -2.8098    3.7981 H       1  UNL1        0.0618
     57 H          -2.2132   -2.0791    2.7648 H       1  UNL1        0.0638
     58 H          -0.3680    0.5441    0.7908 H       1  UNL1        0.0510
     59 H          -0.3762   -1.2418    1.2112 H       1  UNL1        0.0510
@<TRIPOS>BOND
     1     1     2    1
     2     2     3   am
     3     3     4    2
     4     3     5    1
     5     5     6    1
     6     6     7   ar
     7     7     8   ar
     8     8     9   ar
     9     9    10    1
    10     9    11   ar
    11    11    12   ar
    12     5    13    1
    13    13    14    1
    14    14    15    1
    15     2    16    1
    16    16    17    1
    17    17    18    1
    18    18    19    1
    19    19    20   ar
    20    20    21    1
    21    21    22    1
    22    22    23    2
    23    22    24    1
    24    20    25   ar
    25    25    26   ar
    26    26    27   ar
    27    27    28   ar
    28    28    29   ar
    29    29    30   ar
    30    30    31   ar
    31    31    32    1
    32    15     5    1
    33    32    16    1
    34    12     6   ar
    35    31    19   ar
    36    30    25   ar
    37     1    33    1
    38     1    34    1
    39     1    35    1
    40     7    36    1
    41     8    37    1
    42    11    38    1
    43    12    39    1
    44    13    40    1
    45    13    41    1
    46    14    42    1
    47    14    43    1
    48    15    44    1
    49    15    45    1
    50    16    46    1
    51    17    47    1
    52    17    48    1
    53    18    49    1
    54    18    50    1
    55    21    51    1
    56    21    52    1
    57    24    53    1
    58    26    54    1
    59    27    55    1
    60    28    56    1
    61    29    57    1
    62    32    58    1
    63    32    59    1
