
     RDKit          3D

 59 63  0  0  0  0  0  0  0  0999 V2000
    0.9210   -2.9496   -1.1116 C   0  0  0  0  0  0  0  0  0  0  0  0
    0.9801   -1.4466   -0.8828 N   0  0  0  0  0  0  0  0  0  0  0  0
    2.2699   -0.9906   -0.6986 C   0  0  0  0  0  0  0  0  0  0  0  0
    3.1582   -1.9757   -0.7186 O   0  0  0  0  0  0  0  0  0  0  0  0
    2.9196    0.2953   -0.4807 C   0  0  0  0  0  0  0  0  0  0  0  0
    4.3152    0.2043    0.0549 C   0  0  0  0  0  0  0  0  0  0  0  0
    5.2326   -0.5743   -0.5748 C   0  0  0  0  0  0  0  0  0  0  0  0
    6.5365   -0.6914   -0.0746 C   0  0  0  0  0  0  0  0  0  0  0  0
    6.8849   -0.0093    1.0636 C   0  0  0  0  0  0  0  0  0  0  0  0
    8.1736   -0.1349    1.5445 F   0  0  0  0  0  0  0  0  0  0  0  0
    5.9658    0.7759    1.7004 C   0  0  0  0  0  0  0  0  0  0  0  0
    4.6649    0.8754    1.1775 C   0  0  0  0  0  0  0  0  0  0  0  0
    3.1337    0.9702   -1.8866 C   0  0  0  0  0  0  0  0  0  0  0  0
    3.1081    2.2782   -1.0904 C   0  0  0  0  0  0  0  0  0  0  0  0
    2.1852    1.5163   -0.1215 C   0  0  0  0  0  0  0  0  0  0  0  0
   -0.2988   -0.8541   -0.8856 C   0  0  2  0  0  0  0  0  0  0  0  0
   -0.6923    0.0981   -1.9426 C   0  0  0  0  0  0  0  0  0  0  0  0
   -1.7892    1.0702   -1.4603 C   0  0  0  0  0  0  0  0  0  0  0  0
   -2.7042    0.3706   -0.5022 C   0  0  0  0  0  0  0  0  0  0  0  0
   -4.0710    0.2814   -0.3468 C   0  0  0  0  0  0  0  0  0  0  0  0
   -5.0308    0.9689   -1.2412 C   0  0  0  0  0  0  0  0  0  0  0  0
   -5.0849    2.4139   -0.9186 C   0  0  0  0  0  0  0  0  0  0  0  0
   -4.3716    2.8699    0.0015 O   0  0  0  0  0  0  0  0  0  0  0  0
   -5.9084    3.2823   -1.6109 O   0  0  0  0  0  0  0  0  0  0  0  0
   -4.3714   -0.5204    0.7342 C   0  0  0  0  0  0  0  0  0  0  0  0
   -5.5418   -0.9405    1.3283 C   0  0  0  0  0  0  0  0  0  0  0  0
   -5.5617   -1.7640    2.4320 C   0  0  0  0  0  0  0  0  0  0  0  0
   -4.3352   -2.1574    2.9263 C   0  0  0  0  0  0  0  0  0  0  0  0
   -3.1539   -1.7523    2.3520 C   0  0  0  0  0  0  0  0  0  0  0  0
   -3.1370   -0.9271    1.2460 C   0  0  0  0  0  0  0  0  0  0  0  0
   -2.1799   -0.3762    0.4835 N   0  0  0  0  0  0  0  0  0  0  0  0
   -0.7271   -0.4404    0.5299 C   0  0  0  0  0  0  0  0  0  0  0  0
    0.8955   -3.0494   -2.2135 H   0  0  0  0  0  0  0  0  0  0  0  0
    0.0013   -3.3578   -0.7038 H   0  0  0  0  0  0  0  0  0  0  0  0
    1.7632   -3.4372   -0.6313 H   0  0  0  0  0  0  0  0  0  0  0  0
    5.0735   -1.1433   -1.4872 H   0  0  0  0  0  0  0  0  0  0  0  0
    7.2803   -1.3195   -0.5795 H   0  0  0  0  0  0  0  0  0  0  0  0
    6.2528    1.3095    2.5977 H   0  0  0  0  0  0  0  0  0  0  0  0
    3.9880    1.5001    1.7146 H   0  0  0  0  0  0  0  0  0  0  0  0
    4.1374    0.7911   -2.2956 H   0  0  0  0  0  0  0  0  0  0  0  0
    2.2972    0.8198   -2.5393 H   0  0  0  0  0  0  0  0  0  0  0  0
    2.6164    3.0520   -1.6817 H   0  0  0  0  0  0  0  0  0  0  0  0
    4.0658    2.5887   -0.6699 H   0  0  0  0  0  0  0  0  0  0  0  0
    1.1758    1.5889   -0.5471 H   0  0  0  0  0  0  0  0  0  0  0  0
    2.2154    1.8972    0.9185 H   0  0  0  0  0  0  0  0  0  0  0  0
   -1.0376   -1.7625   -1.0515 H   0  0  0  0  0  0  0  0  0  0  0  0
    0.0520    0.7149   -2.4127 H   0  0  0  0  0  0  0  0  0  0  0  0
   -1.1955   -0.4527   -2.8054 H   0  0  0  0  0  0  0  0  0  0  0  0
   -2.4042    1.3997   -2.3282 H   0  0  0  0  0  0  0  0  0  0  0  0
   -1.3270    1.9416   -0.9541 H   0  0  0  0  0  0  0  0  0  0  0  0
   -6.0390    0.5605   -1.0237 H   0  0  0  0  0  0  0  0  0  0  0  0
   -4.8320    0.7798   -2.3163 H   0  0  0  0  0  0  0  0  0  0  0  0
   -6.3060    4.1049   -1.1551 H   0  0  0  0  0  0  0  0  0  0  0  0
   -6.4683   -0.6067    0.9056 H   0  0  0  0  0  0  0  0  0  0  0  0
   -6.4756   -2.0989    2.9055 H   0  0  0  0  0  0  0  0  0  0  0  0
   -4.2624   -2.8098    3.7981 H   0  0  0  0  0  0  0  0  0  0  0  0
   -2.2132   -2.0791    2.7648 H   0  0  0  0  0  0  0  0  0  0  0  0
   -0.3680    0.5441    0.7908 H   0  0  0  0  0  0  0  0  0  0  0  0
   -0.3762   -1.2418    1.2112 H   0  0  0  0  0  0  0  0  0  0  0  0
  1  2  1  0
  2  3  1  0
  3  4  2  0
  3  5  1  0
  5  6  1  0
  6  7  2  0
  7  8  1  0
  8  9  2  0
  9 10  1  0
  9 11  1  0
 11 12  2  0
  5 13  1  0
 13 14  1  0
 14 15  1  0
  2 16  1  0
 16 17  1  0
 17 18  1  0
 18 19  1  0
 19 20  2  0
 20 21  1  0
 21 22  1  0
 22 23  2  0
 22 24  1  0
 20 25  1  0
 25 26  2  0
 26 27  1  0
 27 28  2  0
 28 29  1  0
 29 30  2  0
 30 31  1  0
 31 32  1  0
 15  5  1  0
 32 16  1  0
 12  6  1  0
 31 19  1  0
 30 25  1  0
  1 33  1  0
  1 34  1  0
  1 35  1  0
  7 36  1  0
  8 37  1  0
 11 38  1  0
 12 39  1  0
 13 40  1  0
 13 41  1  0
 14 42  1  0
 14 43  1  0
 15 44  1  0
 15 45  1  0
 16 46  1  6
 17 47  1  0
 17 48  1  0
 18 49  1  0
 18 50  1  0
 21 51  1  0
 21 52  1  0
 24 53  1  0
 26 54  1  0
 27 55  1  0
 28 56  1  0
 29 57  1  0
 32 58  1  0
 32 59  1  0
M  END
$$$$
