@<TRIPOS>MOLECULE
*****
 48 52 0 0 0
SMALL
GASTEIGER

@<TRIPOS>ATOM
      1 C           7.1548   -1.1756   -2.5476 C.3     1  UNL1       -0.0159
      2 C           6.0713   -1.2021   -1.5076 C.ar    1  UNL1        0.0760
      3 N           5.4768   -0.4998   -0.7556 N.ar    1  UNL1       -0.2412
      4 C           4.5230   -0.8082    0.0878 C.ar    1  UNL1        0.1154
      5 C           3.8832    0.2071    0.9582 C.ar    1  UNL1        0.1832
      6 N           4.3515    0.6966    2.0929 N.ar    1  UNL1       -0.1275
      7 N           3.4633    1.5876    2.5556 N.ar    1  UNL1       -0.1320
      8 C           2.4247    1.6368    1.6697 C.ar    1  UNL1        0.1542
      9 N           2.6998    0.7728    0.6818 N.ar    1  UNL1       -0.3066
     10 C           1.7494    0.6154   -0.4147 C.3     1  UNL1        0.0423
     11 C           0.3904    0.4886    0.2316 C.3     1  UNL1        0.0338
     12 N           0.1003    1.6013    1.1173 N.am    1  UNL1       -0.2860
     13 C          -1.2582    1.8494    1.4408 C.2     1  UNL1        0.2472
     14 O          -1.5507    2.7899    2.1977 O.2     1  UNL1       -0.2700
     15 C          -2.3009    1.0036    0.8856 C.ar    1  UNL1        0.0370
     16 C          -2.8775    1.2520   -0.3393 C.ar    1  UNL1       -0.0490
     17 C          -3.8587    0.4577   -0.8673 C.ar    1  UNL1       -0.0528
     18 C          -4.3223   -0.6485   -0.1814 C.ar    1  UNL1       -0.0113
     19 C          -5.3613   -1.4819   -0.7438 C.ar    1  UNL1        0.0193
     20 C          -6.0102   -2.6137   -0.3082 C.ar    1  UNL1       -0.0469
     21 C          -6.9497   -3.1833   -1.0487 C.ar    1  UNL1       -0.0541
     22 C          -7.3090   -2.6570   -2.2863 C.ar    1  UNL1       -0.0237
     23 S          -6.1732   -1.2168   -2.3556 S.2     1  UNL1       -0.0967
     24 C          -3.7542   -0.9098    1.0464 C.ar    1  UNL1       -0.0528
     25 C          -2.7673   -0.1141    1.5814 C.ar    1  UNL1       -0.0490
     26 C           1.1763    2.4218    1.6379 C.3     1  UNL1        0.0834
     27 C           1.4251    3.6491    0.8020 C.3     1  UNL1       -0.0393
     28 C           4.1536   -2.1124    0.1146 C.ar    1  UNL1        0.0064
     29 S           5.2498   -2.8656   -1.1352 S.2     1  UNL1       -0.0801
     30 H           7.9796   -0.5677   -2.1022 H       1  UNL1        0.0298
     31 H           6.7432   -0.6512   -3.4196 H       1  UNL1        0.0298
     32 H           7.4692   -2.1805   -2.8360 H       1  UNL1        0.0298
     33 H           1.7503    1.4521   -1.1131 H       1  UNL1        0.0508
     34 H           1.9348   -0.3224   -0.9694 H       1  UNL1        0.0508
     35 H           0.3509   -0.4629    0.8299 H       1  UNL1        0.0482
     36 H          -0.3881    0.4809   -0.5591 H       1  UNL1        0.0482
     37 H          -2.5291    2.1144   -0.8919 H       1  UNL1        0.0625
     38 H          -4.3115    0.6700   -1.8527 H       1  UNL1        0.0624
     39 H          -5.6821   -3.0095    0.7136 H       1  UNL1        0.0629
     40 H          -7.4923   -4.1298   -0.6833 H       1  UNL1        0.0623
     41 H          -7.9787   -2.9150   -3.0049 H       1  UNL1        0.0693
     42 H          -4.1362   -1.7907    1.5736 H       1  UNL1        0.0624
     43 H          -2.3657   -0.3685    2.5395 H       1  UNL1        0.0625
     44 H           0.9610    2.7660    2.6741 H       1  UNL1        0.0579
     45 H           2.5057    3.8535    0.6427 H       1  UNL1        0.0252
     46 H           1.0297    4.5731    1.3163 H       1  UNL1        0.0252
     47 H           0.9438    3.6225   -0.1824 H       1  UNL1        0.0252
     48 H           3.4155   -2.6749    0.6849 H       1  UNL1        0.0716
@<TRIPOS>BOND
     1     1     2    1
     2     2     3   ar
     3     3     4   ar
     4     4     5    1
     5     5     6   ar
     6     6     7   ar
     7     7     8   ar
     8     8     9   ar
     9     9    10    1
    10    10    11    1
    11    11    12    1
    12    12    13   am
    13    13    14    2
    14    13    15    1
    15    15    16   ar
    16    16    17   ar
    17    17    18   ar
    18    18    19    1
    19    19    20   ar
    20    20    21   ar
    21    21    22   ar
    22    22    23   ar
    23    18    24   ar
    24    24    25   ar
    25    12    26    1
    26    26    27    1
    27     4    28   ar
    28    28    29   ar
    29    29     2   ar
    30     9     5   ar
    31    25    15   ar
    32    26     8    1
    33    23    19   ar
    34     1    30    1
    35     1    31    1
    36     1    32    1
    37    10    33    1
    38    10    34    1
    39    11    35    1
    40    11    36    1
    41    16    37    1
    42    17    38    1
    43    20    39    1
    44    21    40    1
    45    22    41    1
    46    24    42    1
    47    25    43    1
    48    26    44    1
    49    27    45    1
    50    27    46    1
    51    27    47    1
    52    28    48    1
