
     RDKit          3D

 48 52  0  0  0  0  0  0  0  0999 V2000
    7.1548   -1.1756   -2.5476 C   0  0  0  0  0  0  0  0  0  0  0  0
    6.0713   -1.2021   -1.5076 C   0  0  0  0  0  0  0  0  0  0  0  0
    5.4768   -0.4998   -0.7556 N   0  0  0  0  0  0  0  0  0  0  0  0
    4.5230   -0.8082    0.0878 C   0  0  0  0  0  0  0  0  0  0  0  0
    3.8832    0.2071    0.9582 C   0  0  0  0  0  0  0  0  0  0  0  0
    4.3515    0.6966    2.0929 N   0  0  0  0  0  0  0  0  0  0  0  0
    3.4633    1.5876    2.5556 N   0  0  0  0  0  0  0  0  0  0  0  0
    2.4247    1.6368    1.6697 C   0  0  0  0  0  0  0  0  0  0  0  0
    2.6998    0.7728    0.6818 N   0  0  0  0  0  0  0  0  0  0  0  0
    1.7494    0.6154   -0.4147 C   0  0  0  0  0  0  0  0  0  0  0  0
    0.3904    0.4886    0.2316 C   0  0  0  0  0  0  0  0  0  0  0  0
    0.1003    1.6013    1.1173 N   0  0  0  0  0  0  0  0  0  0  0  0
   -1.2582    1.8494    1.4408 C   0  0  0  0  0  0  0  0  0  0  0  0
   -1.5507    2.7899    2.1977 O   0  0  0  0  0  0  0  0  0  0  0  0
   -2.3009    1.0036    0.8856 C   0  0  0  0  0  0  0  0  0  0  0  0
   -2.8775    1.2520   -0.3393 C   0  0  0  0  0  0  0  0  0  0  0  0
   -3.8587    0.4577   -0.8673 C   0  0  0  0  0  0  0  0  0  0  0  0
   -4.3223   -0.6485   -0.1814 C   0  0  0  0  0  0  0  0  0  0  0  0
   -5.3613   -1.4819   -0.7438 C   0  0  0  0  0  0  0  0  0  0  0  0
   -6.0102   -2.6137   -0.3082 C   0  0  0  0  0  0  0  0  0  0  0  0
   -6.9497   -3.1833   -1.0487 C   0  0  0  0  0  0  0  0  0  0  0  0
   -7.3090   -2.6570   -2.2863 C   0  0  0  0  0  0  0  0  0  0  0  0
   -6.1732   -1.2168   -2.3556 S   0  0  0  0  0  0  0  0  0  0  0  0
   -3.7542   -0.9098    1.0464 C   0  0  0  0  0  0  0  0  0  0  0  0
   -2.7673   -0.1141    1.5814 C   0  0  0  0  0  0  0  0  0  0  0  0
    1.1763    2.4218    1.6379 C   0  0  2  0  0  0  0  0  0  0  0  0
    1.4251    3.6491    0.8020 C   0  0  0  0  0  0  0  0  0  0  0  0
    4.1536   -2.1124    0.1146 C   0  0  0  0  0  0  0  0  0  0  0  0
    5.2498   -2.8656   -1.1352 S   0  0  0  0  0  0  0  0  0  0  0  0
    7.9796   -0.5677   -2.1022 H   0  0  0  0  0  0  0  0  0  0  0  0
    6.7432   -0.6512   -3.4196 H   0  0  0  0  0  0  0  0  0  0  0  0
    7.4692   -2.1805   -2.8360 H   0  0  0  0  0  0  0  0  0  0  0  0
    1.7503    1.4521   -1.1131 H   0  0  0  0  0  0  0  0  0  0  0  0
    1.9348   -0.3224   -0.9694 H   0  0  0  0  0  0  0  0  0  0  0  0
    0.3509   -0.4629    0.8299 H   0  0  0  0  0  0  0  0  0  0  0  0
   -0.3881    0.4809   -0.5591 H   0  0  0  0  0  0  0  0  0  0  0  0
   -2.5291    2.1144   -0.8919 H   0  0  0  0  0  0  0  0  0  0  0  0
   -4.3115    0.6700   -1.8527 H   0  0  0  0  0  0  0  0  0  0  0  0
   -5.6821   -3.0095    0.7136 H   0  0  0  0  0  0  0  0  0  0  0  0
   -7.4923   -4.1298   -0.6833 H   0  0  0  0  0  0  0  0  0  0  0  0
   -7.9787   -2.9150   -3.0049 H   0  0  0  0  0  0  0  0  0  0  0  0
   -4.1362   -1.7907    1.5736 H   0  0  0  0  0  0  0  0  0  0  0  0
   -2.3657   -0.3685    2.5395 H   0  0  0  0  0  0  0  0  0  0  0  0
    0.9610    2.7660    2.6741 H   0  0  0  0  0  0  0  0  0  0  0  0
    2.5057    3.8535    0.6427 H   0  0  0  0  0  0  0  0  0  0  0  0
    1.0297    4.5731    1.3163 H   0  0  0  0  0  0  0  0  0  0  0  0
    0.9438    3.6225   -0.1824 H   0  0  0  0  0  0  0  0  0  0  0  0
    3.4155   -2.6749    0.6849 H   0  0  0  0  0  0  0  0  0  0  0  0
  1  2  1  0
  2  3  2  0
  3  4  1  0
  4  5  1  0
  5  6  2  0
  6  7  1  0
  7  8  2  0
  8  9  1  0
  9 10  1  0
 10 11  1  0
 11 12  1  0
 12 13  1  0
 13 14  2  0
 13 15  1  0
 15 16  2  0
 16 17  1  0
 17 18  2  0
 18 19  1  0
 19 20  2  0
 20 21  1  0
 21 22  2  0
 22 23  1  0
 18 24  1  0
 24 25  2  0
 12 26  1  0
 26 27  1  0
  4 28  2  0
 28 29  1  0
 29  2  1  0
  9  5  1  0
 25 15  1  0
 26  8  1  0
 23 19  1  0
  1 30  1  0
  1 31  1  0
  1 32  1  0
 10 33  1  0
 10 34  1  0
 11 35  1  0
 11 36  1  0
 16 37  1  0
 17 38  1  0
 20 39  1  0
 21 40  1  0
 22 41  1  0
 24 42  1  0
 25 43  1  0
 26 44  1  1
 27 45  1  0
 27 46  1  0
 27 47  1  0
 28 48  1  0
M  END
$$$$
