@<TRIPOS>MOLECULE
*****
 60 64 0 0 0
SMALL
GASTEIGER

@<TRIPOS>ATOM
      1 C          -7.4565   -0.8336   -0.5250 C.3     1  UNL1       -0.0396
      2 C          -6.0091   -0.4761   -0.7207 C.ar    1  UNL1       -0.0483
      3 C          -5.6315    0.8182   -1.0084 C.ar    1  UNL1       -0.0580
      4 C          -4.3135    1.1741   -1.1921 C.ar    1  UNL1       -0.0473
      5 C          -3.3521    0.1961   -1.0819 C.ar    1  UNL1        0.0640
      6 C          -1.9652    0.5507   -1.2698 C.2     1  UNL1        0.2491
      7 O          -1.4859    0.4879   -2.4298 O.2     1  UNL1       -0.2699
      8 N          -1.1101    0.9676   -0.2151 N.am    1  UNL1       -0.2895
      9 C          -1.7110    1.0242    1.1216 C.3     1  UNL1        0.0414
     10 C          -1.1338    2.3120    1.7299 C.3     1  UNL1        0.0717
     11 C          -1.8360    2.7206    2.9744 C.3     1  UNL1       -0.0372
     12 O           0.2117    2.0812    1.8791 O.3     1  UNL1       -0.3734
     13 C           0.9058    2.0424    0.7011 C.3     1  UNL1        0.0669
     14 C           0.2793    1.3232   -0.4344 C.3     1  UNL1        0.0538
     15 C           1.0035    0.0715   -0.7892 C.3     1  UNL1       -0.0041
     16 C           2.4308    0.2022   -1.0489 C.ar    1  UNL1       -0.0097
     17 C           3.2962   -0.2279   -0.0667 C.ar    1  UNL1       -0.0465
     18 C           4.6801   -0.1582   -0.1836 C.ar    1  UNL1        0.0025
     19 C           5.5268   -0.6359    0.8992 C.ar    1  UNL1        0.0933
     20 C           6.8923   -0.5963    0.8549 C.ar    1  UNL1       -0.0325
     21 C           7.6786   -1.0613    1.9106 C.ar    1  UNL1       -0.0398
     22 C           7.0372   -1.5693    3.0160 C.ar    1  UNL1        0.0500
     23 N           5.6929   -1.5939    3.0276 N.ar    1  UNL1       -0.1571
     24 N           4.9702   -1.1511    2.0233 N.ar    1  UNL1       -0.1493
     25 C           5.1541    0.3744   -1.3576 C.ar    1  UNL1       -0.0498
     26 C           4.2911    0.8172   -2.3687 C.ar    1  UNL1       -0.0256
     27 C           2.9419    0.7337   -2.2199 C.ar    1  UNL1        0.1267
     28 F           2.0420    1.1351   -3.1394 F       1  UNL1       -0.2052
     29 C          -3.7443   -1.0915   -0.7944 C.ar    1  UNL1        0.0985
     30 N          -2.7811   -2.1303   -0.6721 N.ar    1  UNL1       -0.1496
     31 N          -2.1574   -2.8127   -1.6128 N.ar    1  UNL1       -0.1556
     32 C          -1.3254   -3.7057   -1.0617 C.ar    1  UNL1        0.0697
     33 C          -1.4376   -3.5717    0.2986 C.ar    1  UNL1        0.0697
     34 N          -2.3488   -2.5861    0.4948 N.ar    1  UNL1       -0.1556
     35 C          -5.0623   -1.4713   -0.6060 C.ar    1  UNL1       -0.0309
     36 H          -7.7681   -1.4089   -1.4081 H       1  UNL1        0.0278
     37 H          -8.0420    0.1218   -0.5381 H       1  UNL1        0.0278
     38 H          -7.6046   -1.3937    0.4266 H       1  UNL1        0.0278
     39 H          -6.3993    1.5905   -1.0943 H       1  UNL1        0.0620
     40 H          -4.0582    2.2147   -1.4189 H       1  UNL1        0.0626
     41 H          -2.7966    1.1856    1.0535 H       1  UNL1        0.0490
     42 H          -1.4092    0.1449    1.6960 H       1  UNL1        0.0490
     43 H          -1.2490    3.0803    0.9110 H       1  UNL1        0.0609
     44 H          -1.1786    3.3528    3.6020 H       1  UNL1        0.0255
     45 H          -2.2457    1.8758    3.5619 H       1  UNL1        0.0255
     46 H          -2.6962    3.3837    2.6658 H       1  UNL1        0.0255
     47 H           1.8851    1.5243    0.9299 H       1  UNL1        0.0578
     48 H           1.1414    3.1173    0.4404 H       1  UNL1        0.0578
     49 H           0.2366    2.0401   -1.3118 H       1  UNL1        0.0526
     50 H           0.8394   -0.6603    0.0217 H       1  UNL1        0.0333
     51 H           0.5417   -0.3992   -1.7025 H       1  UNL1        0.0333
     52 H           2.9245   -0.6556    0.8774 H       1  UNL1        0.0628
     53 H           7.3661   -0.1866   -0.0378 H       1  UNL1        0.0640
     54 H           8.7536   -1.0078    1.8253 H       1  UNL1        0.0634
     55 H           7.6127   -1.9501    3.8780 H       1  UNL1        0.0848
     56 H           6.2185    0.4622   -1.5237 H       1  UNL1        0.0625
     57 H           4.6942    1.2326   -3.2834 H       1  UNL1        0.0646
     58 H          -0.6957   -4.3904   -1.5986 H       1  UNL1        0.0864
     59 H          -0.9076   -4.1374    1.0529 H       1  UNL1        0.0864
     60 H          -5.3358   -2.4959   -0.3799 H       1  UNL1        0.0642
@<TRIPOS>BOND
     1     1     2    1
     2     2     3   ar
     3     3     4   ar
     4     4     5   ar
     5     5     6    1
     6     6     7    2
     7     6     8   am
     8     8     9    1
     9     9    10    1
    10    10    11    1
    11    10    12    1
    12    12    13    1
    13    13    14    1
    14    14    15    1
    15    15    16    1
    16    16    17   ar
    17    17    18   ar
    18    18    19    1
    19    19    20   ar
    20    20    21   ar
    21    21    22   ar
    22    22    23   ar
    23    23    24   ar
    24    18    25   ar
    25    25    26   ar
    26    26    27   ar
    27    27    28    1
    28     5    29   ar
    29    29    30    1
    30    30    31   ar
    31    31    32   ar
    32    32    33   ar
    33    33    34   ar
    34    29    35   ar
    35    35     2   ar
    36    14     8    1
    37    27    16   ar
    38    34    30   ar
    39    24    19   ar
    40     1    36    1
    41     1    37    1
    42     1    38    1
    43     3    39    1
    44     4    40    1
    45     9    41    1
    46     9    42    1
    47    10    43    1
    48    11    44    1
    49    11    45    1
    50    11    46    1
    51    13    47    1
    52    13    48    1
    53    14    49    1
    54    15    50    1
    55    15    51    1
    56    17    52    1
    57    20    53    1
    58    21    54    1
    59    22    55    1
    60    25    56    1
    61    26    57    1
    62    32    58    1
    63    33    59    1
    64    35    60    1
