@<TRIPOS>MOLECULE
*****
 49 50 0 0 0
SMALL
GASTEIGER

@<TRIPOS>ATOM
      1 C           0.0812    1.6313   -2.4390 C.3     1  UNL1       -0.0376
      2 C           0.8242    0.9610   -1.3363 C.ar    1  UNL1       -0.0228
      3 C           2.1881    0.8305   -1.2811 C.ar    1  UNL1       -0.0041
      4 C           2.9843    1.3978   -2.3917 C.3     1  UNL1       -0.0359
      5 C           2.7787    0.1809   -0.2041 C.ar    1  UNL1        0.1237
      6 O           4.1665    0.1130   -0.2644 O.3     1  UNL1       -0.4917
      7 C           4.8036   -0.5533    0.8372 C.3     1  UNL1        0.0901
      8 C           6.2885   -0.5969    0.7209 C.3     1  UNL1       -0.0086
      9 C           6.9299   -1.2939    1.8716 C.3     1  UNL1        0.0478
     10 C           6.6096   -0.5815    3.1520 C.2     1  UNL1        0.3048
     11 O           7.2116   -1.2730    4.2127 O.3     1  UNL1       -0.4806
     12 O           5.9566    0.4531    3.5302 O.2     1  UNL1       -0.2510
     13 C           2.0548   -0.3596    0.8492 C.ar    1  UNL1       -0.0179
     14 C           0.6809   -0.2145    0.7697 C.ar    1  UNL1       -0.0367
     15 C           0.0814    0.4340   -0.3042 C.ar    1  UNL1        0.0381
     16 N          -1.3621    0.5030   -0.2510 N.am    1  UNL1       -0.2689
     17 C          -2.4060   -0.3924   -0.7629 C.2     1  UNL1        0.3104
     18 O          -2.2148   -1.4378   -1.3772 O.2     1  UNL1       -0.2521
     19 N          -3.4430    0.4425   -0.2632 N.am    1  UNL1       -0.2359
     20 C          -4.7065   -0.2768   -0.6309 C.2     1  UNL1        0.2529
     21 O          -4.7780   -1.3996   -1.2600 O.2     1  UNL1       -0.2697
     22 C          -6.1876   -0.1349   -0.5079 C.ar    1  UNL1        0.0555
     23 C          -6.6186   -0.2295    0.7970 C.ar    1  UNL1       -0.0468
     24 C          -7.9363   -0.1022    1.1122 C.ar    1  UNL1       -0.0426
     25 C          -8.7803    0.1219    0.0478 C.ar    1  UNL1        0.0424
     26 CL        -10.4955    0.2963    0.3772 Cl      1  UNL1       -0.0835
     27 C          -8.3909    0.2222   -1.2707 C.ar    1  UNL1       -0.0243
     28 C          -7.0255    0.0879   -1.5693 C.ar    1  UNL1        0.0544
     29 CL         -6.3467    0.1830   -3.1730 Cl      1  UNL1       -0.0827
     30 H          -0.6670    2.3126   -1.9444 H       1  UNL1        0.0278
     31 H           0.7068    2.3131   -3.0455 H       1  UNL1        0.0278
     32 H          -0.5281    0.9189   -3.0394 H       1  UNL1        0.0278
     33 H           2.7073    2.4057   -2.7001 H       1  UNL1        0.0279
     34 H           4.0722    1.3089   -2.1547 H       1  UNL1        0.0279
     35 H           2.8257    0.7264   -3.2861 H       1  UNL1        0.0279
     36 H           4.5341   -0.0073    1.7662 H       1  UNL1        0.0696
     37 H           4.4138   -1.5813    0.9851 H       1  UNL1        0.0696
     38 H           6.6484    0.4516    0.7020 H       1  UNL1        0.0303
     39 H           6.5662   -1.0942   -0.2335 H       1  UNL1        0.0303
     40 H           8.0291   -1.3295    1.7105 H       1  UNL1        0.0378
     41 H           6.5014   -2.3257    1.9062 H       1  UNL1        0.0378
     42 H           7.3764   -0.7629    5.0927 H       1  UNL1        0.2951
     43 H           2.5941   -0.8489    1.6469 H       1  UNL1        0.0655
     44 H           0.0957   -0.6275    1.5799 H       1  UNL1        0.0637
     45 H          -1.3704    1.4176    0.2779 H       1  UNL1        0.1564
     46 H          -4.1707    0.9955    0.0680 H       1  UNL1        0.1594
     47 H          -5.9480   -0.4087    1.6523 H       1  UNL1        0.0626
     48 H          -8.2907   -0.1725    2.1288 H       1  UNL1        0.0632
     49 H          -9.0442    0.3953   -2.1039 H       1  UNL1        0.0647
@<TRIPOS>BOND
     1     1     2    1
     2     2     3   ar
     3     3     4    1
     4     3     5   ar
     5     5     6    1
     6     6     7    1
     7     7     8    1
     8     8     9    1
     9     9    10    1
    10    10    11    1
    11    10    12    2
    12     5    13   ar
    13    13    14   ar
    14    14    15   ar
    15    15    16    1
    16    16    17   am
    17    17    18    2
    18    17    19   am
    19    19    20   am
    20    20    21    2
    21    20    22    1
    22    22    23   ar
    23    23    24   ar
    24    24    25   ar
    25    25    26    1
    26    25    27   ar
    27    27    28   ar
    28    28    29    1
    29    15     2   ar
    30    28    22   ar
    31     1    30    1
    32     1    31    1
    33     1    32    1
    34     4    33    1
    35     4    34    1
    36     4    35    1
    37     7    36    1
    38     7    37    1
    39     8    38    1
    40     8    39    1
    41     9    40    1
    42     9    41    1
    43    11    42    1
    44    13    43    1
    45    14    44    1
    46    16    45    1
    47    19    46    1
    48    23    47    1
    49    24    48    1
    50    27    49    1
