@<TRIPOS>MOLECULE
*****
 42 45 0 0 0
SMALL
GASTEIGER

@<TRIPOS>ATOM
      1 C          -0.6730    0.3109    2.2858 C.3     1  UNL1       -0.0216
      2 C          -0.0283    0.2045    0.9518 C.ar    1  UNL1        0.0510
      3 N           1.2846    0.0333    0.8773 N.ar    1  UNL1       -0.2190
      4 C           1.9665   -0.0750   -0.2858 C.ar    1  UNL1        0.2181
      5 N           3.3587   -0.2544   -0.2367 N.pl3   1  UNL1       -0.2971
      6 C           4.2166   -0.3847   -1.3824 C.3     1  UNL1        0.0174
      7 C           5.1018   -1.5538   -0.9402 C.3     1  UNL1       -0.0095
      8 C           5.4311   -1.1358    0.4804 C.3     1  UNL1        0.0723
      9 O           6.5478   -0.3213    0.5245 O.3     1  UNL1       -0.3902
     10 C           4.1941   -0.3431    0.9244 C.3     1  UNL1        0.0409
     11 N           1.2594   -0.0031   -1.4234 N.ar    1  UNL1       -0.2221
     12 C          -0.0910    0.1718   -1.4150 C.ar    1  UNL1        0.0406
     13 C          -0.7581    0.2788   -0.2185 C.ar    1  UNL1        0.0221
     14 C          -2.1999    0.4655   -0.2119 C.ar    1  UNL1       -0.0035
     15 C          -2.7356    1.7359   -0.2292 C.ar    1  UNL1       -0.0415
     16 C          -4.0936    1.8882   -0.2225 C.ar    1  UNL1        0.0574
     17 C          -4.6723    3.2536   -0.2410 C.3     1  UNL1        0.4175
     18 F          -3.6803    4.2007   -0.2123 F       1  UNL1       -0.1659
     19 F          -5.4788    3.4505   -1.3391 F       1  UNL1       -0.1659
     20 F          -5.4094    3.4128    0.9358 F       1  UNL1       -0.1659
     21 C          -4.8945    0.7817   -0.1988 C.ar    1  UNL1       -0.0246
     22 C          -4.4062   -0.5029   -0.1810 C.ar    1  UNL1        0.0668
     23 N          -4.9562   -1.7366   -0.1569 N.ar    1  UNL1       -0.2769
     24 N          -3.9881   -2.6501   -0.1484 N.ar    1  UNL1       -0.1812
     25 C          -2.8065   -2.0119   -0.1669 C.ar    1  UNL1        0.0575
     26 C          -3.0306   -0.6332   -0.1882 C.ar    1  UNL1        0.0273
     27 H          -0.1171    1.0876    2.8665 H       1  UNL1        0.0293
     28 H          -1.7487    0.5245    2.2250 H       1  UNL1        0.0293
     29 H          -0.4874   -0.6450    2.8406 H       1  UNL1        0.0293
     30 H           4.8692    0.5239   -1.5111 H       1  UNL1        0.0465
     31 H           3.6680   -0.6207   -2.3134 H       1  UNL1        0.0465
     32 H           4.4340   -2.4309   -0.8934 H       1  UNL1        0.0306
     33 H           5.9819   -1.6711   -1.5667 H       1  UNL1        0.0306
     34 H           5.5851   -2.0192    1.1012 H       1  UNL1        0.0609
     35 H           6.5682    0.2725   -0.2758 H       1  UNL1        0.2098
     36 H           3.7251   -0.8770    1.7690 H       1  UNL1        0.0490
     37 H           4.5103    0.6529    1.2971 H       1  UNL1        0.0490
     38 H          -0.6000    0.2212   -2.3657 H       1  UNL1        0.0837
     39 H          -2.0745    2.6197   -0.2482 H       1  UNL1        0.0629
     40 H          -5.9780    0.9088   -0.1936 H       1  UNL1        0.0644
     41 H          -5.9798   -1.9305   -0.1467 H       1  UNL1        0.1889
     42 H          -1.8144   -2.4527   -0.1664 H       1  UNL1        0.0854
@<TRIPOS>BOND
     1     1     2    1
     2     2     3   ar
     3     3     4   ar
     4     4     5    1
     5     5     6    1
     6     6     7    1
     7     7     8    1
     8     8     9    1
     9     8    10    1
    10     4    11   ar
    11    11    12   ar
    12    12    13   ar
    13    13    14    1
    14    14    15   ar
    15    15    16   ar
    16    16    17    1
    17    17    18    1
    18    17    19    1
    19    17    20    1
    20    16    21   ar
    21    21    22   ar
    22    22    23   ar
    23    23    24   ar
    24    24    25   ar
    25    25    26   ar
    26    13     2   ar
    27    26    14   ar
    28    10     5    1
    29    26    22   ar
    30     1    27    1
    31     1    28    1
    32     1    29    1
    33     6    30    1
    34     6    31    1
    35     7    32    1
    36     7    33    1
    37     8    34    1
    38     9    35    1
    39    10    36    1
    40    10    37    1
    41    12    38    1
    42    15    39    1
    43    21    40    1
    44    23    41    1
    45    25    42    1
