
     RDKit          3D

 42 45  0  0  0  0  0  0  0  0999 V2000
   -0.6730    0.3109    2.2858 C   0  0  0  0  0  0  0  0  0  0  0  0
   -0.0283    0.2045    0.9518 C   0  0  0  0  0  0  0  0  0  0  0  0
    1.2846    0.0333    0.8773 N   0  0  0  0  0  0  0  0  0  0  0  0
    1.9665   -0.0750   -0.2858 C   0  0  0  0  0  0  0  0  0  0  0  0
    3.3587   -0.2544   -0.2367 N   0  0  0  0  0  0  0  0  0  0  0  0
    4.2166   -0.3847   -1.3824 C   0  0  0  0  0  0  0  0  0  0  0  0
    5.1018   -1.5538   -0.9402 C   0  0  0  0  0  0  0  0  0  0  0  0
    5.4311   -1.1358    0.4804 C   0  0  1  0  0  0  0  0  0  0  0  0
    6.5478   -0.3213    0.5245 O   0  0  0  0  0  0  0  0  0  0  0  0
    4.1941   -0.3431    0.9244 C   0  0  0  0  0  0  0  0  0  0  0  0
    1.2594   -0.0031   -1.4234 N   0  0  0  0  0  0  0  0  0  0  0  0
   -0.0910    0.1718   -1.4150 C   0  0  0  0  0  0  0  0  0  0  0  0
   -0.7581    0.2788   -0.2185 C   0  0  0  0  0  0  0  0  0  0  0  0
   -2.1999    0.4655   -0.2119 C   0  0  0  0  0  0  0  0  0  0  0  0
   -2.7356    1.7359   -0.2292 C   0  0  0  0  0  0  0  0  0  0  0  0
   -4.0936    1.8882   -0.2225 C   0  0  0  0  0  0  0  0  0  0  0  0
   -4.6723    3.2536   -0.2410 C   0  0  0  0  0  0  0  0  0  0  0  0
   -3.6803    4.2007   -0.2123 F   0  0  0  0  0  0  0  0  0  0  0  0
   -5.4788    3.4505   -1.3391 F   0  0  0  0  0  0  0  0  0  0  0  0
   -5.4094    3.4128    0.9358 F   0  0  0  0  0  0  0  0  0  0  0  0
   -4.8945    0.7817   -0.1988 C   0  0  0  0  0  0  0  0  0  0  0  0
   -4.4062   -0.5029   -0.1810 C   0  0  0  0  0  0  0  0  0  0  0  0
   -4.9562   -1.7366   -0.1569 N   0  0  0  0  0  0  0  0  0  0  0  0
   -3.9881   -2.6501   -0.1484 N   0  0  0  0  0  0  0  0  0  0  0  0
   -2.8065   -2.0119   -0.1669 C   0  0  0  0  0  0  0  0  0  0  0  0
   -3.0306   -0.6332   -0.1882 C   0  0  0  0  0  0  0  0  0  0  0  0
   -0.1171    1.0876    2.8665 H   0  0  0  0  0  0  0  0  0  0  0  0
   -1.7487    0.5245    2.2250 H   0  0  0  0  0  0  0  0  0  0  0  0
   -0.4874   -0.6450    2.8406 H   0  0  0  0  0  0  0  0  0  0  0  0
    4.8692    0.5239   -1.5111 H   0  0  0  0  0  0  0  0  0  0  0  0
    3.6680   -0.6207   -2.3134 H   0  0  0  0  0  0  0  0  0  0  0  0
    4.4340   -2.4309   -0.8934 H   0  0  0  0  0  0  0  0  0  0  0  0
    5.9819   -1.6711   -1.5667 H   0  0  0  0  0  0  0  0  0  0  0  0
    5.5851   -2.0192    1.1012 H   0  0  0  0  0  0  0  0  0  0  0  0
    6.5682    0.2725   -0.2758 H   0  0  0  0  0  0  0  0  0  0  0  0
    3.7251   -0.8770    1.7690 H   0  0  0  0  0  0  0  0  0  0  0  0
    4.5103    0.6529    1.2971 H   0  0  0  0  0  0  0  0  0  0  0  0
   -0.6000    0.2212   -2.3657 H   0  0  0  0  0  0  0  0  0  0  0  0
   -2.0745    2.6197   -0.2482 H   0  0  0  0  0  0  0  0  0  0  0  0
   -5.9780    0.9088   -0.1936 H   0  0  0  0  0  0  0  0  0  0  0  0
   -5.9798   -1.9305   -0.1467 H   0  0  0  0  0  0  0  0  0  0  0  0
   -1.8144   -2.4527   -0.1664 H   0  0  0  0  0  0  0  0  0  0  0  0
  1  2  1  0
  2  3  2  0
  3  4  1  0
  4  5  1  0
  5  6  1  0
  6  7  1  0
  7  8  1  0
  8  9  1  0
  8 10  1  0
  4 11  2  0
 11 12  1  0
 12 13  2  0
 13 14  1  0
 14 15  2  0
 15 16  1  0
 16 17  1  0
 17 18  1  0
 17 19  1  0
 17 20  1  0
 16 21  2  0
 21 22  1  0
 22 23  1  0
 23 24  1  0
 24 25  2  0
 25 26  1  0
 13  2  1  0
 26 14  1  0
 10  5  1  0
 26 22  2  0
  1 27  1  0
  1 28  1  0
  1 29  1  0
  6 30  1  0
  6 31  1  0
  7 32  1  0
  7 33  1  0
  8 34  1  1
  9 35  1  0
 10 36  1  0
 10 37  1  0
 12 38  1  0
 15 39  1  0
 21 40  1  0
 23 41  1  0
 25 42  1  0
M  END
$$$$
