@<TRIPOS>MOLECULE
*****
 35 36 0 0 0
SMALL
GASTEIGER

@<TRIPOS>ATOM
      1 CL          7.8326    0.9360    0.4646 Cl      1  UNL1       -0.0835
      2 C           6.1192    0.8466    0.0828 C.ar    1  UNL1        0.0410
      3 C           5.5935    1.4349   -1.0470 C.ar    1  UNL1       -0.0427
      4 C           4.2201    1.3274   -1.2940 C.ar    1  UNL1       -0.0483
      5 C           3.3628    0.6531   -0.4496 C.ar    1  UNL1        0.0368
      6 C           3.9261    0.0794    0.6677 C.ar    1  UNL1       -0.0483
      7 C           5.2727    0.1576    0.9547 C.ar    1  UNL1       -0.0427
      8 C           1.9468    0.5966   -0.7938 C.2     1  UNL1        0.2441
      9 O           1.6063    1.1765   -1.8542 O.2     1  UNL1       -0.2702
     10 N           1.0030   -0.0794    0.0281 N.am    1  UNL1       -0.3101
     11 C          -0.3938   -0.0704   -0.4181 C.3     1  UNL1        0.0247
     12 C          -1.2783   -0.8162    0.5372 C.3     1  UNL1        0.0146
     13 N          -2.6261   -0.7770    0.0557 N.3     1  UNL1       -0.2965
     14 C          -3.5557   -1.4610    0.8903 C.3     1  UNL1        0.0225
     15 C          -4.9766   -1.0619    0.7303 C.3     1  UNL1        0.0604
     16 O          -5.2330   -0.4913   -0.5184 O.3     1  UNL1       -0.3772
     17 C          -4.5004    0.6931   -0.5636 C.3     1  UNL1        0.0604
     18 C          -3.0411    0.4956   -0.4316 C.3     1  UNL1        0.0225
     19 H           6.2415    1.9736   -1.7329 H       1  UNL1        0.0632
     20 H           3.8871    1.8263   -2.2171 H       1  UNL1        0.0625
     21 H           3.2808   -0.4530    1.3441 H       1  UNL1        0.0625
     22 H           5.6802   -0.3107    1.8506 H       1  UNL1        0.0632
     23 H           1.2916   -0.5596    0.9084 H       1  UNL1        0.1490
     24 H          -0.7195    0.9865   -0.4549 H       1  UNL1        0.0475
     25 H          -0.4052   -0.5490   -1.4065 H       1  UNL1        0.0475
     26 H          -0.9885   -1.9009    0.5525 H       1  UNL1        0.0442
     27 H          -1.1919   -0.4408    1.5662 H       1  UNL1        0.0442
     28 H          -3.4233   -2.5521    0.7374 H       1  UNL1        0.0449
     29 H          -3.2558   -1.2667    1.9615 H       1  UNL1        0.0449
     30 H          -5.6092   -1.9901    0.7820 H       1  UNL1        0.0572
     31 H          -5.3471   -0.4055    1.5529 H       1  UNL1        0.0572
     32 H          -4.8487    1.4183    0.2006 H       1  UNL1        0.0572
     33 H          -4.7339    1.1661   -1.5584 H       1  UNL1        0.0572
     34 H          -2.6038    1.2586    0.2735 H       1  UNL1        0.0449
     35 H          -2.5326    0.6755   -1.4012 H       1  UNL1        0.0449
@<TRIPOS>BOND
     1     1     2    1
     2     2     3   ar
     3     3     4   ar
     4     4     5   ar
     5     5     6   ar
     6     6     7   ar
     7     5     8    1
     8     8     9    2
     9     8    10   am
    10    10    11    1
    11    11    12    1
    12    12    13    1
    13    13    14    1
    14    14    15    1
    15    15    16    1
    16    16    17    1
    17    17    18    1
    18     7     2   ar
    19    18    13    1
    20     3    19    1
    21     4    20    1
    22     6    21    1
    23     7    22    1
    24    10    23    1
    25    11    24    1
    26    11    25    1
    27    12    26    1
    28    12    27    1
    29    14    28    1
    30    14    29    1
    31    15    30    1
    32    15    31    1
    33    17    32    1
    34    17    33    1
    35    18    34    1
    36    18    35    1
