
     RDKit          3D

 35 36  0  0  0  0  0  0  0  0999 V2000
    7.8326    0.9360    0.4646 Cl  0  0  0  0  0  0  0  0  0  0  0  0
    6.1192    0.8466    0.0828 C   0  0  0  0  0  0  0  0  0  0  0  0
    5.5935    1.4349   -1.0470 C   0  0  0  0  0  0  0  0  0  0  0  0
    4.2201    1.3274   -1.2940 C   0  0  0  0  0  0  0  0  0  0  0  0
    3.3628    0.6531   -0.4496 C   0  0  0  0  0  0  0  0  0  0  0  0
    3.9261    0.0794    0.6677 C   0  0  0  0  0  0  0  0  0  0  0  0
    5.2727    0.1576    0.9547 C   0  0  0  0  0  0  0  0  0  0  0  0
    1.9468    0.5966   -0.7938 C   0  0  0  0  0  0  0  0  0  0  0  0
    1.6063    1.1765   -1.8542 O   0  0  0  0  0  0  0  0  0  0  0  0
    1.0030   -0.0794    0.0281 N   0  0  0  0  0  0  0  0  0  0  0  0
   -0.3938   -0.0704   -0.4181 C   0  0  0  0  0  0  0  0  0  0  0  0
   -1.2783   -0.8162    0.5372 C   0  0  0  0  0  0  0  0  0  0  0  0
   -2.6261   -0.7770    0.0557 N   0  0  0  0  0  0  0  0  0  0  0  0
   -3.5557   -1.4610    0.8903 C   0  0  0  0  0  0  0  0  0  0  0  0
   -4.9766   -1.0619    0.7303 C   0  0  0  0  0  0  0  0  0  0  0  0
   -5.2330   -0.4913   -0.5184 O   0  0  0  0  0  0  0  0  0  0  0  0
   -4.5004    0.6931   -0.5636 C   0  0  0  0  0  0  0  0  0  0  0  0
   -3.0411    0.4956   -0.4316 C   0  0  0  0  0  0  0  0  0  0  0  0
    6.2415    1.9736   -1.7329 H   0  0  0  0  0  0  0  0  0  0  0  0
    3.8871    1.8263   -2.2171 H   0  0  0  0  0  0  0  0  0  0  0  0
    3.2808   -0.4530    1.3441 H   0  0  0  0  0  0  0  0  0  0  0  0
    5.6802   -0.3107    1.8506 H   0  0  0  0  0  0  0  0  0  0  0  0
    1.2916   -0.5596    0.9084 H   0  0  0  0  0  0  0  0  0  0  0  0
   -0.7195    0.9865   -0.4549 H   0  0  0  0  0  0  0  0  0  0  0  0
   -0.4052   -0.5490   -1.4065 H   0  0  0  0  0  0  0  0  0  0  0  0
   -0.9885   -1.9009    0.5525 H   0  0  0  0  0  0  0  0  0  0  0  0
   -1.1919   -0.4408    1.5662 H   0  0  0  0  0  0  0  0  0  0  0  0
   -3.4233   -2.5521    0.7374 H   0  0  0  0  0  0  0  0  0  0  0  0
   -3.2558   -1.2667    1.9615 H   0  0  0  0  0  0  0  0  0  0  0  0
   -5.6092   -1.9901    0.7820 H   0  0  0  0  0  0  0  0  0  0  0  0
   -5.3471   -0.4055    1.5529 H   0  0  0  0  0  0  0  0  0  0  0  0
   -4.8487    1.4183    0.2006 H   0  0  0  0  0  0  0  0  0  0  0  0
   -4.7339    1.1661   -1.5584 H   0  0  0  0  0  0  0  0  0  0  0  0
   -2.6038    1.2586    0.2735 H   0  0  0  0  0  0  0  0  0  0  0  0
   -2.5326    0.6755   -1.4012 H   0  0  0  0  0  0  0  0  0  0  0  0
  1  2  1  0
  2  3  2  0
  3  4  1  0
  4  5  2  0
  5  6  1  0
  6  7  2  0
  5  8  1  0
  8  9  2  0
  8 10  1  0
 10 11  1  0
 11 12  1  0
 12 13  1  0
 13 14  1  0
 14 15  1  0
 15 16  1  0
 16 17  1  0
 17 18  1  0
  7  2  1  0
 18 13  1  0
  3 19  1  0
  4 20  1  0
  6 21  1  0
  7 22  1  0
 10 23  1  0
 11 24  1  0
 11 25  1  0
 12 26  1  0
 12 27  1  0
 14 28  1  0
 14 29  1  0
 15 30  1  0
 15 31  1  0
 17 32  1  0
 17 33  1  0
 18 34  1  0
 18 35  1  0
M  END
$$$$
