@<TRIPOS>MOLECULE
*****
 46 49 0 0 0
SMALL
GASTEIGER

@<TRIPOS>ATOM
      1 C           4.3031   -0.8286    1.8913 C.3     1  UNL1       -0.0375
      2 C           4.7055   -0.1017    0.6636 C.ar    1  UNL1       -0.0187
      3 C           6.0848    0.1229    0.4421 C.ar    1  UNL1       -0.0378
      4 C           6.5572    0.7278   -0.6806 C.ar    1  UNL1        0.0701
      5 C           7.9569    0.9496   -0.8933 C.1     1  UNL1        0.1007
      6 N           9.0956    1.1267   -1.0701 N.1     1  UNL1       -0.1908
      7 C           5.6532    1.1417   -1.6479 C.ar    1  UNL1        0.0458
      8 N           4.3496    0.9287   -1.4343 N.ar    1  UNL1       -0.2488
      9 C           3.8690    0.3189   -0.3007 C.ar    1  UNL1        0.1286
     10 C           2.4306    0.2477   -0.2224 C.2     1  UNL1        0.2668
     11 O           1.7783    0.1064   -1.3236 O.2     1  UNL1       -0.2682
     12 N           1.7111    0.3281    0.9593 N.am    1  UNL1       -0.2802
     13 C           0.3083    0.2549    1.1631 C.ar    1  UNL1        0.0342
     14 C          -0.1865    0.3764    2.4668 C.ar    1  UNL1       -0.0377
     15 C          -1.5275    0.3139    2.7327 C.ar    1  UNL1       -0.0243
     16 C          -2.4380    0.1295    1.7259 C.ar    1  UNL1        0.1291
     17 F          -3.7683    0.0670    1.9792 F       1  UNL1       -0.2051
     18 C          -1.9726    0.0067    0.4263 C.ar    1  UNL1        0.0198
     19 C          -2.9343   -0.2166   -0.7007 C.3     1  UNL1        0.1284
     20 C          -2.1718   -0.2204   -1.9989 C.3     1  UNL1        0.1199
     21 F          -1.5643    0.9999   -2.1607 F       1  UNL1       -0.2462
     22 N          -3.5930   -1.4398   -0.4324 N.2     1  UNL1       -0.2225
     23 C          -4.8298   -1.6095   -0.2343 C.2     1  UNL1        0.2763
     24 N          -5.3952   -2.9084    0.0317 N.pl3   1  UNL1       -0.3134
     25 O          -5.6883   -0.5331   -0.2684 O.2     1  UNL1       -0.4622
     26 C          -5.2849    0.7370   -0.6492 C.3     1  UNL1        0.1090
     27 C          -4.7588    0.9452   -2.0224 C.3     1  UNL1       -0.0065
     28 C          -3.8699    0.9803   -0.8045 C.3     1  UNL1        0.0315
     29 C          -0.6223    0.0710    0.1751 C.ar    1  UNL1       -0.0322
     30 H           5.1497   -1.5724    2.0851 H       1  UNL1        0.0278
     31 H           3.4157   -1.4625    1.7276 H       1  UNL1        0.0278
     32 H           4.2417   -0.1990    2.7752 H       1  UNL1        0.0278
     33 H           6.7554   -0.2110    1.2129 H       1  UNL1        0.0634
     34 H           6.0135    1.6231   -2.5458 H       1  UNL1        0.0843
     35 H           2.2901    0.5106    1.8475 H       1  UNL1        0.1552
     36 H           0.5329    0.5226    3.2671 H       1  UNL1        0.0637
     37 H          -1.8963    0.4093    3.7467 H       1  UNL1        0.0647
     38 H          -2.8961   -0.3461   -2.8565 H       1  UNL1        0.0643
     39 H          -1.3976   -1.0094   -2.0726 H       1  UNL1        0.0643
     40 H          -4.8196   -3.5882    0.5499 H       1  UNL1        0.1466
     41 H          -6.3412   -3.1568   -0.2817 H       1  UNL1        0.1466
     42 H          -5.8980    1.5618   -0.2113 H       1  UNL1        0.0737
     43 H          -4.8720    1.9190   -2.5376 H       1  UNL1        0.0306
     44 H          -4.8361    0.0828   -2.6806 H       1  UNL1        0.0306
     45 H          -3.4082    1.9307   -0.5087 H       1  UNL1        0.0365
     46 H          -0.2314   -0.0369   -0.8324 H       1  UNL1        0.0640
@<TRIPOS>BOND
     1     1     2    1
     2     2     3   ar
     3     3     4   ar
     4     4     5    1
     5     5     6    3
     6     4     7   ar
     7     7     8   ar
     8     8     9   ar
     9     9    10    1
    10    10    11    2
    11    10    12   am
    12    12    13    1
    13    13    14   ar
    14    14    15   ar
    15    15    16   ar
    16    16    17    1
    17    16    18   ar
    18    18    19    1
    19    19    20    1
    20    20    21    1
    21    19    22    1
    22    22    23    2
    23    23    24    1
    24    23    25    1
    25    25    26    1
    26    26    27    1
    27    27    28    1
    28    18    29   ar
    29     9     2   ar
    30    29    13   ar
    31    28    19    1
    32    28    26    1
    33     1    30    1
    34     1    31    1
    35     1    32    1
    36     3    33    1
    37     7    34    1
    38    12    35    1
    39    14    36    1
    40    15    37    1
    41    20    38    1
    42    20    39    1
    43    24    40    1
    44    24    41    1
    45    26    42    1
    46    27    43    1
    47    27    44    1
    48    28    45    1
    49    29    46    1
