
     RDKit          3D

 32 34  0  0  0  0  0  0  0  0999 V2000
   -4.9209   -0.9429    2.8363 C   0  0  0  0  0  0  0  0  0  0  0  0
   -3.7850   -1.5330    2.0627 C   0  0  0  0  0  0  0  0  0  0  0  0
   -2.8747   -0.4925    1.6558 N   0  0  0  0  0  0  0  0  0  0  0  0
   -1.6806   -0.7580    0.9257 C   0  0  0  0  0  0  0  0  0  0  0  0
   -1.4133   -2.0403    0.6298 N   0  0  0  0  0  0  0  0  0  0  0  0
   -0.2827   -2.3179   -0.0551 C   0  0  0  0  0  0  0  0  0  0  0  0
    0.0876   -3.6530   -0.3998 C   0  0  0  0  0  0  0  0  0  0  0  0
    0.3946   -4.7612   -0.7074 N   0  0  0  0  0  0  0  0  0  0  0  0
    0.5359   -1.3162   -0.4194 N   0  0  0  0  0  0  0  0  0  0  0  0
    0.3126   -0.0218   -0.1477 C   0  0  0  0  0  0  0  0  0  0  0  0
   -0.8455    0.2720    0.5555 C   0  0  0  0  0  0  0  0  0  0  0  0
   -0.8440    1.6060    0.7021 N   0  0  0  0  0  0  0  0  0  0  0  0
    0.2452    2.1430    0.1307 C   0  0  0  0  0  0  0  0  0  0  0  0
    0.9674    1.1487   -0.3977 N   0  0  0  0  0  0  0  0  0  0  0  0
    2.1932    1.2767   -1.0899 C   0  0  0  0  0  0  0  0  0  0  0  0
    2.2325    1.2576   -2.4923 C   0  0  0  0  0  0  0  0  0  0  0  0
    3.4392    1.3833   -3.1442 C   0  0  0  0  0  0  0  0  0  0  0  0
    3.4091    1.3546   -4.5121 F   0  0  0  0  0  0  0  0  0  0  0  0
    4.6367    1.5307   -2.4688 C   0  0  0  0  0  0  0  0  0  0  0  0
    4.5689    1.5463   -1.0895 C   0  0  0  0  0  0  0  0  0  0  0  0
    5.7150    1.6880   -0.3874 F   0  0  0  0  0  0  0  0  0  0  0  0
    3.3746    1.4220   -0.4167 C   0  0  0  0  0  0  0  0  0  0  0  0
   -5.0109   -1.3922    3.8521 H   0  0  0  0  0  0  0  0  0  0  0  0
   -5.9107   -1.0950    2.3283 H   0  0  0  0  0  0  0  0  0  0  0  0
   -4.7688    0.1427    2.9393 H   0  0  0  0  0  0  0  0  0  0  0  0
   -4.1351   -2.0262    1.1265 H   0  0  0  0  0  0  0  0  0  0  0  0
   -3.2577   -2.3455    2.6355 H   0  0  0  0  0  0  0  0  0  0  0  0
   -3.0802    0.4924    1.8962 H   0  0  0  0  0  0  0  0  0  0  0  0
    0.4375    3.2190    0.1384 H   0  0  0  0  0  0  0  0  0  0  0  0
    1.3395    1.1475   -3.0807 H   0  0  0  0  0  0  0  0  0  0  0  0
    5.5633    1.6267   -3.0192 H   0  0  0  0  0  0  0  0  0  0  0  0
    3.3570    1.4383    0.6683 H   0  0  0  0  0  0  0  0  0  0  0  0
  1  2  1  0
  2  3  1  0
  3  4  1  0
  4  5  2  0
  5  6  1  0
  6  7  1  0
  7  8  3  0
  6  9  2  0
  9 10  1  0
 10 11  2  0
 11 12  1  0
 12 13  2  0
 13 14  1  0
 14 15  1  0
 15 16  2  0
 16 17  1  0
 17 18  1  0
 17 19  2  0
 19 20  1  0
 20 21  1  0
 20 22  2  0
 11  4  1  0
 22 15  1  0
 14 10  1  0
  1 23  1  0
  1 24  1  0
  1 25  1  0
  2 26  1  0
  2 27  1  0
  3 28  1  0
 13 29  1  0
 16 30  1  0
 19 31  1  0
 22 32  1  0
M  END
$$$$
