@<TRIPOS>MOLECULE
*****
 32 34 0 0 0
SMALL
GASTEIGER

@<TRIPOS>ATOM
      1 C          -4.9209   -0.9429    2.8363 C.3     1  UNL1       -0.0496
      2 C          -3.7850   -1.5330    2.0627 C.3     1  UNL1        0.0077
      3 N          -2.8747   -0.4925    1.6558 N.pl3   1  UNL1       -0.3275
      4 C          -1.6806   -0.7580    0.9257 C.ar    1  UNL1        0.1511
      5 N          -1.4133   -2.0403    0.6298 N.ar    1  UNL1       -0.2014
      6 C          -0.2827   -2.3179   -0.0551 C.ar    1  UNL1        0.2356
      7 C           0.0876   -3.6530   -0.3998 C.1     1  UNL1        0.1400
      8 N           0.3946   -4.7612   -0.7074 N.1     1  UNL1       -0.1876
      9 N           0.5359   -1.3162   -0.4194 N.ar    1  UNL1       -0.1984
     10 C           0.3126   -0.0218   -0.1477 C.ar    1  UNL1        0.1711
     11 C          -0.8455    0.2720    0.5555 C.ar    1  UNL1        0.1478
     12 N          -0.8440    1.6060    0.7021 N.ar    1  UNL1       -0.2303
     13 C           0.2452    2.1430    0.1307 C.ar    1  UNL1        0.1028
     14 N           0.9674    1.1487   -0.3977 N.ar    1  UNL1       -0.2829
     15 C           2.1932    1.2767   -1.0899 C.ar    1  UNL1        0.0549
     16 C           2.2325    1.2576   -2.4923 C.ar    1  UNL1       -0.0023
     17 C           3.4392    1.3833   -3.1442 C.ar    1  UNL1        0.1281
     18 F           3.4091    1.3546   -4.5121 F       1  UNL1       -0.2053
     19 C           4.6367    1.5307   -2.4688 C.ar    1  UNL1        0.0089
     20 C           4.5689    1.5463   -1.0895 C.ar    1  UNL1        0.1281
     21 F           5.7150    1.6880   -0.3874 F       1  UNL1       -0.2053
     22 C           3.3746    1.4220   -0.4167 C.ar    1  UNL1       -0.0023
     23 H          -5.0109   -1.3922    3.8521 H       1  UNL1        0.0245
     24 H          -5.9107   -1.0950    2.3283 H       1  UNL1        0.0245
     25 H          -4.7688    0.1427    2.9393 H       1  UNL1        0.0245
     26 H          -4.1351   -2.0262    1.1265 H       1  UNL1        0.0459
     27 H          -3.2577   -2.3455    2.6355 H       1  UNL1        0.0459
     28 H          -3.0802    0.4924    1.8962 H       1  UNL1        0.1475
     29 H           0.4375    3.2190    0.1384 H       1  UNL1        0.1033
     30 H           1.3395    1.1475   -3.0807 H       1  UNL1        0.0667
     31 H           5.5633    1.6267   -3.0192 H       1  UNL1        0.0675
     32 H           3.3570    1.4383    0.6683 H       1  UNL1        0.0667
@<TRIPOS>BOND
     1     1     2    1
     2     2     3    1
     3     3     4    1
     4     4     5   ar
     5     5     6   ar
     6     6     7    1
     7     7     8    3
     8     6     9   ar
     9     9    10   ar
    10    10    11   ar
    11    11    12   ar
    12    12    13   ar
    13    13    14   ar
    14    14    15    1
    15    15    16   ar
    16    16    17   ar
    17    17    18    1
    18    17    19   ar
    19    19    20   ar
    20    20    21    1
    21    20    22   ar
    22    11     4   ar
    23    22    15   ar
    24    14    10   ar
    25     1    23    1
    26     1    24    1
    27     1    25    1
    28     2    26    1
    29     2    27    1
    30     3    28    1
    31    13    29    1
    32    16    30    1
    33    19    31    1
    34    22    32    1
