@<TRIPOS>MOLECULE
*****
 74 80 0 0 0
SMALL
GASTEIGER

@<TRIPOS>ATOM
      1 C          -7.5635    0.5766   -0.2921 C.3     1  UNL1       -0.0380
      2 C          -7.0115    1.9429   -0.1596 C.ar    1  UNL1       -0.0279
      3 C          -7.8008    2.9082    0.4266 C.ar    1  UNL1       -0.0557
      4 C          -7.3401    4.2012    0.5774 C.ar    1  UNL1       -0.0433
      5 C          -6.0694    4.4942    0.1241 C.ar    1  UNL1        0.0279
      6 N          -5.3326    3.5369   -0.4382 N.ar    1  UNL1       -0.2583
      7 C          -5.7401    2.2684   -0.6047 C.ar    1  UNL1        0.0581
      8 C          -4.9096    1.2329   -1.2265 C.3     1  UNL1        0.0415
      9 N          -4.3205    0.3081   -0.3506 N.3     1  UNL1       -0.2965
     10 C          -3.3961    0.7282    0.6155 C.3     1  UNL1        0.0017
     11 C          -2.5085   -0.3927    1.0757 C.3     1  UNL1       -0.0095
     12 C          -2.0146   -1.2826   -0.0459 C.3     1  UNL1        0.1240
     13 C          -3.0596   -1.5587   -1.0754 C.3     1  UNL1       -0.0095
     14 C          -4.4296   -1.0589   -0.6702 C.3     1  UNL1        0.0017
     15 C          -0.7588   -0.7562   -0.6353 C.2     1  UNL1        0.2516
     16 O          -0.7012   -0.0314   -1.6747 O.2     1  UNL1       -0.2724
     17 N           0.3032   -1.2172    0.1753 N.am    1  UNL1       -0.1920
     18 C           1.6053   -0.6647    0.2098 C.ar    1  UNL1        0.0455
     19 C           2.0006    0.3453    1.0589 C.ar    1  UNL1       -0.0392
     20 C           3.3084    0.8293    1.0239 C.ar    1  UNL1       -0.0523
     21 C           4.2452    0.3218    0.1482 C.ar    1  UNL1       -0.0178
     22 C           5.6190    0.8187    0.1046 C.ar    1  UNL1       -0.0178
     23 C           6.2696    1.2900    1.2244 C.ar    1  UNL1       -0.0534
     24 C           7.5885    1.7583    1.1417 C.ar    1  UNL1       -0.0519
     25 C           8.2710    1.7617   -0.0539 C.ar    1  UNL1        0.0021
     26 C           9.6420    2.2498   -0.1307 C.ar    1  UNL1        0.0925
     27 C          10.4282    2.7489    0.8840 C.ar    1  UNL1       -0.0165
     28 C          11.6669    3.1031    0.3930 C.ar    1  UNL1        0.0229
     29 N          11.6065    2.8079   -0.9265 N.ar    1  UNL1       -0.2842
     30 N          10.4192    2.3081   -1.2307 N.ar    1  UNL1       -0.1739
     31 C           7.6156    1.2898   -1.1683 C.ar    1  UNL1       -0.0519
     32 C           6.3054    0.8250   -1.0838 C.ar    1  UNL1       -0.0534
     33 C           3.8608   -0.6807   -0.6977 C.ar    1  UNL1       -0.0523
     34 C           2.5710   -1.1601   -0.6649 C.ar    1  UNL1       -0.0392
     35 C          -0.2015   -2.3147    0.9142 C.2     1  UNL1        0.3219
     36 O           0.4076   -3.0271    1.7626 O.2     1  UNL1       -0.2512
     37 N          -1.5852   -2.5292    0.5532 N.am    1  UNL1       -0.2240
     38 C          -2.3273   -3.7278    0.7703 C.ar    1  UNL1        0.1364
     39 C          -2.2962   -4.6976   -0.2073 C.ar    1  UNL1        0.0432
     40 C          -2.9867   -5.8827   -0.0736 C.ar    1  UNL1        0.2531
     41 O          -2.9193   -6.7246   -0.9964 O.2     1  UNL1       -0.2678
     42 N          -3.6999   -6.0637    1.0560 N.ar    1  UNL1       -0.3133
     43 C          -3.7355   -5.1177    2.0195 C.ar    1  UNL1        0.0981
     44 N          -3.0473   -3.9525    1.8702 N.ar    1  UNL1       -0.2220
     45 H          -7.3466    0.1235   -1.2790 H       1  UNL1        0.0278
     46 H          -8.6685    0.5965   -0.1966 H       1  UNL1        0.0278
     47 H          -7.1881   -0.1171    0.4859 H       1  UNL1        0.0278
     48 H          -8.8091    2.6564    0.7804 H       1  UNL1        0.0621
     49 H          -7.9332    4.9845    1.0325 H       1  UNL1        0.0633
     50 H          -5.7105    5.5284    0.2491 H       1  UNL1        0.0829
     51 H          -5.4453    0.6672   -2.0292 H       1  UNL1        0.0491
     52 H          -4.0707    1.7516   -1.7818 H       1  UNL1        0.0491
     53 H          -2.7654    1.5334    0.1763 H       1  UNL1        0.0427
     54 H          -3.8450    1.1643    1.5367 H       1  UNL1        0.0427
     55 H          -1.6015   -0.0222    1.5998 H       1  UNL1        0.0303
     56 H          -3.0197   -1.0584    1.8163 H       1  UNL1        0.0303
     57 H          -3.1632   -2.6497   -1.2169 H       1  UNL1        0.0303
     58 H          -2.7406   -1.1457   -2.0455 H       1  UNL1        0.0303
     59 H          -4.8521   -1.6505    0.1680 H       1  UNL1        0.0427
     60 H          -5.1033   -1.1653   -1.5465 H       1  UNL1        0.0427
     61 H           1.2779    0.7536    1.7504 H       1  UNL1        0.0636
     62 H           3.5735    1.6245    1.7099 H       1  UNL1        0.0624
     63 H           5.7359    1.2879    2.1634 H       1  UNL1        0.0624
     64 H           8.0804    2.1235    2.0326 H       1  UNL1        0.0624
     65 H          10.1089    2.8424    1.9065 H       1  UNL1        0.0654
     66 H          12.5127    3.5243    0.9264 H       1  UNL1        0.0824
     67 H          12.4225    2.9758   -1.5685 H       1  UNL1        0.1882
     68 H           8.1657    1.2970   -2.1112 H       1  UNL1        0.0624
     69 H           5.8175    0.4598   -1.9764 H       1  UNL1        0.0624
     70 H           4.5896   -1.0855   -1.3889 H       1  UNL1        0.0624
     71 H           2.2589   -1.9656   -1.3436 H       1  UNL1        0.0636
     72 H          -1.7155   -4.5499   -1.1224 H       1  UNL1        0.0706
     73 H          -4.2149   -6.9735    1.1328 H       1  UNL1        0.1698
     74 H          -4.3288   -5.3257    2.9063 H       1  UNL1        0.1028
@<TRIPOS>BOND
     1     1     2    1
     2     2     3   ar
     3     3     4   ar
     4     4     5   ar
     5     5     6   ar
     6     6     7   ar
     7     7     8    1
     8     8     9    1
     9     9    10    1
    10    10    11    1
    11    11    12    1
    12    12    13    1
    13    13    14    1
    14    12    15    1
    15    15    16    2
    16    15    17   am
    17    17    18    1
    18    18    19   ar
    19    19    20   ar
    20    20    21   ar
    21    21    22    1
    22    22    23   ar
    23    23    24   ar
    24    24    25   ar
    25    25    26    1
    26    26    27   ar
    27    27    28   ar
    28    28    29   ar
    29    29    30   ar
    30    25    31   ar
    31    31    32   ar
    32    21    33   ar
    33    33    34   ar
    34    17    35   am
    35    35    36    2
    36    35    37   am
    37    37    38    1
    38    38    39   ar
    39    39    40   ar
    40    40    41    2
    41    40    42   ar
    42    42    43   ar
    43    43    44   ar
    44     7     2   ar
    45    14     9    1
    46    34    18   ar
    47    44    38   ar
    48    37    12    1
    49    32    22   ar
    50    30    26   ar
    51     1    45    1
    52     1    46    1
    53     1    47    1
    54     3    48    1
    55     4    49    1
    56     5    50    1
    57     8    51    1
    58     8    52    1
    59    10    53    1
    60    10    54    1
    61    11    55    1
    62    11    56    1
    63    13    57    1
    64    13    58    1
    65    14    59    1
    66    14    60    1
    67    19    61    1
    68    20    62    1
    69    23    63    1
    70    24    64    1
    71    27    65    1
    72    28    66    1
    73    29    67    1
    74    31    68    1
    75    32    69    1
    76    33    70    1
    77    34    71    1
    78    39    72    1
    79    42    73    1
    80    43    74    1
