
     RDKit          3D

 74 80  0  0  0  0  0  0  0  0999 V2000
   -7.5635    0.5766   -0.2921 C   0  0  0  0  0  0  0  0  0  0  0  0
   -7.0115    1.9429   -0.1596 C   0  0  0  0  0  0  0  0  0  0  0  0
   -7.8008    2.9082    0.4266 C   0  0  0  0  0  0  0  0  0  0  0  0
   -7.3401    4.2012    0.5774 C   0  0  0  0  0  0  0  0  0  0  0  0
   -6.0694    4.4942    0.1241 C   0  0  0  0  0  0  0  0  0  0  0  0
   -5.3326    3.5369   -0.4382 N   0  0  0  0  0  0  0  0  0  0  0  0
   -5.7401    2.2684   -0.6047 C   0  0  0  0  0  0  0  0  0  0  0  0
   -4.9096    1.2329   -1.2265 C   0  0  0  0  0  0  0  0  0  0  0  0
   -4.3205    0.3081   -0.3506 N   0  0  0  0  0  0  0  0  0  0  0  0
   -3.3961    0.7282    0.6155 C   0  0  0  0  0  0  0  0  0  0  0  0
   -2.5085   -0.3927    1.0757 C   0  0  0  0  0  0  0  0  0  0  0  0
   -2.0146   -1.2826   -0.0459 C   0  0  0  0  0  0  0  0  0  0  0  0
   -3.0596   -1.5587   -1.0754 C   0  0  0  0  0  0  0  0  0  0  0  0
   -4.4296   -1.0589   -0.6702 C   0  0  0  0  0  0  0  0  0  0  0  0
   -0.7588   -0.7562   -0.6353 C   0  0  0  0  0  0  0  0  0  0  0  0
   -0.7012   -0.0314   -1.6747 O   0  0  0  0  0  0  0  0  0  0  0  0
    0.3032   -1.2172    0.1753 N   0  0  0  0  0  0  0  0  0  0  0  0
    1.6053   -0.6647    0.2098 C   0  0  0  0  0  0  0  0  0  0  0  0
    2.0006    0.3453    1.0589 C   0  0  0  0  0  0  0  0  0  0  0  0
    3.3084    0.8293    1.0239 C   0  0  0  0  0  0  0  0  0  0  0  0
    4.2452    0.3218    0.1482 C   0  0  0  0  0  0  0  0  0  0  0  0
    5.6190    0.8187    0.1046 C   0  0  0  0  0  0  0  0  0  0  0  0
    6.2696    1.2900    1.2244 C   0  0  0  0  0  0  0  0  0  0  0  0
    7.5885    1.7583    1.1417 C   0  0  0  0  0  0  0  0  0  0  0  0
    8.2710    1.7617   -0.0539 C   0  0  0  0  0  0  0  0  0  0  0  0
    9.6420    2.2498   -0.1307 C   0  0  0  0  0  0  0  0  0  0  0  0
   10.4282    2.7489    0.8840 C   0  0  0  0  0  0  0  0  0  0  0  0
   11.6669    3.1031    0.3930 C   0  0  0  0  0  0  0  0  0  0  0  0
   11.6065    2.8079   -0.9265 N   0  0  0  0  0  0  0  0  0  0  0  0
   10.4192    2.3081   -1.2307 N   0  0  0  0  0  0  0  0  0  0  0  0
    7.6156    1.2898   -1.1683 C   0  0  0  0  0  0  0  0  0  0  0  0
    6.3054    0.8250   -1.0838 C   0  0  0  0  0  0  0  0  0  0  0  0
    3.8608   -0.6807   -0.6977 C   0  0  0  0  0  0  0  0  0  0  0  0
    2.5710   -1.1601   -0.6649 C   0  0  0  0  0  0  0  0  0  0  0  0
   -0.2015   -2.3147    0.9142 C   0  0  0  0  0  0  0  0  0  0  0  0
    0.4076   -3.0271    1.7626 O   0  0  0  0  0  0  0  0  0  0  0  0
   -1.5852   -2.5292    0.5532 N   0  0  0  0  0  0  0  0  0  0  0  0
   -2.3273   -3.7278    0.7703 C   0  0  0  0  0  0  0  0  0  0  0  0
   -2.2962   -4.6976   -0.2073 C   0  0  0  0  0  0  0  0  0  0  0  0
   -2.9867   -5.8827   -0.0736 C   0  0  0  0  0  0  0  0  0  0  0  0
   -2.9193   -6.7246   -0.9964 O   0  0  0  0  0  0  0  0  0  0  0  0
   -3.6999   -6.0637    1.0560 N   0  0  0  0  0  0  0  0  0  0  0  0
   -3.7355   -5.1177    2.0195 C   0  0  0  0  0  0  0  0  0  0  0  0
   -3.0473   -3.9525    1.8702 N   0  0  0  0  0  0  0  0  0  0  0  0
   -7.3466    0.1235   -1.2790 H   0  0  0  0  0  0  0  0  0  0  0  0
   -8.6685    0.5965   -0.1966 H   0  0  0  0  0  0  0  0  0  0  0  0
   -7.1881   -0.1171    0.4859 H   0  0  0  0  0  0  0  0  0  0  0  0
   -8.8091    2.6564    0.7804 H   0  0  0  0  0  0  0  0  0  0  0  0
   -7.9332    4.9845    1.0325 H   0  0  0  0  0  0  0  0  0  0  0  0
   -5.7105    5.5284    0.2491 H   0  0  0  0  0  0  0  0  0  0  0  0
   -5.4453    0.6672   -2.0292 H   0  0  0  0  0  0  0  0  0  0  0  0
   -4.0707    1.7516   -1.7818 H   0  0  0  0  0  0  0  0  0  0  0  0
   -2.7654    1.5334    0.1763 H   0  0  0  0  0  0  0  0  0  0  0  0
   -3.8450    1.1643    1.5367 H   0  0  0  0  0  0  0  0  0  0  0  0
   -1.6015   -0.0222    1.5998 H   0  0  0  0  0  0  0  0  0  0  0  0
   -3.0197   -1.0584    1.8163 H   0  0  0  0  0  0  0  0  0  0  0  0
   -3.1632   -2.6497   -1.2169 H   0  0  0  0  0  0  0  0  0  0  0  0
   -2.7406   -1.1457   -2.0455 H   0  0  0  0  0  0  0  0  0  0  0  0
   -4.8521   -1.6505    0.1680 H   0  0  0  0  0  0  0  0  0  0  0  0
   -5.1033   -1.1653   -1.5465 H   0  0  0  0  0  0  0  0  0  0  0  0
    1.2779    0.7536    1.7504 H   0  0  0  0  0  0  0  0  0  0  0  0
    3.5735    1.6245    1.7099 H   0  0  0  0  0  0  0  0  0  0  0  0
    5.7359    1.2879    2.1634 H   0  0  0  0  0  0  0  0  0  0  0  0
    8.0804    2.1235    2.0326 H   0  0  0  0  0  0  0  0  0  0  0  0
   10.1089    2.8424    1.9065 H   0  0  0  0  0  0  0  0  0  0  0  0
   12.5127    3.5243    0.9264 H   0  0  0  0  0  0  0  0  0  0  0  0
   12.4225    2.9758   -1.5685 H   0  0  0  0  0  0  0  0  0  0  0  0
    8.1657    1.2970   -2.1112 H   0  0  0  0  0  0  0  0  0  0  0  0
    5.8175    0.4598   -1.9764 H   0  0  0  0  0  0  0  0  0  0  0  0
    4.5896   -1.0855   -1.3889 H   0  0  0  0  0  0  0  0  0  0  0  0
    2.2589   -1.9656   -1.3436 H   0  0  0  0  0  0  0  0  0  0  0  0
   -1.7155   -4.5499   -1.1224 H   0  0  0  0  0  0  0  0  0  0  0  0
   -4.2149   -6.9735    1.1328 H   0  0  0  0  0  0  0  0  0  0  0  0
   -4.3288   -5.3257    2.9063 H   0  0  0  0  0  0  0  0  0  0  0  0
  1  2  1  0
  2  3  2  0
  3  4  1  0
  4  5  2  0
  5  6  1  0
  6  7  2  0
  7  8  1  0
  8  9  1  0
  9 10  1  0
 10 11  1  0
 11 12  1  0
 12 13  1  0
 13 14  1  0
 12 15  1  0
 15 16  2  0
 15 17  1  0
 17 18  1  0
 18 19  2  0
 19 20  1  0
 20 21  2  0
 21 22  1  0
 22 23  2  0
 23 24  1  0
 24 25  2  0
 25 26  1  0
 26 27  1  0
 27 28  2  0
 28 29  1  0
 29 30  1  0
 25 31  1  0
 31 32  2  0
 21 33  1  0
 33 34  2  0
 17 35  1  0
 35 36  2  0
 35 37  1  0
 37 38  1  0
 38 39  2  0
 39 40  1  0
 40 41  2  0
 40 42  1  0
 42 43  1  0
 43 44  2  0
  7  2  1  0
 14  9  1  0
 34 18  1  0
 44 38  1  0
 37 12  1  0
 32 22  1  0
 30 26  2  0
  1 45  1  0
  1 46  1  0
  1 47  1  0
  3 48  1  0
  4 49  1  0
  5 50  1  0
  8 51  1  0
  8 52  1  0
 10 53  1  0
 10 54  1  0
 11 55  1  0
 11 56  1  0
 13 57  1  0
 13 58  1  0
 14 59  1  0
 14 60  1  0
 19 61  1  0
 20 62  1  0
 23 63  1  0
 24 64  1  0
 27 65  1  0
 28 66  1  0
 29 67  1  0
 31 68  1  0
 32 69  1  0
 33 70  1  0
 34 71  1  0
 39 72  1  0
 42 73  1  0
 43 74  1  0
M  END
$$$$
