@<TRIPOS>MOLECULE
*****
 62 66 0 0 0
SMALL
GASTEIGER

@<TRIPOS>ATOM
      1 C          -0.2007   -0.8370   -0.8534 C.3     1  UNL1       -0.0285
      2 C          -0.9236   -1.3190   -2.0635 C.3     1  UNL1       -0.0457
      3 C          -2.3793   -1.1645   -1.6045 C.3     1  UNL1       -0.0120
      4 C          -2.3711   -0.0883   -0.5321 C.3     1  UNL1        0.1191
      5 C          -2.8352   -0.6008    0.8000 C.3     1  UNL1       -0.0113
      6 C          -4.2582   -1.0565    0.7241 C.3     1  UNL1       -0.0341
      7 C          -5.2027    0.0410    0.2989 C.3     1  UNL1        0.0623
      8 C          -5.9832    0.6162    1.4470 C.3     1  UNL1       -0.0497
      9 C          -6.1935   -0.4346   -0.7617 C.3     1  UNL1       -0.0497
     10 C          -4.4314    1.1419   -0.3353 C.2     1  UNL1        0.3133
     11 O          -4.9233    2.3168   -0.2751 O.2     1  UNL1       -0.2502
     12 O          -3.2221    0.9502   -0.9780 O.3     1  UNL1       -0.4571
     13 C          -0.9757    0.4389   -0.5049 C.3     1  UNL1        0.0109
     14 C          -0.8234    1.5183   -1.5204 C.3     1  UNL1       -0.0557
     15 C          -0.5021    0.8455    0.8647 C.3     1  UNL1       -0.0432
     16 C           0.9681    1.0854    0.8802 C.3     1  UNL1       -0.0453
     17 C           1.7163   -0.1249    0.3884 C.3     1  UNL1       -0.0125
     18 C           3.1657    0.0119    0.4416 C.ar    1  UNL1       -0.0408
     19 C           3.7017    0.4539    1.6340 C.ar    1  UNL1       -0.0573
     20 C           5.0734    0.6035    1.7447 C.ar    1  UNL1       -0.0494
     21 C           5.8852    0.3089    0.6626 C.ar    1  UNL1        0.0368
     22 C           5.3652   -0.1279   -0.5178 C.ar    1  UNL1       -0.0462
     23 C           3.9886   -0.2824   -0.6422 C.ar    1  UNL1       -0.0432
     24 C           3.4263   -0.7584   -1.9300 C.3     1  UNL1       -0.0271
     25 C           2.1039   -1.4635   -1.6806 C.3     1  UNL1       -0.0454
     26 C           1.2146   -0.4360   -1.0277 C.3     1  UNL1       -0.0305
     27 C           7.3373    0.4381    0.6925 C.2     1  UNL1        0.2415
     28 N           8.1700    0.8642    1.7642 N.am    1  UNL1       -0.3253
     29 O           8.1173    0.1762   -0.2838 O.2     1  UNL1       -0.2704
     30 H          -0.3238   -1.5317   -0.0257 H       1  UNL1        0.0310
     31 H          -0.7171   -0.7679   -2.9763 H       1  UNL1        0.0269
     32 H          -0.7511   -2.4153   -2.1935 H       1  UNL1        0.0269
     33 H          -2.7314   -2.1142   -1.1285 H       1  UNL1        0.0304
     34 H          -2.9905   -0.8996   -2.4864 H       1  UNL1        0.0304
     35 H          -2.2053   -1.4356    1.1122 H       1  UNL1        0.0304
     36 H          -2.7898    0.2662    1.4956 H       1  UNL1        0.0304
     37 H          -4.3868   -1.9085    0.0458 H       1  UNL1        0.0277
     38 H          -4.6083   -1.4085    1.7210 H       1  UNL1        0.0277
     39 H          -5.3204    1.3154    1.9892 H       1  UNL1        0.0240
     40 H          -6.3454   -0.1378    2.1533 H       1  UNL1        0.0240
     41 H          -6.8312    1.1860    1.0259 H       1  UNL1        0.0240
     42 H          -6.8034    0.4581   -1.0155 H       1  UNL1        0.0240
     43 H          -5.5690   -0.6681   -1.6666 H       1  UNL1        0.0240
     44 H          -6.8139   -1.2736   -0.4216 H       1  UNL1        0.0240
     45 H          -1.7854    2.0975   -1.6306 H       1  UNL1        0.0236
     46 H          -0.0671    2.2922   -1.2087 H       1  UNL1        0.0236
     47 H          -0.5284    1.2120   -2.5221 H       1  UNL1        0.0236
     48 H          -1.0298    1.7792    1.1572 H       1  UNL1        0.0272
     49 H          -0.7377    0.0133    1.5504 H       1  UNL1        0.0272
     50 H           1.2772    2.0035    0.3518 H       1  UNL1        0.0271
     51 H           1.2536    1.2341    1.9572 H       1  UNL1        0.0271
     52 H           1.3925   -0.9853    1.0129 H       1  UNL1        0.0352
     53 H           3.1405    0.7050    2.5239 H       1  UNL1        0.0621
     54 H           5.5909    0.9488    2.6518 H       1  UNL1        0.0625
     55 H           5.9797   -0.3707   -1.3964 H       1  UNL1        0.0628
     56 H           3.2498    0.0928   -2.6313 H       1  UNL1        0.0313
     57 H           4.1286   -1.4563   -2.4185 H       1  UNL1        0.0313
     58 H           2.2780   -2.2637   -0.9494 H       1  UNL1        0.0271
     59 H           1.6371   -1.7763   -2.6131 H       1  UNL1        0.0271
     60 H           1.2365    0.5464   -1.5663 H       1  UNL1        0.0310
     61 H           8.6649    1.7784    1.9570 H       1  UNL1        0.1453
     62 H           8.4986    0.3671    2.6345 H       1  UNL1        0.1453
@<TRIPOS>BOND
     1     1     2    1
     2     2     3    1
     3     3     4    1
     4     4     5    1
     5     5     6    1
     6     6     7    1
     7     7     8    1
     8     7     9    1
     9     7    10    1
    10    10    11    2
    11    10    12    1
    12     4    13    1
    13    13    14    1
    14    13    15    1
    15    15    16    1
    16    16    17    1
    17    17    18    1
    18    18    19   ar
    19    19    20   ar
    20    20    21   ar
    21    21    22   ar
    22    22    23   ar
    23    23    24    1
    24    24    25    1
    25    25    26    1
    26    21    27    1
    27    27    28   am
    28    27    29    2
    29    13     1    1
    30    26    17    1
    31    26     1    1
    32     4    12    1
    33    23    18   ar
    34     1    30    1
    35     2    31    1
    36     2    32    1
    37     3    33    1
    38     3    34    1
    39     5    35    1
    40     5    36    1
    41     6    37    1
    42     6    38    1
    43     8    39    1
    44     8    40    1
    45     8    41    1
    46     9    42    1
    47     9    43    1
    48     9    44    1
    49    14    45    1
    50    14    46    1
    51    14    47    1
    52    15    48    1
    53    15    49    1
    54    16    50    1
    55    16    51    1
    56    17    52    1
    57    19    53    1
    58    20    54    1
    59    22    55    1
    60    24    56    1
    61    24    57    1
    62    25    58    1
    63    25    59    1
    64    26    60    1
    65    28    61    1
    66    28    62    1
