
     RDKit          3D

 43 46  0  0  0  0  0  0  0  0999 V2000
   -0.1655   -2.1275    0.8135 O   0  0  0  0  0  0  0  0  0  0  0  0
    0.3190   -1.1823    0.1234 C   0  0  0  0  0  0  0  0  0  0  0  0
   -0.4824   -0.0282   -0.0344 N   0  0  0  0  0  0  0  0  0  0  0  0
   -1.7935    0.1304    0.5344 C   0  0  0  0  0  0  0  0  0  0  0  0
   -2.0262    1.5012    1.1555 C   0  0  0  0  0  0  0  0  0  0  0  0
   -2.7478    1.0484   -0.1186 C   0  0  0  0  0  0  0  0  0  0  0  0
   -4.1979    0.8274   -0.0171 C   0  0  0  0  0  0  0  0  0  0  0  0
   -4.7532    0.2497    1.1017 C   0  0  0  0  0  0  0  0  0  0  0  0
   -6.1284    0.0566    1.1621 C   0  0  0  0  0  0  0  0  0  0  0  0
   -6.9632    0.4282    0.1284 C   0  0  0  0  0  0  0  0  0  0  0  0
   -6.4088    1.0127   -1.0053 C   0  0  0  0  0  0  0  0  0  0  0  0
   -5.0410    1.1934   -1.0405 C   0  0  0  0  0  0  0  0  0  0  0  0
    1.6111   -1.2874   -0.4616 N   0  0  0  0  0  0  0  0  0  0  0  0
    2.4552   -2.4348   -0.3279 C   0  0  0  0  0  0  0  0  0  0  0  0
    3.8856   -2.0694   -0.0022 C   0  0  0  0  0  0  0  0  0  0  0  0
    4.3881   -0.9182   -0.8348 C   0  0  0  0  0  0  0  0  0  0  0  0
    4.7982    0.2258    0.0160 C   0  0  0  0  0  0  0  0  0  0  0  0
    5.9923    0.8411    0.0465 N   0  0  0  0  0  0  0  0  0  0  0  0
    5.9492    1.8218    0.9557 C   0  0  0  0  0  0  0  0  0  0  0  0
    4.7570    1.8165    1.4781 O   0  0  0  0  0  0  0  0  0  0  0  0
    4.0548    0.8705    0.9299 N   0  0  0  0  0  0  0  0  0  0  0  0
    3.4126   -0.4582   -1.8880 C   0  0  0  0  0  0  0  0  0  0  0  0
    2.0984   -0.1646   -1.2380 C   0  0  0  0  0  0  0  0  0  0  0  0
   -0.0701    0.7532   -0.6107 H   0  0  0  0  0  0  0  0  0  0  0  0
   -2.1423   -0.7545    1.1289 H   0  0  0  0  0  0  0  0  0  0  0  0
   -1.2378    2.2786    1.0378 H   0  0  0  0  0  0  0  0  0  0  0  0
   -2.6773    1.5743    2.0530 H   0  0  0  0  0  0  0  0  0  0  0  0
   -2.3928    1.5235   -1.0656 H   0  0  0  0  0  0  0  0  0  0  0  0
   -4.1400   -0.0638    1.9499 H   0  0  0  0  0  0  0  0  0  0  0  0
   -6.5941   -0.4035    2.0469 H   0  0  0  0  0  0  0  0  0  0  0  0
   -8.0318    0.2805    0.1704 H   0  0  0  0  0  0  0  0  0  0  0  0
   -7.0388    1.3232   -1.8513 H   0  0  0  0  0  0  0  0  0  0  0  0
   -4.5711    1.6520   -1.9211 H   0  0  0  0  0  0  0  0  0  0  0  0
    2.0830   -3.0623    0.5154 H   0  0  0  0  0  0  0  0  0  0  0  0
    2.4385   -3.0973   -1.2265 H   0  0  0  0  0  0  0  0  0  0  0  0
    4.0371   -1.8732    1.0805 H   0  0  0  0  0  0  0  0  0  0  0  0
    4.5026   -2.9554   -0.2536 H   0  0  0  0  0  0  0  0  0  0  0  0
    5.3114   -1.2176   -1.4192 H   0  0  0  0  0  0  0  0  0  0  0  0
    6.8017    2.4703    1.1674 H   0  0  0  0  0  0  0  0  0  0  0  0
    3.3353   -1.1681   -2.7351 H   0  0  0  0  0  0  0  0  0  0  0  0
    3.8136    0.5324   -2.2558 H   0  0  0  0  0  0  0  0  0  0  0  0
    2.2515    0.7410   -0.5831 H   0  0  0  0  0  0  0  0  0  0  0  0
    1.3073    0.1136   -1.9725 H   0  0  0  0  0  0  0  0  0  0  0  0
  1  2  2  0
  2  3  1  0
  3  4  1  0
  4  5  1  0
  5  6  1  0
  6  7  1  0
  7  8  2  0
  8  9  1  0
  9 10  2  0
 10 11  1  0
 11 12  2  0
  2 13  1  0
 13 14  1  0
 14 15  1  0
 15 16  1  0
 16 17  1  0
 17 18  1  0
 18 19  2  0
 19 20  1  0
 20 21  1  0
 16 22  1  0
 22 23  1  0
  6  4  1  0
 12  7  1  0
 23 13  1  0
 21 17  2  0
  3 24  1  0
  4 25  1  0
  5 26  1  0
  5 27  1  0
  6 28  1  0
  8 29  1  0
  9 30  1  0
 10 31  1  0
 11 32  1  0
 12 33  1  0
 14 34  1  0
 14 35  1  0
 15 36  1  0
 15 37  1  0
 16 38  1  0
 19 39  1  0
 22 40  1  0
 22 41  1  0
 23 42  1  0
 23 43  1  0
M  END
$$$$
