@<TRIPOS>MOLECULE
*****
 43 46 0 0 0
SMALL
GASTEIGER

@<TRIPOS>ATOM
      1 O          -0.1655   -2.1275    0.8135 O.2     1  UNL1       -0.2526
      2 C           0.3190   -1.1823    0.1234 C.2     1  UNL1        0.3024
      3 N          -0.4824   -0.0282   -0.0344 N.am    1  UNL1       -0.2958
      4 C          -1.7935    0.1304    0.5344 C.3     1  UNL1        0.0320
      5 C          -2.0262    1.5012    1.1555 C.3     1  UNL1       -0.0254
      6 C          -2.7478    1.0484   -0.1186 C.3     1  UNL1        0.0043
      7 C          -4.1979    0.8274   -0.0171 C.ar    1  UNL1       -0.0425
      8 C          -4.7532    0.2497    1.1017 C.ar    1  UNL1       -0.0582
      9 C          -6.1284    0.0566    1.1621 C.ar    1  UNL1       -0.0615
     10 C          -6.9632    0.4282    0.1284 C.ar    1  UNL1       -0.0617
     11 C          -6.4088    1.0127   -1.0053 C.ar    1  UNL1       -0.0615
     12 C          -5.0410    1.1934   -1.0405 C.ar    1  UNL1       -0.0582
     13 N           1.6111   -1.2874   -0.4616 N.am    1  UNL1       -0.2856
     14 C           2.4552   -2.4348   -0.3279 C.3     1  UNL1        0.0168
     15 C           3.8856   -2.0694   -0.0022 C.3     1  UNL1       -0.0272
     16 C           4.3881   -0.9182   -0.8348 C.3     1  UNL1        0.0251
     17 C           4.7982    0.2258    0.0160 C.ar    1  UNL1        0.1746
     18 N           5.9923    0.8411    0.0465 N.ar    1  UNL1       -0.1986
     19 C           5.9492    1.8218    0.9557 C.ar    1  UNL1        0.2144
     20 O           4.7570    1.8165    1.4781 O.2     1  UNL1       -0.3414
     21 N           4.0548    0.8705    0.9299 N.ar    1  UNL1       -0.0614
     22 C           3.4126   -0.4582   -1.8880 C.3     1  UNL1       -0.0272
     23 C           2.0984   -0.1646   -1.2380 C.3     1  UNL1        0.0168
     24 H          -0.0701    0.7532   -0.6107 H       1  UNL1        0.1505
     25 H          -2.1423   -0.7545    1.1289 H       1  UNL1        0.0505
     26 H          -1.2378    2.2786    1.0378 H       1  UNL1        0.0290
     27 H          -2.6773    1.5743    2.0530 H       1  UNL1        0.0290
     28 H          -2.3928    1.5235   -1.0656 H       1  UNL1        0.0367
     29 H          -4.1400   -0.0638    1.9499 H       1  UNL1        0.0620
     30 H          -6.5941   -0.4035    2.0469 H       1  UNL1        0.0618
     31 H          -8.0318    0.2805    0.1704 H       1  UNL1        0.0618
     32 H          -7.0388    1.3232   -1.8513 H       1  UNL1        0.0618
     33 H          -4.5711    1.6520   -1.9211 H       1  UNL1        0.0620
     34 H           2.0830   -3.0623    0.5154 H       1  UNL1        0.0465
     35 H           2.4385   -3.0973   -1.2265 H       1  UNL1        0.0465
     36 H           4.0371   -1.8732    1.0805 H       1  UNL1        0.0287
     37 H           4.5026   -2.9554   -0.2536 H       1  UNL1        0.0287
     38 H           5.3114   -1.2176   -1.4192 H       1  UNL1        0.0382
     39 H           6.8017    2.4703    1.1674 H       1  UNL1        0.1283
     40 H           3.3353   -1.1681   -2.7351 H       1  UNL1        0.0287
     41 H           3.8136    0.5324   -2.2558 H       1  UNL1        0.0287
     42 H           2.2515    0.7410   -0.5831 H       1  UNL1        0.0465
     43 H           1.3073    0.1136   -1.9725 H       1  UNL1        0.0465
@<TRIPOS>BOND
     1     1     2    2
     2     2     3   am
     3     3     4    1
     4     4     5    1
     5     5     6    1
     6     6     7    1
     7     7     8   ar
     8     8     9   ar
     9     9    10   ar
    10    10    11   ar
    11    11    12   ar
    12     2    13   am
    13    13    14    1
    14    14    15    1
    15    15    16    1
    16    16    17    1
    17    17    18   ar
    18    18    19   ar
    19    19    20   ar
    20    20    21   ar
    21    16    22    1
    22    22    23    1
    23     6     4    1
    24    12     7   ar
    25    23    13    1
    26    21    17   ar
    27     3    24    1
    28     4    25    1
    29     5    26    1
    30     5    27    1
    31     6    28    1
    32     8    29    1
    33     9    30    1
    34    10    31    1
    35    11    32    1
    36    12    33    1
    37    14    34    1
    38    14    35    1
    39    15    36    1
    40    15    37    1
    41    16    38    1
    42    19    39    1
    43    22    40    1
    44    22    41    1
    45    23    42    1
    46    23    43    1
