@<TRIPOS>MOLECULE
*****
 58 62 0 0 0
SMALL
GASTEIGER

@<TRIPOS>ATOM
      1 C          -0.7935    0.1550    0.7509 C.3     1  UNL1       -0.0351
      2 C          -0.8919    1.0645   -0.5245 C.3     1  UNL1        0.0935
      3 C           0.5344    1.2339   -0.9261 C.ar    1  UNL1        0.0158
      4 C           1.5528    0.4768   -0.4067 C.ar    1  UNL1       -0.0463
      5 C           2.8788    0.6522   -0.8155 C.ar    1  UNL1       -0.0217
      6 C           3.9657   -0.1636   -0.2610 C.2     1  UNL1       -0.0172
      7 C           5.1562    0.2774    0.0449 C.2     1  UNL1        0.1492
      8 F           5.3796    1.6222   -0.1813 F       1  UNL1       -0.2032
      9 C           6.2365   -0.5256    0.5908 C.ar    1  UNL1        0.0990
     10 C           6.1435   -1.8542    0.8367 C.ar    1  UNL1       -0.0322
     11 C           7.1860   -2.6160    1.3679 C.ar    1  UNL1       -0.0408
     12 C           8.3865   -1.9942    1.6642 C.ar    1  UNL1        0.0699
     13 C           9.5117   -2.6676    2.2066 C.1     1  UNL1        0.1007
     14 N          10.4370   -3.2158    2.6712 N.1     1  UNL1       -0.1908
     15 C           8.4499   -0.6302    1.4002 C.ar    1  UNL1        0.0457
     16 N           7.4202    0.0561    0.8901 N.ar    1  UNL1       -0.2514
     17 C           3.1309    1.6198   -1.7653 C.ar    1  UNL1       -0.0518
     18 C           2.1329    2.3843   -2.2947 C.ar    1  UNL1       -0.0255
     19 C           0.8244    2.1884   -1.8704 C.ar    1  UNL1        0.1289
     20 F          -0.0937    3.0016   -2.4496 F       1  UNL1       -0.2051
     21 N          -1.3707    2.3006   -0.0102 N.2     1  UNL1       -0.2521
     22 C          -2.5414    2.7726    0.0566 C.2     1  UNL1        0.1485
     23 N          -2.8209    4.0605    0.6221 N.pl3   1  UNL1       -0.3380
     24 S          -3.8834    1.7921   -0.5818 S.3     1  UNL1       -0.0746
     25 C          -3.1456    0.4334   -1.4988 C.3     1  UNL1        0.1054
     26 C          -3.9170   -0.8223   -1.5134 C.2     1  UNL1        0.2325
     27 O          -4.0306   -1.5303   -2.5589 O.2     1  UNL1       -0.2741
     28 N          -4.5564   -1.2706   -0.3390 N.am    1  UNL1       -0.2978
     29 C          -5.3794   -2.5128   -0.2594 C.3     1  UNL1        0.0172
     30 C          -6.6491   -1.8709    0.3223 C.3     1  UNL1       -0.0095
     31 C          -6.1349   -0.8076    1.2896 C.3     1  UNL1        0.0723
     32 O          -6.7418    0.4114    1.0593 O.3     1  UNL1       -0.3902
     33 C          -4.6370   -0.7791    1.0043 C.3     1  UNL1        0.0408
     34 C          -2.3755    0.8635   -2.7003 C.3     1  UNL1       -0.0220
     35 C          -1.6953    0.3401   -1.5242 C.3     1  UNL1        0.0134
     36 H          -0.5589   -0.8682    0.4253 H       1  UNL1        0.0256
     37 H          -0.0647    0.6221    1.4116 H       1  UNL1        0.0256
     38 H          -1.8189    0.1704    1.1801 H       1  UNL1        0.0256
     39 H           1.3839   -0.2896    0.3362 H       1  UNL1        0.0628
     40 H           3.7801   -1.2389   -0.0822 H       1  UNL1        0.0653
     41 H           5.2441   -2.4067    0.6291 H       1  UNL1        0.0640
     42 H           7.1140   -3.6719    1.5634 H       1  UNL1        0.0631
     43 H           9.4121   -0.1533    1.6428 H       1  UNL1        0.0843
     44 H           4.1611    1.7763   -2.1054 H       1  UNL1        0.0624
     45 H           2.3713    3.1334   -3.0365 H       1  UNL1        0.0646
     46 H          -2.3817    4.2761    1.5387 H       1  UNL1        0.1442
     47 H          -3.4169    4.7588    0.1754 H       1  UNL1        0.1442
     48 H          -4.9760   -3.1693    0.5280 H       1  UNL1        0.0465
     49 H          -5.5257   -2.9663   -1.2352 H       1  UNL1        0.0465
     50 H          -7.2480   -2.6388    0.8677 H       1  UNL1        0.0306
     51 H          -7.2539   -1.3622   -0.4307 H       1  UNL1        0.0306
     52 H          -6.3724   -1.1449    2.2992 H       1  UNL1        0.0609
     53 H          -6.8324    0.6452    0.1236 H       1  UNL1        0.2098
     54 H          -4.1865   -1.4877    1.7452 H       1  UNL1        0.0490
     55 H          -4.2335    0.1912    1.2114 H       1  UNL1        0.0490
     56 H          -2.5407    0.1859   -3.5872 H       1  UNL1        0.0287
     57 H          -2.4495    1.9145   -3.0017 H       1  UNL1        0.0287
     58 H          -1.2761   -0.7218   -1.6906 H       1  UNL1        0.0346
@<TRIPOS>BOND
     1     2     1    1
     2     2     3    1
     3     3     4   ar
     4     4     5   ar
     5     5     6    1
     6     6     7    2
     7     7     8    1
     8     7     9    1
     9     9    10   ar
    10    10    11   ar
    11    11    12   ar
    12    12    13    1
    13    13    14    3
    14    12    15   ar
    15    15    16   ar
    16     5    17   ar
    17    17    18   ar
    18    18    19   ar
    19    19    20    1
    20     2    21    1
    21    21    22    2
    22    22    23    1
    23    22    24    1
    24    24    25    1
    25    25    26    1
    26    26    27    2
    27    26    28   am
    28    28    29    1
    29    29    30    1
    30    30    31    1
    31    31    32    1
    32    31    33    1
    33    25    34    1
    34    34    35    1
    35    35     2    1
    36    19     3   ar
    37    35    25    1
    38    16     9   ar
    39    33    28    1
    40     1    36    1
    41     1    37    1
    42     1    38    1
    43     4    39    1
    44     6    40    1
    45    10    41    1
    46    11    42    1
    47    15    43    1
    48    17    44    1
    49    18    45    1
    50    23    46    1
    51    23    47    1
    52    29    48    1
    53    29    49    1
    54    30    50    1
    55    30    51    1
    56    31    52    1
    57    32    53    1
    58    33    54    1
    59    33    55    1
    60    34    56    1
    61    34    57    1
    62    35    58    1
