
     RDKit          3D

 58 62  0  0  0  0  0  0  0  0999 V2000
   -0.7935    0.1550    0.7509 C   0  0  0  0  0  0  0  0  0  0  0  0
   -0.8919    1.0645   -0.5245 C   0  0  2  0  0  0  0  0  0  0  0  0
    0.5344    1.2339   -0.9261 C   0  0  0  0  0  0  0  0  0  0  0  0
    1.5528    0.4768   -0.4067 C   0  0  0  0  0  0  0  0  0  0  0  0
    2.8788    0.6522   -0.8155 C   0  0  0  0  0  0  0  0  0  0  0  0
    3.9657   -0.1636   -0.2610 C   0  0  0  0  0  0  0  0  0  0  0  0
    5.1562    0.2774    0.0449 C   0  0  0  0  0  0  0  0  0  0  0  0
    5.3796    1.6222   -0.1813 F   0  0  0  0  0  0  0  0  0  0  0  0
    6.2365   -0.5256    0.5908 C   0  0  0  0  0  0  0  0  0  0  0  0
    6.1435   -1.8542    0.8367 C   0  0  0  0  0  0  0  0  0  0  0  0
    7.1860   -2.6160    1.3679 C   0  0  0  0  0  0  0  0  0  0  0  0
    8.3865   -1.9942    1.6642 C   0  0  0  0  0  0  0  0  0  0  0  0
    9.5117   -2.6676    2.2066 C   0  0  0  0  0  0  0  0  0  0  0  0
   10.4370   -3.2158    2.6712 N   0  0  0  0  0  0  0  0  0  0  0  0
    8.4499   -0.6302    1.4002 C   0  0  0  0  0  0  0  0  0  0  0  0
    7.4202    0.0561    0.8901 N   0  0  0  0  0  0  0  0  0  0  0  0
    3.1309    1.6198   -1.7653 C   0  0  0  0  0  0  0  0  0  0  0  0
    2.1329    2.3843   -2.2947 C   0  0  0  0  0  0  0  0  0  0  0  0
    0.8244    2.1884   -1.8704 C   0  0  0  0  0  0  0  0  0  0  0  0
   -0.0937    3.0016   -2.4496 F   0  0  0  0  0  0  0  0  0  0  0  0
   -1.3707    2.3006   -0.0102 N   0  0  0  0  0  0  0  0  0  0  0  0
   -2.5414    2.7726    0.0566 C   0  0  0  0  0  0  0  0  0  0  0  0
   -2.8209    4.0605    0.6221 N   0  0  0  0  0  0  0  0  0  0  0  0
   -3.8834    1.7921   -0.5818 S   0  0  0  0  0  0  0  0  0  0  0  0
   -3.1456    0.4334   -1.4988 C   0  0  1  0  0  0  0  0  0  0  0  0
   -3.9170   -0.8223   -1.5134 C   0  0  0  0  0  0  0  0  0  0  0  0
   -4.0306   -1.5303   -2.5589 O   0  0  0  0  0  0  0  0  0  0  0  0
   -4.5564   -1.2706   -0.3390 N   0  0  0  0  0  0  0  0  0  0  0  0
   -5.3794   -2.5128   -0.2594 C   0  0  0  0  0  0  0  0  0  0  0  0
   -6.6491   -1.8709    0.3223 C   0  0  0  0  0  0  0  0  0  0  0  0
   -6.1349   -0.8076    1.2896 C   0  0  2  0  0  0  0  0  0  0  0  0
   -6.7418    0.4114    1.0593 O   0  0  0  0  0  0  0  0  0  0  0  0
   -4.6370   -0.7791    1.0043 C   0  0  0  0  0  0  0  0  0  0  0  0
   -2.3755    0.8635   -2.7003 C   0  0  0  0  0  0  0  0  0  0  0  0
   -1.6953    0.3401   -1.5242 C   0  0  1  0  0  0  0  0  0  0  0  0
   -0.5589   -0.8682    0.4253 H   0  0  0  0  0  0  0  0  0  0  0  0
   -0.0647    0.6221    1.4116 H   0  0  0  0  0  0  0  0  0  0  0  0
   -1.8189    0.1704    1.1801 H   0  0  0  0  0  0  0  0  0  0  0  0
    1.3839   -0.2896    0.3362 H   0  0  0  0  0  0  0  0  0  0  0  0
    3.7801   -1.2389   -0.0822 H   0  0  0  0  0  0  0  0  0  0  0  0
    5.2441   -2.4067    0.6291 H   0  0  0  0  0  0  0  0  0  0  0  0
    7.1140   -3.6719    1.5634 H   0  0  0  0  0  0  0  0  0  0  0  0
    9.4121   -0.1533    1.6428 H   0  0  0  0  0  0  0  0  0  0  0  0
    4.1611    1.7763   -2.1054 H   0  0  0  0  0  0  0  0  0  0  0  0
    2.3713    3.1334   -3.0365 H   0  0  0  0  0  0  0  0  0  0  0  0
   -2.3817    4.2761    1.5387 H   0  0  0  0  0  0  0  0  0  0  0  0
   -3.4169    4.7588    0.1754 H   0  0  0  0  0  0  0  0  0  0  0  0
   -4.9760   -3.1693    0.5280 H   0  0  0  0  0  0  0  0  0  0  0  0
   -5.5257   -2.9663   -1.2352 H   0  0  0  0  0  0  0  0  0  0  0  0
   -7.2480   -2.6388    0.8677 H   0  0  0  0  0  0  0  0  0  0  0  0
   -7.2539   -1.3622   -0.4307 H   0  0  0  0  0  0  0  0  0  0  0  0
   -6.3724   -1.1449    2.2992 H   0  0  0  0  0  0  0  0  0  0  0  0
   -6.8324    0.6452    0.1236 H   0  0  0  0  0  0  0  0  0  0  0  0
   -4.1865   -1.4877    1.7452 H   0  0  0  0  0  0  0  0  0  0  0  0
   -4.2335    0.1912    1.2114 H   0  0  0  0  0  0  0  0  0  0  0  0
   -2.5407    0.1859   -3.5872 H   0  0  0  0  0  0  0  0  0  0  0  0
   -2.4495    1.9145   -3.0017 H   0  0  0  0  0  0  0  0  0  0  0  0
   -1.2761   -0.7218   -1.6906 H   0  0  0  0  0  0  0  0  0  0  0  0
  2  1  1  1
  2  3  1  0
  3  4  2  0
  4  5  1  0
  5  6  1  0
  6  7  2  0
  7  8  1  0
  7  9  1  0
  9 10  2  0
 10 11  1  0
 11 12  2  0
 12 13  1  0
 13 14  3  0
 12 15  1  0
 15 16  2  0
  5 17  2  0
 17 18  1  0
 18 19  2  0
 19 20  1  0
  2 21  1  0
 21 22  2  0
 22 23  1  0
 22 24  1  0
 24 25  1  0
 25 26  1  6
 26 27  2  0
 26 28  1  0
 28 29  1  0
 29 30  1  0
 30 31  1  0
 31 32  1  0
 31 33  1  0
 25 34  1  0
 34 35  1  0
 35  2  1  0
 19  3  1  0
 35 25  1  0
 16  9  1  0
 33 28  1  0
  1 36  1  0
  1 37  1  0
  1 38  1  0
  4 39  1  0
  6 40  1  0
 10 41  1  0
 11 42  1  0
 15 43  1  0
 17 44  1  0
 18 45  1  0
 23 46  1  0
 23 47  1  0
 29 48  1  0
 29 49  1  0
 30 50  1  0
 30 51  1  0
 31 52  1  1
 32 53  1  0
 33 54  1  0
 33 55  1  0
 34 56  1  0
 34 57  1  0
 35 58  1  6
M  END
$$$$
