
     RDKit          3D

 42 45  0  0  0  0  0  0  0  0999 V2000
    5.2564    0.7193   -0.2967 C   0  0  0  0  0  0  0  0  0  0  0  0
    3.9828    0.0520   -0.3260 N   0  0  0  0  0  0  0  0  0  0  0  0
    3.1642    0.4332   -1.4397 C   0  0  0  0  0  0  0  0  0  0  0  0
    1.9041   -0.4448   -1.3791 C   0  0  0  0  0  0  0  0  0  0  0  0
    1.1761    0.0266   -0.2276 N   0  0  0  0  0  0  0  0  0  0  0  0
   -0.2361    0.0231   -0.1695 C   0  0  0  0  0  0  0  0  0  0  0  0
   -0.8643    1.1102   -0.4951 N   0  0  0  0  0  0  0  0  0  0  0  0
   -2.2377    1.4622   -0.5537 C   0  0  0  0  0  0  0  0  0  0  0  0
   -2.4573    2.8100   -0.7356 C   0  0  0  0  0  0  0  0  0  0  0  0
   -3.7376    3.3296   -0.8176 C   0  0  0  0  0  0  0  0  0  0  0  0
   -3.9683    5.0636   -1.0512 Cl  0  0  0  0  0  0  0  0  0  0  0  0
   -4.8057    2.4670   -0.7132 C   0  0  0  0  0  0  0  0  0  0  0  0
   -4.6227    1.1126   -0.5307 C   0  0  0  0  0  0  0  0  0  0  0  0
   -3.3210    0.6152   -0.4514 C   0  0  0  0  0  0  0  0  0  0  0  0
   -3.3177   -0.7942   -0.2622 N   0  0  0  0  0  0  0  0  0  0  0  0
   -2.2085   -1.5518    0.2005 C   0  0  0  0  0  0  0  0  0  0  0  0
   -2.5906   -2.8027    0.6592 C   0  0  0  0  0  0  0  0  0  0  0  0
   -1.6629   -3.6964    1.1552 C   0  0  0  0  0  0  0  0  0  0  0  0
   -0.3347   -3.3357    1.1937 C   0  0  0  0  0  0  0  0  0  0  0  0
    0.0894   -2.1134    0.7526 C   0  0  0  0  0  0  0  0  0  0  0  0
   -0.8455   -1.2258    0.2580 C   0  0  0  0  0  0  0  0  0  0  0  0
    1.9224    0.5270    0.9003 C   0  0  0  0  0  0  0  0  0  0  0  0
    3.3410    0.0581    0.9475 C   0  0  0  0  0  0  0  0  0  0  0  0
    5.4737    0.9728    0.7619 H   0  0  0  0  0  0  0  0  0  0  0  0
    6.0906    0.0584   -0.6755 H   0  0  0  0  0  0  0  0  0  0  0  0
    5.1954    1.6566   -0.8899 H   0  0  0  0  0  0  0  0  0  0  0  0
    3.6951    0.1216   -2.3675 H   0  0  0  0  0  0  0  0  0  0  0  0
    2.8955    1.5053   -1.4403 H   0  0  0  0  0  0  0  0  0  0  0  0
    1.3213   -0.3493   -2.3183 H   0  0  0  0  0  0  0  0  0  0  0  0
    2.2866   -1.4809   -1.2882 H   0  0  0  0  0  0  0  0  0  0  0  0
   -1.6156    3.5124   -0.8209 H   0  0  0  0  0  0  0  0  0  0  0  0
   -5.8155    2.8428   -0.7734 H   0  0  0  0  0  0  0  0  0  0  0  0
   -5.4586    0.4283   -0.4480 H   0  0  0  0  0  0  0  0  0  0  0  0
   -4.1856   -1.3267   -0.4729 H   0  0  0  0  0  0  0  0  0  0  0  0
   -3.6455   -3.0276    0.6035 H   0  0  0  0  0  0  0  0  0  0  0  0
   -2.0103   -4.6748    1.5072 H   0  0  0  0  0  0  0  0  0  0  0  0
    0.3618   -4.0395    1.5796 H   0  0  0  0  0  0  0  0  0  0  0  0
    1.1444   -1.8099    0.7773 H   0  0  0  0  0  0  0  0  0  0  0  0
    1.4267    0.3007    1.8659 H   0  0  0  0  0  0  0  0  0  0  0  0
    1.9512    1.6464    0.7710 H   0  0  0  0  0  0  0  0  0  0  0  0
    3.3752   -0.9332    1.4568 H   0  0  0  0  0  0  0  0  0  0  0  0
    3.8874    0.7516    1.6479 H   0  0  0  0  0  0  0  0  0  0  0  0
  1  2  1  0
  2  3  1  0
  3  4  1  0
  4  5  1  0
  5  6  1  0
  6  7  2  0
  7  8  1  0
  8  9  2  0
  9 10  1  0
 10 11  1  0
 10 12  2  0
 12 13  1  0
 13 14  2  0
 14 15  1  0
 15 16  1  0
 16 17  2  0
 17 18  1  0
 18 19  2  0
 19 20  1  0
 20 21  2  0
  5 22  1  0
 22 23  1  0
 23  2  1  0
 21  6  1  0
 14  8  1  0
 21 16  1  0
  1 24  1  0
  1 25  1  0
  1 26  1  0
  3 27  1  0
  3 28  1  0
  4 29  1  0
  4 30  1  0
  9 31  1  0
 12 32  1  0
 13 33  1  0
 15 34  1  0
 17 35  1  0
 18 36  1  0
 19 37  1  0
 20 38  1  0
 22 39  1  0
 22 40  1  0
 23 41  1  0
 23 42  1  0
M  END
$$$$
