@<TRIPOS>MOLECULE
*****
 42 45 0 0 0
SMALL
GASTEIGER

@<TRIPOS>ATOM
      1 C           5.2564    0.7193   -0.2967 C.3     1  UNL1       -0.0125
      2 N           3.9828    0.0520   -0.3260 N.3     1  UNL1       -0.2982
      3 C           3.1642    0.4332   -1.4397 C.3     1  UNL1        0.0348
      4 C           1.9041   -0.4448   -1.3791 C.3     1  UNL1        0.0933
      5 N           1.1761    0.0266   -0.2276 N.pl3   1  UNL1       -0.2176
      6 C          -0.2361    0.0231   -0.1695 C.2     1  UNL1        0.3231
      7 N          -0.8643    1.1102   -0.4951 N.2     1  UNL1       -0.0395
      8 C          -2.2377    1.4622   -0.5537 C.ar    1  UNL1        0.1988
      9 C          -2.4573    2.8100   -0.7356 C.ar    1  UNL1        0.0093
     10 C          -3.7376    3.3296   -0.8176 C.ar    1  UNL1        0.0452
     11 CL         -3.9683    5.0636   -1.0512 Cl      1  UNL1       -0.0834
     12 C          -4.8057    2.4670   -0.7132 C.ar    1  UNL1       -0.0414
     13 C          -4.6227    1.1126   -0.5307 C.ar    1  UNL1       -0.0349
     14 C          -3.3210    0.6152   -0.4514 C.ar    1  UNL1        0.0829
     15 N          -3.3177   -0.7942   -0.2622 N.pl3   1  UNL1       -0.3104
     16 C          -2.2085   -1.5518    0.2005 C.ar    1  UNL1        0.0464
     17 C          -2.5906   -2.8027    0.6592 C.ar    1  UNL1       -0.0397
     18 C          -1.6629   -3.6964    1.1552 C.ar    1  UNL1       -0.0600
     19 C          -0.3347   -3.3357    1.1937 C.ar    1  UNL1       -0.0608
     20 C           0.0894   -2.1134    0.7526 C.ar    1  UNL1       -0.0451
     21 C          -0.8455   -1.2258    0.2580 C.ar    1  UNL1        0.0867
     22 C           1.9224    0.5270    0.9003 C.3     1  UNL1        0.0933
     23 C           3.3410    0.0581    0.9475 C.3     1  UNL1        0.0348
     24 H           5.4737    0.9728    0.7619 H       1  UNL1        0.0391
     25 H           6.0906    0.0584   -0.6755 H       1  UNL1        0.0391
     26 H           5.1954    1.6566   -0.8899 H       1  UNL1        0.0391
     27 H           3.6951    0.1216   -2.3675 H       1  UNL1        0.0463
     28 H           2.8955    1.5053   -1.4403 H       1  UNL1        0.0463
     29 H           1.3213   -0.3493   -2.3183 H       1  UNL1        0.0739
     30 H           2.2866   -1.4809   -1.2882 H       1  UNL1        0.0739
     31 H          -1.6156    3.5124   -0.8209 H       1  UNL1        0.0676
     32 H          -5.8155    2.8428   -0.7734 H       1  UNL1        0.0633
     33 H          -5.4586    0.4283   -0.4480 H       1  UNL1        0.0638
     34 H          -4.1856   -1.3267   -0.4729 H       1  UNL1        0.1523
     35 H          -3.6455   -3.0276    0.6035 H       1  UNL1        0.0636
     36 H          -2.0103   -4.6748    1.5072 H       1  UNL1        0.0618
     37 H           0.3618   -4.0395    1.5796 H       1  UNL1        0.0618
     38 H           1.1444   -1.8099    0.7773 H       1  UNL1        0.0627
     39 H           1.4267    0.3007    1.8659 H       1  UNL1        0.0739
     40 H           1.9512    1.6464    0.7710 H       1  UNL1        0.0739
     41 H           3.3752   -0.9332    1.4568 H       1  UNL1        0.0463
     42 H           3.8874    0.7516    1.6479 H       1  UNL1        0.0463
@<TRIPOS>BOND
     1     1     2    1
     2     2     3    1
     3     3     4    1
     4     4     5    1
     5     5     6    1
     6     6     7    2
     7     7     8    1
     8     8     9   ar
     9     9    10   ar
    10    10    11    1
    11    10    12   ar
    12    12    13   ar
    13    13    14   ar
    14    14    15    1
    15    15    16    1
    16    16    17   ar
    17    17    18   ar
    18    18    19   ar
    19    19    20   ar
    20    20    21   ar
    21     5    22    1
    22    22    23    1
    23    23     2    1
    24    21     6    1
    25    14     8   ar
    26    21    16   ar
    27     1    24    1
    28     1    25    1
    29     1    26    1
    30     3    27    1
    31     3    28    1
    32     4    29    1
    33     4    30    1
    34     9    31    1
    35    12    32    1
    36    13    33    1
    37    15    34    1
    38    17    35    1
    39    18    36    1
    40    19    37    1
    41    20    38    1
    42    22    39    1
    43    22    40    1
    44    23    41    1
    45    23    42    1
