@<TRIPOS>MOLECULE
*****
 21 21 0 0 0
SMALL
GASTEIGER

@<TRIPOS>ATOM
      1 O          -3.5526   -0.2642   -1.8426 O.2     1  UNL1       -0.2687
      2 C          -2.8517   -0.1729   -0.7934 C.2     1  UNL1        0.2593
      3 C          -1.4034   -0.1591   -0.8997 C.2     1  UNL1        0.0027
      4 C          -0.6021   -0.0680    0.1269 C.2     1  UNL1       -0.0496
      5 C           0.8555   -0.0531    0.0336 C.ar    1  UNL1       -0.0249
      6 C           1.5537    0.0499    1.2362 C.ar    1  UNL1       -0.0546
      7 C           2.9219    0.0709    1.2381 C.ar    1  UNL1       -0.0612
      8 C           3.6526   -0.0077    0.0715 C.ar    1  UNL1       -0.0617
      9 C           2.9359   -0.1088   -1.1022 C.ar    1  UNL1       -0.0612
     10 C           1.5443   -0.1329   -1.1416 C.ar    1  UNL1       -0.0546
     11 N          -3.5611   -0.0901    0.4237 N.am    1  UNL1       -0.1940
     12 O          -4.9199   -0.1083    0.4558 O.3     1  UNL1       -0.2949
     13 H          -0.9502   -0.2288   -1.8967 H       1  UNL1        0.0670
     14 H          -1.0750    0.0011    1.1199 H       1  UNL1        0.0625
     15 H           1.0253    0.1160    2.1998 H       1  UNL1        0.0623
     16 H           3.4905    0.1505    2.1624 H       1  UNL1        0.0618
     17 H           4.7493    0.0088    0.0697 H       1  UNL1        0.0618
     18 H           3.4726   -0.1730   -2.0439 H       1  UNL1        0.0618
     19 H           1.0175   -0.2136   -2.0880 H       1  UNL1        0.0623
     20 H          -3.0610   -0.0126    1.3330 H       1  UNL1        0.1825
     21 H          -5.2422   -0.4523    1.3376 H       1  UNL1        0.2414
@<TRIPOS>BOND
     1     1     2    2
     2     2     3    1
     3     3     4    2
     4     4     5    1
     5     5     6   ar
     6     6     7   ar
     7     7     8   ar
     8     8     9   ar
     9     9    10   ar
    10     2    11   am
    11    11    12    1
    12    10     5   ar
    13     3    13    1
    14     4    14    1
    15     6    15    1
    16     7    16    1
    17     8    17    1
    18     9    18    1
    19    10    19    1
    20    11    20    1
    21    12    21    1
