@<TRIPOS>MOLECULE
*****
 77 80 0 0 0
SMALL
GASTEIGER

@<TRIPOS>ATOM
      1 C           5.1305    5.3470    1.5750 C.3     1  UNL1       -0.0496
      2 C           5.0820    4.4400    2.7819 C.3     1  UNL1        0.0063
      3 N           3.9330    3.5639    2.7526 N.pl3   1  UNL1       -0.3440
      4 C           3.7461    2.5781    1.7738 C.ar    1  UNL1        0.0296
      5 C           2.6054    1.7641    1.7492 C.ar    1  UNL1       -0.0286
      6 C           2.4141    0.7977    0.8029 C.ar    1  UNL1        0.0402
      7 C           1.1743   -0.0210    0.8654 C.2     1  UNL1        0.2445
      8 O           0.4252    0.1042    1.8833 O.2     1  UNL1       -0.2702
      9 N           0.8146   -0.9042   -0.1406 N.am    1  UNL1       -0.3057
     10 C          -0.3702   -1.7520   -0.2410 C.3     1  UNL1        0.0545
     11 C           0.0040   -3.1721   -0.4245 C.3     1  UNL1       -0.0067
     12 C          -1.0251   -4.1829   -0.5492 C.ar    1  UNL1       -0.0455
     13 C          -1.5476   -4.4441   -1.7990 C.ar    1  UNL1       -0.0585
     14 C          -2.4890   -5.4239   -1.9534 C.ar    1  UNL1       -0.0615
     15 C          -2.9359   -6.1634   -0.8965 C.ar    1  UNL1       -0.0617
     16 C          -2.4134   -5.9066    0.3718 C.ar    1  UNL1       -0.0615
     17 C          -1.4737   -4.9288    0.5274 C.ar    1  UNL1       -0.0585
     18 C          -1.4044   -1.5261    0.7887 C.3     1  UNL1        0.0862
     19 O          -2.4337   -2.4880    0.6211 O.3     1  UNL1       -0.3887
     20 C          -2.1206   -0.1805    0.6145 C.3     1  UNL1        0.0240
     21 N          -3.0901    0.1139    1.5787 N.3     1  UNL1       -0.3095
     22 C          -4.3347   -0.5390    1.6120 C.3     1  UNL1        0.0213
     23 C          -5.2421   -0.0189    0.5259 C.ar    1  UNL1       -0.0334
     24 C          -5.3521   -0.5968   -0.7023 C.ar    1  UNL1       -0.0539
     25 C          -6.1999   -0.0717   -1.6917 C.ar    1  UNL1       -0.0197
     26 C          -6.9455    1.0519   -1.4341 C.ar    1  UNL1        0.1201
     27 O          -7.8006    1.6116   -2.3814 O.3     1  UNL1       -0.4951
     28 C          -8.5442    2.7622   -2.0779 C.3     1  UNL1        0.0788
     29 C          -6.8305    1.6269   -0.1986 C.ar    1  UNL1       -0.0197
     30 C          -6.0052    1.1234    0.7772 C.ar    1  UNL1       -0.0539
     31 C           3.3815    0.6279   -0.1517 C.ar    1  UNL1       -0.0280
     32 C           4.5364    1.3999   -0.1850 C.ar    1  UNL1        0.0387
     33 N           5.5267    1.1932   -1.1783 N.am    1  UNL1       -0.2713
     34 C           5.4983    0.1649   -2.2112 C.3     1  UNL1        0.0202
     35 C           6.9592   -0.1613   -2.4845 C.3     1  UNL1       -0.0285
     36 C           7.7487    1.0058   -1.9888 C.3     1  UNL1        0.0259
     37 C           6.7348    1.9061   -1.3813 C.2     1  UNL1        0.2198
     38 O           6.9229    3.1081   -1.0954 O.2     1  UNL1       -0.2753
     39 C           4.6855    2.3618    0.7891 C.ar    1  UNL1       -0.0194
     40 H           6.0968    5.2534    1.0870 H       1  UNL1        0.0245
     41 H           4.8982    6.4016    1.8789 H       1  UNL1        0.0245
     42 H           4.3423    4.9755    0.8594 H       1  UNL1        0.0245
     43 H           6.0402    3.8605    2.7979 H       1  UNL1        0.0458
     44 H           5.0828    5.0511    3.7258 H       1  UNL1        0.0458
     45 H           3.2155    3.6911    3.5124 H       1  UNL1        0.1461
     46 H           1.8508    1.9148    2.5147 H       1  UNL1        0.0643
     47 H           1.4961   -0.9824   -0.9692 H       1  UNL1        0.1494
     48 H          -0.8809   -1.3907   -1.2113 H       1  UNL1        0.0527
     49 H           0.7144   -3.4396    0.4353 H       1  UNL1        0.0332
     50 H           0.6702   -3.2763   -1.3474 H       1  UNL1        0.0332
     51 H          -1.1951   -3.8556   -2.6478 H       1  UNL1        0.0620
     52 H          -2.8972   -5.6254   -2.9399 H       1  UNL1        0.0618
     53 H          -3.6657   -6.9370   -0.9603 H       1  UNL1        0.0618
     54 H          -2.7570   -6.4856    1.2235 H       1  UNL1        0.0618
     55 H          -1.0407   -4.6971    1.4963 H       1  UNL1        0.0620
     56 H          -1.0688   -1.5987    1.8256 H       1  UNL1        0.0624
     57 H          -2.7777   -2.4050   -0.2887 H       1  UNL1        0.2099
     58 H          -1.4504    0.6167    0.3819 H       1  UNL1        0.0450
     59 H          -2.7355   -0.3606   -0.3644 H       1  UNL1        0.0450
     60 H          -2.7126    0.3457    2.5321 H       1  UNL1        0.1223
     61 H          -4.9043   -0.3291    2.5551 H       1  UNL1        0.0473
     62 H          -4.3518   -1.6289    1.5010 H       1  UNL1        0.0473
     63 H          -4.7846   -1.4849   -0.9350 H       1  UNL1        0.0622
     64 H          -6.2707   -0.5430   -2.6515 H       1  UNL1        0.0654
     65 H          -9.2216    2.5668   -1.2063 H       1  UNL1        0.0660
     66 H          -9.1554    3.0228   -2.9643 H       1  UNL1        0.0660
     67 H          -7.8420    3.5669   -1.8065 H       1  UNL1        0.0660
     68 H          -7.4382    2.5277   -0.0133 H       1  UNL1        0.0654
     69 H          -5.9217    1.5859    1.7507 H       1  UNL1        0.0622
     70 H           3.2691   -0.1248   -0.9165 H       1  UNL1        0.0644
     71 H           4.9660   -0.7148   -1.8273 H       1  UNL1        0.0469
     72 H           5.0159    0.5744   -3.1131 H       1  UNL1        0.0469
     73 H           7.1479   -0.3404   -3.5616 H       1  UNL1        0.0285
     74 H           7.1914   -1.0855   -1.8814 H       1  UNL1        0.0285
     75 H           8.2368    1.5462   -2.8213 H       1  UNL1        0.0359
     76 H           8.4926    0.6799   -1.2141 H       1  UNL1        0.0359
     77 H           5.5802    2.9532    0.7712 H       1  UNL1        0.0655
@<TRIPOS>BOND
     1     1     2    1
     2     2     3    1
     3     3     4    1
     4     4     5   ar
     5     5     6   ar
     6     6     7    1
     7     7     8    2
     8     7     9   am
     9     9    10    1
    10    10    11    1
    11    11    12    1
    12    12    13   ar
    13    13    14   ar
    14    14    15   ar
    15    15    16   ar
    16    16    17   ar
    17    10    18    1
    18    18    19    1
    19    18    20    1
    20    20    21    1
    21    21    22    1
    22    22    23    1
    23    23    24   ar
    24    24    25   ar
    25    25    26   ar
    26    26    27    1
    27    27    28    1
    28    26    29   ar
    29    29    30   ar
    30     6    31   ar
    31    31    32   ar
    32    32    33    1
    33    33    34    1
    34    34    35    1
    35    35    36    1
    36    36    37    1
    37    37    38    2
    38    32    39   ar
    39    39     4   ar
    40    17    12   ar
    41    30    23   ar
    42    37    33   am
    43     1    40    1
    44     1    41    1
    45     1    42    1
    46     2    43    1
    47     2    44    1
    48     3    45    1
    49     5    46    1
    50     9    47    1
    51    10    48    1
    52    11    49    1
    53    11    50    1
    54    13    51    1
    55    14    52    1
    56    15    53    1
    57    16    54    1
    58    17    55    1
    59    18    56    1
    60    19    57    1
    61    20    58    1
    62    20    59    1
    63    21    60    1
    64    22    61    1
    65    22    62    1
    66    24    63    1
    67    25    64    1
    68    28    65    1
    69    28    66    1
    70    28    67    1
    71    29    68    1
    72    30    69    1
    73    31    70    1
    74    34    71    1
    75    34    72    1
    76    35    73    1
    77    35    74    1
    78    36    75    1
    79    36    76    1
    80    39    77    1
