@<TRIPOS>MOLECULE
*****
 107 111 0 0 0
SMALL
GASTEIGER

@<TRIPOS>ATOM
      1 C          -5.9193   -5.3892   -4.7748 C.3     1  UNL1        0.0364
      2 O          -5.6297   -5.9298   -3.5908 O.3     1  UNL1       -0.3830
      3 C          -4.5806   -5.6197   -2.8268 C.3     1  UNL1        0.0476
      4 C          -4.3939   -4.2553   -2.3019 C.3     1  UNL1       -0.0255
      5 C          -4.1820   -3.1362   -3.2699 C.3     1  UNL1       -0.0255
      6 C          -4.0173   -1.8966   -2.4128 C.ar    1  UNL1       -0.0435
      7 C          -2.7753   -1.4852   -1.9795 C.ar    1  UNL1       -0.0537
      8 C          -2.5679   -0.3634   -1.1957 C.ar    1  UNL1       -0.0264
      9 C          -1.2310    0.0947   -0.7761 C.3     1  UNL1        0.0401
     10 N          -0.6524   -0.6358    0.3114 N.am    1  UNL1       -0.2938
     11 C           0.2793   -1.6757   -0.0715 C.2     1  UNL1        0.2210
     12 O           0.5427   -1.8646   -1.2924 O.2     1  UNL1       -0.2752
     13 C           0.9707   -2.5597    0.8931 C.3     1  UNL1        0.0550
     14 C          -0.0048   -3.4639    1.5360 C.3     1  UNL1        0.0076
     15 N           0.2305   -4.8717    1.2273 N.3     1  UNL1       -0.3152
     16 C           1.5762   -5.1301    1.7777 C.3     1  UNL1       -0.0035
     17 C           2.5429   -4.5421    0.7767 C.3     1  UNL1       -0.0329
     18 C           2.1189   -3.2502    0.1798 C.3     1  UNL1       -0.0024
     19 C           3.3128   -2.3382    0.2573 C.ar    1  UNL1       -0.0432
     20 C           4.0065   -2.1494    1.4332 C.ar    1  UNL1       -0.0548
     21 C           5.0939   -1.2837    1.5053 C.ar    1  UNL1       -0.0197
     22 C           5.5087   -0.5925    0.4114 C.ar    1  UNL1        0.1207
     23 O           6.5801    0.2875    0.4079 O.3     1  UNL1       -0.4886
     24 C           7.3683    0.5695    1.5317 C.3     1  UNL1        0.1235
     25 C           8.4133    1.5832    1.1432 C.3     1  UNL1        0.1236
     26 O           9.2695    1.1393    0.1073 O.3     1  UNL1       -0.4857
     27 C          10.2515    2.0590   -0.2878 C.ar    1  UNL1        0.1571
     28 C          11.5043    2.1111    0.2920 C.ar    1  UNL1        0.0842
     29 CL         11.8296    0.9596    1.5682 Cl      1  UNL1       -0.0797
     30 C          12.4406    3.0415   -0.1357 C.ar    1  UNL1       -0.0368
     31 C          12.1682    3.9412   -1.1417 C.ar    1  UNL1       -0.0475
     32 C          13.1629    4.9414   -1.6046 C.3     1  UNL1       -0.0396
     33 C          10.9175    3.8906   -1.7223 C.ar    1  UNL1       -0.0368
     34 C           9.9886    2.9661   -1.2966 C.ar    1  UNL1        0.0842
     35 CL          8.3886    2.8954   -2.0372 Cl      1  UNL1       -0.0797
     36 C           4.8279   -0.7670   -0.7795 C.ar    1  UNL1       -0.0197
     37 C           3.7309   -1.6417   -0.8490 C.ar    1  UNL1       -0.0548
     38 C          -0.8826   -0.4146    1.7018 C.3     1  UNL1        0.0265
     39 C          -0.7351    1.0239    2.1936 C.3     1  UNL1       -0.0326
     40 C          -2.0072    0.2749    2.3241 C.3     1  UNL1       -0.0326
     41 C          -3.7232    0.3372   -0.8681 C.ar    1  UNL1       -0.0152
     42 C          -4.9899   -0.0161   -1.2650 C.ar    1  UNL1        0.1211
     43 O          -6.1097    0.7327   -0.9008 O.3     1  UNL1       -0.4919
     44 C          -5.9690    1.8978   -0.1019 C.3     1  UNL1        0.0896
     45 C          -7.2775    2.5772    0.2048 C.3     1  UNL1       -0.0176
     46 C          -6.9323    3.7966    1.0447 C.3     1  UNL1       -0.0347
     47 C          -8.1889    4.5444    1.4127 C.3     1  UNL1        0.0621
     48 C          -8.8709    4.9679    0.1397 C.3     1  UNL1       -0.0497
     49 C          -9.1369    3.6922    2.2118 C.3     1  UNL1       -0.0497
     50 C          -7.7712    5.7464    2.2179 C.2     1  UNL1        0.3104
     51 O          -8.1904    5.8831    3.3890 O.2     1  UNL1       -0.2504
     52 O          -6.9294    6.7032    1.6805 O.3     1  UNL1       -0.4802
     53 C          -5.1130   -1.1418   -2.0401 C.ar    1  UNL1       -0.0167
     54 H          -5.1240   -5.4647   -5.5543 H       1  UNL1        0.0523
     55 H          -6.7287   -6.0874   -5.2325 H       1  UNL1        0.0523
     56 H          -6.3814   -4.4055   -4.8390 H       1  UNL1        0.0523
     57 H          -4.6661   -6.2895   -1.8892 H       1  UNL1        0.0560
     58 H          -3.6076   -5.9574   -3.3191 H       1  UNL1        0.0560
     59 H          -5.2925   -4.0216   -1.6367 H       1  UNL1        0.0290
     60 H          -3.5420   -4.2036   -1.5496 H       1  UNL1        0.0290
     61 H          -4.9363   -2.9616   -4.0187 H       1  UNL1        0.0314
     62 H          -3.1794   -3.2845   -3.7594 H       1  UNL1        0.0314
     63 H          -1.9132   -2.0971   -2.2883 H       1  UNL1        0.0624
     64 H          -1.3619    1.1876   -0.5044 H       1  UNL1        0.0514
     65 H          -0.5735    0.0892   -1.6843 H       1  UNL1        0.0514
     66 H           1.3718   -1.8820    1.6900 H       1  UNL1        0.0413
     67 H          -1.0697   -3.2721    1.2753 H       1  UNL1        0.0432
     68 H           0.0330   -3.4369    2.6678 H       1  UNL1        0.0432
     69 H           0.3202   -5.0425    0.2026 H       1  UNL1        0.1220
     70 H           1.7761   -6.2089    1.8951 H       1  UNL1        0.0424
     71 H           1.7172   -4.5628    2.7287 H       1  UNL1        0.0424
     72 H           3.5311   -4.4914    1.2953 H       1  UNL1        0.0283
     73 H           2.7088   -5.2646   -0.0752 H       1  UNL1        0.0283
     74 H           1.8227   -3.3090   -0.8854 H       1  UNL1        0.0357
     75 H           3.6903   -2.6856    2.2936 H       1  UNL1        0.0622
     76 H           5.5973   -1.1723    2.4365 H       1  UNL1        0.0654
     77 H           6.8150    0.9229    2.3992 H       1  UNL1        0.0731
     78 H           7.9167   -0.3569    1.8502 H       1  UNL1        0.0731
     79 H           7.9490    2.5394    0.7862 H       1  UNL1        0.0731
     80 H           9.0363    1.8606    2.0414 H       1  UNL1        0.0731
     81 H          13.4133    3.0584    0.3384 H       1  UNL1        0.0636
     82 H          14.1517    4.7368   -1.1639 H       1  UNL1        0.0278
     83 H          12.8877    5.9879   -1.2895 H       1  UNL1        0.0278
     84 H          13.2083    4.9522   -2.6940 H       1  UNL1        0.0278
     85 H          10.6875    4.5998   -2.5247 H       1  UNL1        0.0636
     86 H           5.1473   -0.2181   -1.6761 H       1  UNL1        0.0654
     87 H           3.2341   -1.7427   -1.8062 H       1  UNL1        0.0622
     88 H          -0.2874   -1.1164    2.3693 H       1  UNL1        0.0500
     89 H          -0.7042    1.7856    1.3902 H       1  UNL1        0.0284
     90 H          -0.0739    1.2261    3.0352 H       1  UNL1        0.0284
     91 H          -2.8913    0.6459    1.8165 H       1  UNL1        0.0284
     92 H          -2.2233   -0.0028    3.4112 H       1  UNL1        0.0284
     93 H          -3.6196    1.2325   -0.2757 H       1  UNL1        0.0657
     94 H          -5.1948    2.5715   -0.4797 H       1  UNL1        0.0696
     95 H          -5.5899    1.5110    0.8899 H       1  UNL1        0.0696
     96 H          -7.9227    1.8938    0.7731 H       1  UNL1        0.0298
     97 H          -7.7171    2.9095   -0.7536 H       1  UNL1        0.0298
     98 H          -6.2215    4.4312    0.5107 H       1  UNL1        0.0277
     99 H          -6.4099    3.4054    1.9610 H       1  UNL1        0.0277
    100 H          -8.1025    5.1797   -0.6547 H       1  UNL1        0.0240
    101 H          -9.4936    5.8729    0.3099 H       1  UNL1        0.0240
    102 H          -9.4740    4.1221   -0.2595 H       1  UNL1        0.0240
    103 H          -8.6419    3.2690    3.1266 H       1  UNL1        0.0240
    104 H          -9.5273    2.8984    1.5632 H       1  UNL1        0.0240
    105 H          -9.9877    4.3006    2.5705 H       1  UNL1        0.0240
    106 H          -6.7170    7.5932    2.1451 H       1  UNL1        0.2951
    107 H          -6.0829   -1.4887   -2.3966 H       1  UNL1        0.0657
@<TRIPOS>BOND
     1     1     2    1
     2     2     3    1
     3     3     4    1
     4     4     5    1
     5     5     6    1
     6     6     7   ar
     7     7     8   ar
     8     8     9    1
     9     9    10    1
    10    10    11   am
    11    11    12    2
    12    11    13    1
    13    13    14    1
    14    14    15    1
    15    15    16    1
    16    16    17    1
    17    17    18    1
    18    18    19    1
    19    19    20   ar
    20    20    21   ar
    21    21    22   ar
    22    22    23    1
    23    23    24    1
    24    24    25    1
    25    25    26    1
    26    26    27    1
    27    27    28   ar
    28    28    29    1
    29    28    30   ar
    30    30    31   ar
    31    31    32    1
    32    31    33   ar
    33    33    34   ar
    34    34    35    1
    35    22    36   ar
    36    36    37   ar
    37    10    38    1
    38    38    39    1
    39    39    40    1
    40     8    41   ar
    41    41    42   ar
    42    42    43    1
    43    43    44    1
    44    44    45    1
    45    45    46    1
    46    46    47    1
    47    47    48    1
    48    47    49    1
    49    47    50    1
    50    50    51    2
    51    50    52    1
    52    42    53   ar
    53    53     6   ar
    54    18    13    1
    55    37    19   ar
    56    40    38    1
    57    34    27   ar
    58     1    54    1
    59     1    55    1
    60     1    56    1
    61     3    57    1
    62     3    58    1
    63     4    59    1
    64     4    60    1
    65     5    61    1
    66     5    62    1
    67     7    63    1
    68     9    64    1
    69     9    65    1
    70    13    66    1
    71    14    67    1
    72    14    68    1
    73    15    69    1
    74    16    70    1
    75    16    71    1
    76    17    72    1
    77    17    73    1
    78    18    74    1
    79    20    75    1
    80    21    76    1
    81    24    77    1
    82    24    78    1
    83    25    79    1
    84    25    80    1
    85    30    81    1
    86    32    82    1
    87    32    83    1
    88    32    84    1
    89    33    85    1
    90    36    86    1
    91    37    87    1
    92    38    88    1
    93    39    89    1
    94    39    90    1
    95    40    91    1
    96    40    92    1
    97    41    93    1
    98    44    94    1
    99    44    95    1
   100    45    96    1
   101    45    97    1
   102    46    98    1
   103    46    99    1
   104    48   100    1
   105    48   101    1
   106    48   102    1
   107    49   103    1
   108    49   104    1
   109    49   105    1
   110    52   106    1
   111    53   107    1
