
     RDKit          3D

107111  0  0  0  0  0  0  0  0999 V2000
   -5.9193   -5.3892   -4.7748 C   0  0  0  0  0  0  0  0  0  0  0  0
   -5.6297   -5.9298   -3.5908 O   0  0  0  0  0  0  0  0  0  0  0  0
   -4.5806   -5.6197   -2.8268 C   0  0  0  0  0  0  0  0  0  0  0  0
   -4.3939   -4.2553   -2.3019 C   0  0  0  0  0  0  0  0  0  0  0  0
   -4.1820   -3.1362   -3.2699 C   0  0  0  0  0  0  0  0  0  0  0  0
   -4.0173   -1.8966   -2.4128 C   0  0  0  0  0  0  0  0  0  0  0  0
   -2.7753   -1.4852   -1.9795 C   0  0  0  0  0  0  0  0  0  0  0  0
   -2.5679   -0.3634   -1.1957 C   0  0  0  0  0  0  0  0  0  0  0  0
   -1.2310    0.0947   -0.7761 C   0  0  0  0  0  0  0  0  0  0  0  0
   -0.6524   -0.6358    0.3114 N   0  0  0  0  0  0  0  0  0  0  0  0
    0.2793   -1.6757   -0.0715 C   0  0  0  0  0  0  0  0  0  0  0  0
    0.5427   -1.8646   -1.2924 O   0  0  0  0  0  0  0  0  0  0  0  0
    0.9707   -2.5597    0.8931 C   0  0  1  0  0  0  0  0  0  0  0  0
   -0.0048   -3.4639    1.5360 C   0  0  0  0  0  0  0  0  0  0  0  0
    0.2305   -4.8717    1.2273 N   0  0  0  0  0  0  0  0  0  0  0  0
    1.5762   -5.1301    1.7777 C   0  0  0  0  0  0  0  0  0  0  0  0
    2.5429   -4.5421    0.7767 C   0  0  0  0  0  0  0  0  0  0  0  0
    2.1189   -3.2502    0.1798 C   0  0  2  0  0  0  0  0  0  0  0  0
    3.3128   -2.3382    0.2573 C   0  0  0  0  0  0  0  0  0  0  0  0
    4.0065   -2.1494    1.4332 C   0  0  0  0  0  0  0  0  0  0  0  0
    5.0939   -1.2837    1.5053 C   0  0  0  0  0  0  0  0  0  0  0  0
    5.5087   -0.5925    0.4114 C   0  0  0  0  0  0  0  0  0  0  0  0
    6.5801    0.2875    0.4079 O   0  0  0  0  0  0  0  0  0  0  0  0
    7.3683    0.5695    1.5317 C   0  0  0  0  0  0  0  0  0  0  0  0
    8.4133    1.5832    1.1432 C   0  0  0  0  0  0  0  0  0  0  0  0
    9.2695    1.1393    0.1073 O   0  0  0  0  0  0  0  0  0  0  0  0
   10.2515    2.0590   -0.2878 C   0  0  0  0  0  0  0  0  0  0  0  0
   11.5043    2.1111    0.2920 C   0  0  0  0  0  0  0  0  0  0  0  0
   11.8296    0.9596    1.5682 Cl  0  0  0  0  0  0  0  0  0  0  0  0
   12.4406    3.0415   -0.1357 C   0  0  0  0  0  0  0  0  0  0  0  0
   12.1682    3.9412   -1.1417 C   0  0  0  0  0  0  0  0  0  0  0  0
   13.1629    4.9414   -1.6046 C   0  0  0  0  0  0  0  0  0  0  0  0
   10.9175    3.8906   -1.7223 C   0  0  0  0  0  0  0  0  0  0  0  0
    9.9886    2.9661   -1.2966 C   0  0  0  0  0  0  0  0  0  0  0  0
    8.3886    2.8954   -2.0372 Cl  0  0  0  0  0  0  0  0  0  0  0  0
    4.8279   -0.7670   -0.7795 C   0  0  0  0  0  0  0  0  0  0  0  0
    3.7309   -1.6417   -0.8490 C   0  0  0  0  0  0  0  0  0  0  0  0
   -0.8826   -0.4146    1.7018 C   0  0  0  0  0  0  0  0  0  0  0  0
   -0.7351    1.0239    2.1936 C   0  0  0  0  0  0  0  0  0  0  0  0
   -2.0072    0.2749    2.3241 C   0  0  0  0  0  0  0  0  0  0  0  0
   -3.7232    0.3372   -0.8681 C   0  0  0  0  0  0  0  0  0  0  0  0
   -4.9899   -0.0161   -1.2650 C   0  0  0  0  0  0  0  0  0  0  0  0
   -6.1097    0.7327   -0.9008 O   0  0  0  0  0  0  0  0  0  0  0  0
   -5.9690    1.8978   -0.1019 C   0  0  0  0  0  0  0  0  0  0  0  0
   -7.2775    2.5772    0.2048 C   0  0  0  0  0  0  0  0  0  0  0  0
   -6.9323    3.7966    1.0447 C   0  0  0  0  0  0  0  0  0  0  0  0
   -8.1889    4.5444    1.4127 C   0  0  0  0  0  0  0  0  0  0  0  0
   -8.8709    4.9679    0.1397 C   0  0  0  0  0  0  0  0  0  0  0  0
   -9.1369    3.6922    2.2118 C   0  0  0  0  0  0  0  0  0  0  0  0
   -7.7712    5.7464    2.2179 C   0  0  0  0  0  0  0  0  0  0  0  0
   -8.1904    5.8831    3.3890 O   0  0  0  0  0  0  0  0  0  0  0  0
   -6.9294    6.7032    1.6805 O   0  0  0  0  0  0  0  0  0  0  0  0
   -5.1130   -1.1418   -2.0401 C   0  0  0  0  0  0  0  0  0  0  0  0
   -5.1240   -5.4647   -5.5543 H   0  0  0  0  0  0  0  0  0  0  0  0
   -6.7287   -6.0874   -5.2325 H   0  0  0  0  0  0  0  0  0  0  0  0
   -6.3814   -4.4055   -4.8390 H   0  0  0  0  0  0  0  0  0  0  0  0
   -4.6661   -6.2895   -1.8892 H   0  0  0  0  0  0  0  0  0  0  0  0
   -3.6076   -5.9574   -3.3191 H   0  0  0  0  0  0  0  0  0  0  0  0
   -5.2925   -4.0216   -1.6367 H   0  0  0  0  0  0  0  0  0  0  0  0
   -3.5420   -4.2036   -1.5496 H   0  0  0  0  0  0  0  0  0  0  0  0
   -4.9363   -2.9616   -4.0187 H   0  0  0  0  0  0  0  0  0  0  0  0
   -3.1794   -3.2845   -3.7594 H   0  0  0  0  0  0  0  0  0  0  0  0
   -1.9132   -2.0971   -2.2883 H   0  0  0  0  0  0  0  0  0  0  0  0
   -1.3619    1.1876   -0.5044 H   0  0  0  0  0  0  0  0  0  0  0  0
   -0.5735    0.0892   -1.6843 H   0  0  0  0  0  0  0  0  0  0  0  0
    1.3718   -1.8820    1.6900 H   0  0  0  0  0  0  0  0  0  0  0  0
   -1.0697   -3.2721    1.2753 H   0  0  0  0  0  0  0  0  0  0  0  0
    0.0330   -3.4369    2.6678 H   0  0  0  0  0  0  0  0  0  0  0  0
    0.3202   -5.0425    0.2026 H   0  0  0  0  0  0  0  0  0  0  0  0
    1.7761   -6.2089    1.8951 H   0  0  0  0  0  0  0  0  0  0  0  0
    1.7172   -4.5628    2.7287 H   0  0  0  0  0  0  0  0  0  0  0  0
    3.5311   -4.4914    1.2953 H   0  0  0  0  0  0  0  0  0  0  0  0
    2.7088   -5.2646   -0.0752 H   0  0  0  0  0  0  0  0  0  0  0  0
    1.8227   -3.3090   -0.8854 H   0  0  0  0  0  0  0  0  0  0  0  0
    3.6903   -2.6856    2.2936 H   0  0  0  0  0  0  0  0  0  0  0  0
    5.5973   -1.1723    2.4365 H   0  0  0  0  0  0  0  0  0  0  0  0
    6.8150    0.9229    2.3992 H   0  0  0  0  0  0  0  0  0  0  0  0
    7.9167   -0.3569    1.8502 H   0  0  0  0  0  0  0  0  0  0  0  0
    7.9490    2.5394    0.7862 H   0  0  0  0  0  0  0  0  0  0  0  0
    9.0363    1.8606    2.0414 H   0  0  0  0  0  0  0  0  0  0  0  0
   13.4133    3.0584    0.3384 H   0  0  0  0  0  0  0  0  0  0  0  0
   14.1517    4.7368   -1.1639 H   0  0  0  0  0  0  0  0  0  0  0  0
   12.8877    5.9879   -1.2895 H   0  0  0  0  0  0  0  0  0  0  0  0
   13.2083    4.9522   -2.6940 H   0  0  0  0  0  0  0  0  0  0  0  0
   10.6875    4.5998   -2.5247 H   0  0  0  0  0  0  0  0  0  0  0  0
    5.1473   -0.2181   -1.6761 H   0  0  0  0  0  0  0  0  0  0  0  0
    3.2341   -1.7427   -1.8062 H   0  0  0  0  0  0  0  0  0  0  0  0
   -0.2874   -1.1164    2.3693 H   0  0  0  0  0  0  0  0  0  0  0  0
   -0.7042    1.7856    1.3902 H   0  0  0  0  0  0  0  0  0  0  0  0
   -0.0739    1.2261    3.0352 H   0  0  0  0  0  0  0  0  0  0  0  0
   -2.8913    0.6459    1.8165 H   0  0  0  0  0  0  0  0  0  0  0  0
   -2.2233   -0.0028    3.4112 H   0  0  0  0  0  0  0  0  0  0  0  0
   -3.6196    1.2325   -0.2757 H   0  0  0  0  0  0  0  0  0  0  0  0
   -5.1948    2.5715   -0.4797 H   0  0  0  0  0  0  0  0  0  0  0  0
   -5.5899    1.5110    0.8899 H   0  0  0  0  0  0  0  0  0  0  0  0
   -7.9227    1.8938    0.7731 H   0  0  0  0  0  0  0  0  0  0  0  0
   -7.7171    2.9095   -0.7536 H   0  0  0  0  0  0  0  0  0  0  0  0
   -6.2215    4.4312    0.5107 H   0  0  0  0  0  0  0  0  0  0  0  0
   -6.4099    3.4054    1.9610 H   0  0  0  0  0  0  0  0  0  0  0  0
   -8.1025    5.1797   -0.6547 H   0  0  0  0  0  0  0  0  0  0  0  0
   -9.4936    5.8729    0.3099 H   0  0  0  0  0  0  0  0  0  0  0  0
   -9.4740    4.1221   -0.2595 H   0  0  0  0  0  0  0  0  0  0  0  0
   -8.6419    3.2690    3.1266 H   0  0  0  0  0  0  0  0  0  0  0  0
   -9.5273    2.8984    1.5632 H   0  0  0  0  0  0  0  0  0  0  0  0
   -9.9877    4.3006    2.5705 H   0  0  0  0  0  0  0  0  0  0  0  0
   -6.7170    7.5932    2.1451 H   0  0  0  0  0  0  0  0  0  0  0  0
   -6.0829   -1.4887   -2.3966 H   0  0  0  0  0  0  0  0  0  0  0  0
  1  2  1  0
  2  3  1  0
  3  4  1  0
  4  5  1  0
  5  6  1  0
  6  7  2  0
  7  8  1  0
  8  9  1  0
  9 10  1  0
 10 11  1  0
 11 12  2  0
 11 13  1  0
 13 14  1  0
 14 15  1  0
 15 16  1  0
 16 17  1  0
 17 18  1  0
 18 19  1  0
 19 20  2  0
 20 21  1  0
 21 22  2  0
 22 23  1  0
 23 24  1  0
 24 25  1  0
 25 26  1  0
 26 27  1  0
 27 28  2  0
 28 29  1  0
 28 30  1  0
 30 31  2  0
 31 32  1  0
 31 33  1  0
 33 34  2  0
 34 35  1  0
 22 36  1  0
 36 37  2  0
 10 38  1  0
 38 39  1  0
 39 40  1  0
  8 41  2  0
 41 42  1  0
 42 43  1  0
 43 44  1  0
 44 45  1  0
 45 46  1  0
 46 47  1  0
 47 48  1  0
 47 49  1  0
 47 50  1  0
 50 51  2  0
 50 52  1  0
 42 53  2  0
 53  6  1  0
 18 13  1  0
 37 19  1  0
 40 38  1  0
 34 27  1  0
  1 54  1  0
  1 55  1  0
  1 56  1  0
  3 57  1  0
  3 58  1  0
  4 59  1  0
  4 60  1  0
  5 61  1  0
  5 62  1  0
  7 63  1  0
  9 64  1  0
  9 65  1  0
 13 66  1  1
 14 67  1  0
 14 68  1  0
 15 69  1  0
 16 70  1  0
 16 71  1  0
 17 72  1  0
 17 73  1  0
 18 74  1  6
 20 75  1  0
 21 76  1  0
 24 77  1  0
 24 78  1  0
 25 79  1  0
 25 80  1  0
 30 81  1  0
 32 82  1  0
 32 83  1  0
 32 84  1  0
 33 85  1  0
 36 86  1  0
 37 87  1  0
 38 88  1  0
 39 89  1  0
 39 90  1  0
 40 91  1  0
 40 92  1  0
 41 93  1  0
 44 94  1  0
 44 95  1  0
 45 96  1  0
 45 97  1  0
 46 98  1  0
 46 99  1  0
 48100  1  0
 48101  1  0
 48102  1  0
 49103  1  0
 49104  1  0
 49105  1  0
 52106  1  0
 53107  1  0
M  END
$$$$
