
     RDKit          3D

 32 33  0  0  0  0  0  0  0  0999 V2000
   -5.1701    0.5194    1.0024 C   0  0  0  0  0  0  0  0  0  0  0  0
   -3.9882    1.2158    0.4571 C   0  0  0  0  0  0  0  0  0  0  0  0
   -4.0489    2.4561    0.3107 O   0  0  0  0  0  0  0  0  0  0  0  0
   -2.7615    0.5265    0.0840 C   0  0  0  0  0  0  0  0  0  0  0  0
   -1.6722    1.2030   -0.4244 C   0  0  0  0  0  0  0  0  0  0  0  0
   -0.5127    0.5384   -0.7758 C   0  0  0  0  0  0  0  0  0  0  0  0
   -0.3685   -0.8145   -0.6451 C   0  0  0  0  0  0  0  0  0  0  0  0
    0.7228   -1.5272   -0.9619 O   0  0  0  0  0  0  0  0  0  0  0  0
    1.9585   -1.3122   -1.4480 C   0  0  0  0  0  0  0  0  0  0  0  0
    2.8353   -0.4635   -0.6110 C   0  0  0  0  0  0  0  0  0  0  0  0
    3.5032   -1.0785    0.4550 C   0  0  0  0  0  0  0  0  0  0  0  0
    4.3602   -0.3773    1.2679 C   0  0  0  0  0  0  0  0  0  0  0  0
    4.5634    0.9630    1.0236 C   0  0  0  0  0  0  0  0  0  0  0  0
    3.9292    1.6107   -0.0125 C   0  0  0  0  0  0  0  0  0  0  0  0
    4.2248    3.3169   -0.2772 Cl  0  0  0  0  0  0  0  0  0  0  0  0
    3.0829    0.8715   -0.7983 C   0  0  0  0  0  0  0  0  0  0  0  0
   -1.4836   -1.5089   -0.1246 C   0  0  0  0  0  0  0  0  0  0  0  0
   -2.6204   -0.8395    0.2173 C   0  0  0  0  0  0  0  0  0  0  0  0
   -3.6799   -1.5764    0.7225 O   0  0  0  0  0  0  0  0  0  0  0  0
   -6.0007    1.2109    1.1690 H   0  0  0  0  0  0  0  0  0  0  0  0
   -5.5487   -0.2492    0.2923 H   0  0  0  0  0  0  0  0  0  0  0  0
   -4.8262    0.0342    1.9620 H   0  0  0  0  0  0  0  0  0  0  0  0
   -1.7175    2.2780   -0.5544 H   0  0  0  0  0  0  0  0  0  0  0  0
    0.3062    1.1098   -1.1783 H   0  0  0  0  0  0  0  0  0  0  0  0
    1.8591   -0.8168   -2.4701 H   0  0  0  0  0  0  0  0  0  0  0  0
    2.5236   -2.2497   -1.6981 H   0  0  0  0  0  0  0  0  0  0  0  0
    3.3408   -2.1366    0.6453 H   0  0  0  0  0  0  0  0  0  0  0  0
    4.8764   -0.8678    2.0974 H   0  0  0  0  0  0  0  0  0  0  0  0
    5.2387    1.4981    1.6710 H   0  0  0  0  0  0  0  0  0  0  0  0
    2.6007    1.3744   -1.6050 H   0  0  0  0  0  0  0  0  0  0  0  0
   -1.4048   -2.5990   -0.0053 H   0  0  0  0  0  0  0  0  0  0  0  0
   -4.1219   -2.3095    0.2122 H   0  0  0  0  0  0  0  0  0  0  0  0
  1  2  1  0
  2  3  2  0
  2  4  1  0
  4  5  2  0
  5  6  1  0
  6  7  2  0
  7  8  1  0
  8  9  1  0
  9 10  1  0
 10 11  2  0
 11 12  1  0
 12 13  2  0
 13 14  1  0
 14 15  1  0
 14 16  2  0
  7 17  1  0
 17 18  2  0
 18 19  1  0
 18  4  1  0
 16 10  1  0
  1 20  1  0
  1 21  1  0
  1 22  1  0
  5 23  1  0
  6 24  1  0
  9 25  1  0
  9 26  1  0
 11 27  1  0
 12 28  1  0
 13 29  1  0
 16 30  1  0
 17 31  1  0
 19 32  1  0
M  END
$$$$
