@<TRIPOS>MOLECULE
*****
 32 33 0 0 0
SMALL
GASTEIGER

@<TRIPOS>ATOM
      1 C          -5.1701    0.5194    1.0024 C.3     1  UNL1       -0.0013
      2 C          -3.9882    1.2158    0.4571 C.2     1  UNL1        0.1636
      3 O          -4.0489    2.4561    0.3107 O.2     1  UNL1       -0.2922
      4 C          -2.7615    0.5265    0.0840 C.ar    1  UNL1        0.0587
      5 C          -1.6722    1.2030   -0.4244 C.ar    1  UNL1       -0.0443
      6 C          -0.5127    0.5384   -0.7758 C.ar    1  UNL1       -0.0190
      7 C          -0.3685   -0.8145   -0.6451 C.ar    1  UNL1        0.1245
      8 O           0.7228   -1.5272   -0.9619 O.3     1  UNL1       -0.4873
      9 C           1.9585   -1.3122   -1.4480 C.3     1  UNL1        0.1147
     10 C           2.8353   -0.4635   -0.6110 C.ar    1  UNL1       -0.0090
     11 C           3.5032   -1.0785    0.4550 C.ar    1  UNL1       -0.0553
     12 C           4.3602   -0.3773    1.2679 C.ar    1  UNL1       -0.0600
     13 C           4.5634    0.9630    1.0236 C.ar    1  UNL1       -0.0434
     14 C           3.9292    1.6107   -0.0125 C.ar    1  UNL1        0.0413
     15 CL          4.2248    3.3169   -0.2772 Cl      1  UNL1       -0.0835
     16 C           3.0829    0.8715   -0.7983 C.ar    1  UNL1       -0.0370
     17 C          -1.4836   -1.5089   -0.1246 C.ar    1  UNL1        0.0223
     18 C          -2.6204   -0.8395    0.2173 C.ar    1  UNL1        0.1308
     19 O          -3.6799   -1.5764    0.7225 O.3     1  UNL1       -0.5059
     20 H          -6.0007    1.2109    1.1690 H       1  UNL1        0.0309
     21 H          -5.5487   -0.2492    0.2923 H       1  UNL1        0.0309
     22 H          -4.8262    0.0342    1.9620 H       1  UNL1        0.0309
     23 H          -1.7175    2.2780   -0.5544 H       1  UNL1        0.0627
     24 H           0.3062    1.1098   -1.1783 H       1  UNL1        0.0654
     25 H           1.8591   -0.8168   -2.4701 H       1  UNL1        0.0748
     26 H           2.5236   -2.2497   -1.6981 H       1  UNL1        0.0748
     27 H           3.3408   -2.1366    0.6453 H       1  UNL1        0.0621
     28 H           4.8764   -0.8678    2.0974 H       1  UNL1        0.0618
     29 H           5.2387    1.4981    1.6710 H       1  UNL1        0.0632
     30 H           2.6007    1.3744   -1.6050 H       1  UNL1        0.0636
     31 H          -1.4048   -2.5990   -0.0053 H       1  UNL1        0.0691
     32 H          -4.1219   -2.3095    0.2122 H       1  UNL1        0.2922
@<TRIPOS>BOND
     1     1     2    1
     2     2     3    2
     3     2     4    1
     4     4     5   ar
     5     5     6   ar
     6     6     7   ar
     7     7     8    1
     8     8     9    1
     9     9    10    1
    10    10    11   ar
    11    11    12   ar
    12    12    13   ar
    13    13    14   ar
    14    14    15    1
    15    14    16   ar
    16     7    17   ar
    17    17    18   ar
    18    18    19    1
    19    18     4   ar
    20    16    10   ar
    21     1    20    1
    22     1    21    1
    23     1    22    1
    24     5    23    1
    25     6    24    1
    26     9    25    1
    27     9    26    1
    28    11    27    1
    29    12    28    1
    30    13    29    1
    31    16    30    1
    32    17    31    1
    33    19    32    1
