@<TRIPOS>MOLECULE
*****
 110 114 0 0 0
SMALL
GASTEIGER

@<TRIPOS>ATOM
      1 C           3.4239    4.8847    1.1620 C.1     1  UNL1       -0.1139
      2 C           4.3301    3.7373    0.7143 C.1     1  UNL1       -0.0696
      3 C           4.9947    2.9172    0.3871 C.ar    1  UNL1        0.0271
      4 C           4.7643    2.0238   -0.7675 C.ar    1  UNL1       -0.0251
      5 C           5.5438    1.0266   -1.1243 C.ar    1  UNL1        0.0343
      6 N           5.1325    0.1030   -2.1328 N.pl3   1  UNL1       -0.2993
      7 C           3.7705   -0.2887   -2.0310 C.ar    1  UNL1        0.1264
      8 C           2.8358   -0.0217   -1.1363 C.ar    1  UNL1        0.0208
      9 C           1.5269   -0.3650   -1.0601 C.ar    1  UNL1        0.1332
     10 O           0.7492    0.0660   -0.0051 O.3     1  UNL1       -0.4553
     11 C          -0.6124    0.0046    0.0327 C.ar    1  UNL1        0.1362
     12 C          -1.2887   -0.0117   -1.1964 C.ar    1  UNL1       -0.0170
     13 C          -2.6458   -0.1731   -1.1968 C.ar    1  UNL1       -0.0364
     14 C          -3.3986   -0.3200   -0.0488 C.ar    1  UNL1        0.0427
     15 N          -4.7152   -0.7887   -0.1330 N.am    1  UNL1       -0.2686
     16 C          -5.9342   -0.1761    0.1055 C.2     1  UNL1        0.3082
     17 O          -5.9137    1.0228    0.4964 O.2     1  UNL1       -0.2521
     18 N          -7.1282   -0.8996   -0.0800 N.am    1  UNL1       -0.2660
     19 C          -8.4271   -0.4580    0.1462 C.ar    1  UNL1        0.0789
     20 C          -9.3567   -1.4269    0.6142 C.ar    1  UNL1       -0.0330
     21 C         -10.6612   -1.1259    0.8539 C.ar    1  UNL1       -0.0382
     22 C         -11.5085   -2.2193    1.3127 C.3     1  UNL1       -0.0126
     23 C         -11.9539   -3.0724    0.0684 C.3     1  UNL1       -0.0560
     24 C         -12.7787   -1.8091    1.9806 C.3     1  UNL1       -0.0560
     25 C         -10.7502   -3.1861    2.1861 C.3     1  UNL1       -0.0560
     26 C         -11.0426    0.1799    0.6254 C.ar    1  UNL1       -0.0320
     27 C         -10.1959    1.1646    0.1703 C.ar    1  UNL1        0.0913
     28 N         -10.5265    2.5239    0.0353 N.pl3   1  UNL1       -0.2173
     29 S         -11.7317    3.1771   -0.9984 S.O2    1  UNL1        0.0404
     30 C         -10.9887    4.1966   -2.2391 C.3     1  UNL1        0.0736
     31 O         -12.5658    2.1109   -1.6512 O.2     1  UNL1       -0.1555
     32 O         -12.6663    4.0165   -0.1383 O.2     1  UNL1       -0.1555
     33 C          -8.8282    0.8330   -0.0872 C.ar    1  UNL1        0.1634
     34 O          -8.0121    1.8097   -0.5800 O.3     1  UNL1       -0.4914
     35 C          -7.9031    1.9910   -2.0370 C.3     1  UNL1        0.0790
     36 C          -2.7392   -0.2653    1.1897 C.ar    1  UNL1        0.0069
     37 C          -3.4653   -0.3047    2.3590 C.ar    1  UNL1       -0.0521
     38 C          -2.7584   -0.1568    3.5646 C.ar    1  UNL1       -0.0611
     39 C          -1.3973    0.0110    3.5542 C.ar    1  UNL1       -0.0611
     40 C          -0.7077    0.0365    2.3813 C.ar    1  UNL1       -0.0505
     41 C          -1.3841   -0.1038    1.1481 C.ar    1  UNL1        0.0262
     42 C           1.0712   -1.1523   -2.0977 C.ar    1  UNL1       -0.0011
     43 C           1.9903   -1.4860   -3.0903 C.ar    1  UNL1        0.0332
     44 N           3.2722   -1.1032   -3.1009 N.ar    1  UNL1       -0.2400
     45 C           6.6824    0.7382   -0.4330 C.ar    1  UNL1       -0.0283
     46 C           7.0256    1.5180    0.6913 C.ar    1  UNL1        0.0396
     47 C           8.2175    1.1801    1.4119 C.2     1  UNL1        0.2442
     48 O           8.4784    1.8371    2.4956 O.2     1  UNL1       -0.2702
     49 N           9.1640    0.2082    1.0598 N.am    1  UNL1       -0.3092
     50 C          10.3826   -0.1174    1.7896 C.3     1  UNL1        0.0353
     51 C          11.1619   -1.1155    0.9068 C.3     1  UNL1        0.0633
     52 O          10.4143   -2.2618    0.7200 O.3     1  UNL1       -0.3760
     53 C          10.8915   -3.0153   -0.3357 C.3     1  UNL1        0.0711
     54 C          12.4034   -3.1690   -0.2219 C.3     1  UNL1        0.0711
     55 O          13.0195   -2.0164   -0.2280 O.3     1  UNL1       -0.3752
     56 C          14.2438   -1.5947   -0.2571 C.3     1  UNL1        0.0711
     57 C          14.2536   -0.0413   -0.0873 C.3     1  UNL1        0.0706
     58 O          13.4886    0.4441   -1.1677 O.3     1  UNL1       -0.3807
     59 C          13.2665    1.8360   -0.9032 C.3     1  UNL1        0.0365
     60 C           6.2384    2.5361    1.0790 C.ar    1  UNL1       -0.0341
     61 H           2.7722    5.7234    1.4747 H       1  UNL1        0.1232
     62 H           3.9116    2.3551   -1.3348 H       1  UNL1        0.0648
     63 H           5.7336   -0.2453   -2.8994 H       1  UNL1        0.1536
     64 H           3.2025    0.5375   -0.2112 H       1  UNL1        0.0689
     65 H          -0.7550    0.1875   -2.1077 H       1  UNL1        0.0655
     66 H          -3.0972   -0.1669   -2.1934 H       1  UNL1        0.0637
     67 H          -4.7568   -1.8593   -0.4659 H       1  UNL1        0.1564
     68 H          -7.0414   -1.9095   -0.4574 H       1  UNL1        0.1565
     69 H          -8.9544   -2.4366    0.7572 H       1  UNL1        0.0640
     70 H         -12.9362   -2.7501   -0.2710 H       1  UNL1        0.0238
     71 H         -11.9703   -4.1242    0.3603 H       1  UNL1        0.0238
     72 H         -11.1356   -2.9639   -0.6794 H       1  UNL1        0.0238
     73 H         -12.5428   -1.3294    2.9495 H       1  UNL1        0.0238
     74 H         -13.4646   -1.2164    1.3758 H       1  UNL1        0.0238
     75 H         -13.3488   -2.7713    2.1713 H       1  UNL1        0.0238
     76 H         -10.0516   -3.8338    1.5972 H       1  UNL1        0.0238
     77 H         -10.1031   -2.5724    2.8202 H       1  UNL1        0.0238
     78 H         -11.4623   -3.8008    2.7673 H       1  UNL1        0.0238
     79 H         -12.0468    0.4404    0.7963 H       1  UNL1        0.0641
     80 H         -10.0075    3.2593    0.6059 H       1  UNL1        0.1734
     81 H         -10.9023    3.5794   -3.1604 H       1  UNL1        0.0482
     82 H          -9.9576    4.5972   -1.9481 H       1  UNL1        0.0482
     83 H         -11.6129    5.1307   -2.3872 H       1  UNL1        0.0482
     84 H          -7.3595    2.9592   -2.1059 H       1  UNL1        0.0660
     85 H          -7.3869    1.1420   -2.4543 H       1  UNL1        0.0660
     86 H          -8.9625    2.1244   -2.4600 H       1  UNL1        0.0660
     87 H          -4.5438   -0.4600    2.3472 H       1  UNL1        0.0624
     88 H          -3.2853   -0.1617    4.5218 H       1  UNL1        0.0618
     89 H          -0.8462    0.1160    4.5107 H       1  UNL1        0.0618
     90 H           0.3875    0.1446    2.3934 H       1  UNL1        0.0625
     91 H           0.0787   -1.5892   -2.1466 H       1  UNL1        0.0669
     92 H           1.5984   -2.1119   -3.9545 H       1  UNL1        0.0831
     93 H           7.2816   -0.0794   -0.7652 H       1  UNL1        0.0644
     94 H           8.9856   -0.3404    0.1538 H       1  UNL1        0.1491
     95 H          10.1888   -0.5108    2.7805 H       1  UNL1        0.0485
     96 H          11.0723    0.7849    1.8346 H       1  UNL1        0.0485
     97 H          12.0686   -1.2709    1.4887 H       1  UNL1        0.0575
     98 H          11.3714   -0.5499   -0.0104 H       1  UNL1        0.0575
     99 H          10.3697   -4.0206   -0.3359 H       1  UNL1        0.0583
    100 H          10.6700   -2.5714   -1.3556 H       1  UNL1        0.0583
    101 H          12.5335   -3.6908    0.7853 H       1  UNL1        0.0583
    102 H          12.8146   -3.9059   -0.9608 H       1  UNL1        0.0583
    103 H          14.7202   -1.7970   -1.2573 H       1  UNL1        0.0583
    104 H          14.9053   -1.9887    0.5456 H       1  UNL1        0.0583
    105 H          13.7242    0.2248    0.8289 H       1  UNL1        0.0582
    106 H          15.2631    0.3628   -0.1863 H       1  UNL1        0.0582
    107 H          14.2343    2.3505   -0.8293 H       1  UNL1        0.0524
    108 H          12.7497    1.8370    0.1111 H       1  UNL1        0.0524
    109 H          12.6466    2.1546   -1.7317 H       1  UNL1        0.0524
    110 H           6.4956    3.1291    1.9413 H       1  UNL1        0.0637
@<TRIPOS>BOND
     1     1     2    3
     2     2     3    1
     3     3     4   ar
     4     4     5   ar
     5     5     6    1
     6     6     7    1
     7     7     8   ar
     8     8     9   ar
     9     9    10    1
    10    10    11    1
    11    11    12   ar
    12    12    13   ar
    13    13    14   ar
    14    14    15    1
    15    15    16   am
    16    16    17    2
    17    16    18   am
    18    18    19    1
    19    19    20   ar
    20    20    21   ar
    21    21    22    1
    22    22    23    1
    23    22    24    1
    24    22    25    1
    25    21    26   ar
    26    26    27   ar
    27    27    28    1
    28    28    29    1
    29    29    30    1
    30    29    31    2
    31    29    32    2
    32    27    33   ar
    33    33    34    1
    34    34    35    1
    35    14    36   ar
    36    36    37   ar
    37    37    38   ar
    38    38    39   ar
    39    39    40   ar
    40    40    41   ar
    41     9    42   ar
    42    42    43   ar
    43    43    44   ar
    44     5    45   ar
    45    45    46   ar
    46    46    47    1
    47    47    48    2
    48    47    49   am
    49    49    50    1
    50    50    51    1
    51    51    52    1
    52    52    53    1
    53    53    54    1
    54    54    55    1
    55    55    56    1
    56    56    57    1
    57    57    58    1
    58    58    59    1
    59    46    60   ar
    60    60     3   ar
    61    44     7   ar
    62    41    11   ar
    63    33    19   ar
    64    41    36   ar
    65     1    61    1
    66     4    62    1
    67     6    63    1
    68     8    64    1
    69    12    65    1
    70    13    66    1
    71    15    67    1
    72    18    68    1
    73    20    69    1
    74    23    70    1
    75    23    71    1
    76    23    72    1
    77    24    73    1
    78    24    74    1
    79    24    75    1
    80    25    76    1
    81    25    77    1
    82    25    78    1
    83    26    79    1
    84    28    80    1
    85    30    81    1
    86    30    82    1
    87    30    83    1
    88    35    84    1
    89    35    85    1
    90    35    86    1
    91    37    87    1
    92    38    88    1
    93    39    89    1
    94    40    90    1
    95    42    91    1
    96    43    92    1
    97    45    93    1
    98    49    94    1
    99    50    95    1
   100    50    96    1
   101    51    97    1
   102    51    98    1
   103    53    99    1
   104    53   100    1
   105    54   101    1
   106    54   102    1
   107    56   103    1
   108    56   104    1
   109    57   105    1
   110    57   106    1
   111    59   107    1
   112    59   108    1
   113    59   109    1
   114    60   110    1
