@<TRIPOS>MOLECULE
*****
 81 86 0 0 0
SMALL
GASTEIGER

@<TRIPOS>ATOM
      1 C           3.4911    0.9378    1.8830 C.3     1  UNL1       -0.0219
      2 C           3.7614    1.5005    0.5495 C.ar    1  UNL1        0.0464
      3 N           4.9454    1.1866    0.0018 N.ar    1  UNL1       -0.2175
      4 C           5.3970    1.6142   -1.1825 C.ar    1  UNL1        0.2207
      5 O           6.5833    1.3212   -1.7697 O.3     1  UNL1       -0.4380
      6 C           7.5741    0.5286   -1.2653 C.ar    1  UNL1        0.1304
      7 C           8.7123    0.3197   -2.0609 C.ar    1  UNL1       -0.0186
      8 C           9.7687   -0.4483   -1.6735 C.ar    1  UNL1       -0.0462
      9 C           9.7527   -1.0619   -0.4535 C.ar    1  UNL1        0.0367
     10 C          10.8944   -1.8860   -0.0479 C.2     1  UNL1        0.2415
     11 N          10.8685   -2.4980    1.2272 N.am    1  UNL1       -0.3253
     12 O          11.8763   -2.0478   -0.8127 O.2     1  UNL1       -0.2704
     13 C           8.6657   -0.8849    0.3507 C.ar    1  UNL1       -0.0462
     14 C           7.5806   -0.0990   -0.0414 C.ar    1  UNL1       -0.0186
     15 C           4.5188    2.4685   -1.8829 C.ar    1  UNL1        0.0007
     16 C           3.3122    2.8128   -1.3692 C.ar    1  UNL1       -0.0506
     17 C           2.9078    2.3293   -0.1316 C.ar    1  UNL1       -0.0121
     18 C           1.5678    2.6884    0.3959 C.3     1  UNL1        0.0257
     19 N           0.5314    1.7547    0.1511 N.3     1  UNL1       -0.2980
     20 C           0.6245    0.4435    0.6607 C.3     1  UNL1        0.0009
     21 C          -0.6929   -0.3347    0.3799 C.3     1  UNL1       -0.0213
     22 C          -1.6735    0.1636    1.3903 C.3     1  UNL1        0.0305
     23 N          -3.0543   -0.1168    1.0960 N.am    1  UNL1       -0.2738
     24 C          -3.8618    0.2353   -0.0162 C.2     1  UNL1        0.3059
     25 O          -3.3915    0.4672   -1.1536 O.2     1  UNL1       -0.2524
     26 N          -5.2297    0.2775    0.3697 N.am    1  UNL1       -0.2802
     27 C          -6.4165    0.4748   -0.3972 C.3     1  UNL1        0.0317
     28 C          -6.7379   -0.6112   -1.3879 C.3     1  UNL1       -0.0106
     29 C          -5.9791   -0.5024   -2.6610 C.3     1  UNL1        0.0493
     30 O          -5.7495    0.7756   -3.1118 O.3     1  UNL1       -0.3796
     31 C          -6.6400    1.7061   -2.5883 C.3     1  UNL1        0.0493
     32 C          -6.4935    1.8097   -1.0724 C.3     1  UNL1       -0.0106
     33 C          -5.1862    0.0707    1.8262 C.3     1  UNL1        0.0393
     34 C          -3.9902   -0.8594    1.9717 C.3     1  UNL1        0.0687
     35 C          -4.3367   -2.1771    1.4475 C.ar    1  UNL1       -0.0255
     36 C          -5.6006   -2.6847    1.5986 C.ar    1  UNL1       -0.0567
     37 C          -5.9840   -3.9404    1.1058 C.ar    1  UNL1       -0.0614
     38 C          -5.0716   -4.7191    0.4374 C.ar    1  UNL1       -0.0617
     39 C          -3.8066   -4.2168    0.2837 C.ar    1  UNL1       -0.0614
     40 C          -3.4386   -2.9848    0.7696 C.ar    1  UNL1       -0.0567
     41 C          -1.4341    1.6496    1.5938 C.3     1  UNL1       -0.0213
     42 C          -0.7945    2.3081    0.4042 C.3     1  UNL1        0.0009
     43 H           2.8083    1.6199    2.4199 H       1  UNL1        0.0293
     44 H           4.4412    0.9435    2.4977 H       1  UNL1        0.0293
     45 H           3.1806   -0.1234    1.8840 H       1  UNL1        0.0293
     46 H           8.7353    0.8001   -3.0274 H       1  UNL1        0.0654
     47 H          10.6349   -0.5741   -2.3455 H       1  UNL1        0.0626
     48 H          11.3942   -2.0724    2.0130 H       1  UNL1        0.1453
     49 H          10.3256   -3.3687    1.3757 H       1  UNL1        0.1453
     50 H           8.6424   -1.3708    1.3284 H       1  UNL1        0.0626
     51 H           6.7493    0.0055    0.6368 H       1  UNL1        0.0654
     52 H           4.8722    2.8274   -2.8513 H       1  UNL1        0.0671
     53 H           2.6426    3.4704   -1.9146 H       1  UNL1        0.0623
     54 H           1.2658    3.6454   -0.1169 H       1  UNL1        0.0476
     55 H           1.6402    2.9748    1.4825 H       1  UNL1        0.0476
     56 H           0.7275    0.3971    1.7691 H       1  UNL1        0.0427
     57 H           1.4479   -0.1464    0.2251 H       1  UNL1        0.0427
     58 H          -1.0099   -0.1569   -0.6652 H       1  UNL1        0.0295
     59 H          -0.4161   -1.4025    0.4782 H       1  UNL1        0.0295
     60 H          -1.4004   -0.3009    2.3737 H       1  UNL1        0.0502
     61 H          -7.3174    0.4532    0.3139 H       1  UNL1        0.0502
     62 H          -6.4644   -1.5965   -0.9160 H       1  UNL1        0.0305
     63 H          -7.8454   -0.5775   -1.5717 H       1  UNL1        0.0305
     64 H          -6.5854   -1.0965   -3.4255 H       1  UNL1        0.0560
     65 H          -5.0505   -1.1304   -2.5738 H       1  UNL1        0.0560
     66 H          -7.6827    1.5358   -2.8830 H       1  UNL1        0.0560
     67 H          -6.3413    2.6985   -2.9930 H       1  UNL1        0.0560
     68 H          -7.3561    2.4262   -0.7415 H       1  UNL1        0.0305
     69 H          -5.5920    2.4509   -0.8357 H       1  UNL1        0.0305
     70 H          -6.1074   -0.2642    2.2589 H       1  UNL1        0.0487
     71 H          -4.8440    1.0523    2.2886 H       1  UNL1        0.0487
     72 H          -3.5918   -0.8865    2.9983 H       1  UNL1        0.0567
     73 H          -6.3847   -2.1578    2.1133 H       1  UNL1        0.0621
     74 H          -6.9890   -4.3075    1.2441 H       1  UNL1        0.0618
     75 H          -5.3736   -5.6953    0.0558 H       1  UNL1        0.0618
     76 H          -3.0919   -4.8562   -0.2541 H       1  UNL1        0.0618
     77 H          -2.4473   -2.6076    0.6424 H       1  UNL1        0.0621
     78 H          -0.8936    1.8887    2.5094 H       1  UNL1        0.0295
     79 H          -2.4536    2.1202    1.6987 H       1  UNL1        0.0295
     80 H          -1.3934    2.2351   -0.5104 H       1  UNL1        0.0427
     81 H          -0.6470    3.3765    0.6641 H       1  UNL1        0.0427
@<TRIPOS>BOND
     1     1     2    1
     2     2     3   ar
     3     3     4   ar
     4     4     5    1
     5     5     6    1
     6     6     7   ar
     7     7     8   ar
     8     8     9   ar
     9     9    10    1
    10    10    11   am
    11    10    12    2
    12     9    13   ar
    13    13    14   ar
    14     4    15   ar
    15    15    16   ar
    16    16    17   ar
    17    17    18    1
    18    18    19    1
    19    19    20    1
    20    20    21    1
    21    21    22    1
    22    22    23    1
    23    23    24   am
    24    24    25    2
    25    24    26   am
    26    26    27    1
    27    27    28    1
    28    28    29    1
    29    29    30    1
    30    30    31    1
    31    31    32    1
    32    26    33    1
    33    33    34    1
    34    34    35    1
    35    35    36   ar
    36    36    37   ar
    37    37    38   ar
    38    38    39   ar
    39    39    40   ar
    40    22    41    1
    41    41    42    1
    42    17     2   ar
    43    42    19    1
    44    14     6   ar
    45    34    23    1
    46    40    35   ar
    47    32    27    1
    48     1    43    1
    49     1    44    1
    50     1    45    1
    51     7    46    1
    52     8    47    1
    53    11    48    1
    54    11    49    1
    55    13    50    1
    56    14    51    1
    57    15    52    1
    58    16    53    1
    59    18    54    1
    60    18    55    1
    61    20    56    1
    62    20    57    1
    63    21    58    1
    64    21    59    1
    65    22    60    1
    66    27    61    1
    67    28    62    1
    68    28    63    1
    69    29    64    1
    70    29    65    1
    71    31    66    1
    72    31    67    1
    73    32    68    1
    74    32    69    1
    75    33    70    1
    76    33    71    1
    77    34    72    1
    78    36    73    1
    79    37    74    1
    80    38    75    1
    81    39    76    1
    82    40    77    1
    83    41    78    1
    84    41    79    1
    85    42    80    1
    86    42    81    1
