@<TRIPOS>MOLECULE
*****
 71 72 0 0 0
SMALL
GASTEIGER

@<TRIPOS>ATOM
      1 C           6.8831    1.1238   -3.9253 C.3     1  UNL1        0.0790
      2 O           7.1084    0.2000   -2.8859 O.3     1  UNL1       -0.4915
      3 C           6.0593   -0.1340   -2.0290 C.ar    1  UNL1        0.1615
      4 C           4.7961    0.4058   -2.1587 C.ar    1  UNL1       -0.0160
      5 C           3.7618    0.0773   -1.3136 C.ar    1  UNL1       -0.0548
      6 C           3.9601   -0.8281   -0.2798 C.ar    1  UNL1       -0.0425
      7 C           2.8450   -1.2051    0.6602 C.3     1  UNL1       -0.0148
      8 C           2.8597   -0.2406    1.8001 C.3     1  UNL1        0.0026
      9 N           1.8376   -0.5503    2.7389 N.3     1  UNL1       -0.3050
     10 C           1.7858    0.3352    3.8702 C.3     1  UNL1       -0.0128
     11 C           0.5468   -0.8383    2.1953 C.3     1  UNL1       -0.0013
     12 C          -0.1192    0.4018    1.5606 C.3     1  UNL1       -0.0385
     13 C          -1.4516   -0.0873    1.0454 C.3     1  UNL1       -0.0290
     14 C          -2.3138    0.8851    0.3640 C.3     1  UNL1        0.0846
     15 C          -1.5205    1.3858   -0.8054 C.1     1  UNL1        0.0742
     16 N          -0.9208    1.7620   -1.7180 N.1     1  UNL1       -0.1956
     17 C          -3.4766    0.1388   -0.2284 C.ar    1  UNL1       -0.0236
     18 C          -3.6257   -1.2081   -0.0273 C.ar    1  UNL1       -0.0534
     19 C          -4.6774   -1.9219   -0.5637 C.ar    1  UNL1       -0.0160
     20 C          -5.6008   -1.2655   -1.3199 C.ar    1  UNL1        0.1615
     21 O          -6.6613   -1.9486   -1.8686 O.3     1  UNL1       -0.4915
     22 C          -6.7950   -3.3289   -1.6507 C.3     1  UNL1        0.0790
     23 C          -5.4946    0.0916   -1.5515 C.ar    1  UNL1        0.1618
     24 O          -6.4524    0.7594   -2.3321 O.3     1  UNL1       -0.4914
     25 C          -6.3133    2.1343   -2.5439 C.3     1  UNL1        0.0790
     26 C          -4.4381    0.7732   -1.0051 C.ar    1  UNL1       -0.0116
     27 C          -2.8549    2.0391    1.1018 C.3     1  UNL1       -0.0242
     28 C          -1.8503    2.9962    1.6946 C.3     1  UNL1       -0.0609
     29 C          -3.8853    1.6940    2.1455 C.3     1  UNL1       -0.0609
     30 C           5.2159   -1.3677   -0.1477 C.ar    1  UNL1       -0.0131
     31 C           6.2514   -1.0390   -0.9937 C.ar    1  UNL1        0.1617
     32 O           7.5127   -1.5850   -0.8564 O.3     1  UNL1       -0.4914
     33 C           7.7861   -2.5096    0.1684 C.3     1  UNL1        0.0790
     34 H           6.2140    0.7293   -4.7095 H       1  UNL1        0.0660
     35 H           6.3641    2.0019   -3.4498 H       1  UNL1        0.0660
     36 H           7.8288    1.5358   -4.3380 H       1  UNL1        0.0660
     37 H           4.5868    1.1246   -2.9573 H       1  UNL1        0.0655
     38 H           2.7711    0.4953   -1.4086 H       1  UNL1        0.0621
     39 H           2.9999   -2.2498    0.9767 H       1  UNL1        0.0326
     40 H           1.8868   -1.1498    0.1054 H       1  UNL1        0.0326
     41 H           3.8419   -0.3758    2.3342 H       1  UNL1        0.0430
     42 H           2.7690    0.7879    1.3967 H       1  UNL1        0.0430
     43 H           2.0998   -0.1522    4.8302 H       1  UNL1        0.0391
     44 H           2.4211    1.2259    3.6608 H       1  UNL1        0.0391
     45 H           0.7619    0.7074    4.0560 H       1  UNL1        0.0391
     46 H           0.5576   -1.6951    1.5275 H       1  UNL1        0.0426
     47 H          -0.0847   -1.1651    3.0776 H       1  UNL1        0.0426
     48 H           0.5628    0.7236    0.7518 H       1  UNL1        0.0278
     49 H          -0.1597    1.1859    2.3095 H       1  UNL1        0.0278
     50 H          -1.9727   -0.6600    1.8712 H       1  UNL1        0.0284
     51 H          -1.1825   -0.8817    0.2988 H       1  UNL1        0.0284
     52 H          -2.9227   -1.7526    0.5602 H       1  UNL1        0.0622
     53 H          -4.7616   -2.9675   -0.3872 H       1  UNL1        0.0655
     54 H          -5.8839   -3.8726   -2.0097 H       1  UNL1        0.0660
     55 H          -7.6841   -3.7515   -2.1304 H       1  UNL1        0.0660
     56 H          -6.8671   -3.5737   -0.5588 H       1  UNL1        0.0660
     57 H          -5.4533    2.3477   -3.2356 H       1  UNL1        0.0660
     58 H          -7.2578    2.5685   -2.9750 H       1  UNL1        0.0660
     59 H          -6.1101    2.7168   -1.6201 H       1  UNL1        0.0660
     60 H          -4.3315    1.8345   -1.1791 H       1  UNL1        0.0658
     61 H          -3.4261    2.6752    0.3584 H       1  UNL1        0.0314
     62 H          -2.2618    4.0629    1.6644 H       1  UNL1        0.0233
     63 H          -0.9094    3.0772    1.1416 H       1  UNL1        0.0233
     64 H          -1.7201    2.8528    2.8074 H       1  UNL1        0.0233
     65 H          -3.3700    1.7643    3.1432 H       1  UNL1        0.0233
     66 H          -4.2880    0.6895    2.0749 H       1  UNL1        0.0233
     67 H          -4.7282    2.4150    2.1939 H       1  UNL1        0.0233
     68 H           5.4033   -2.0783    0.6502 H       1  UNL1        0.0658
     69 H           7.2788   -3.4883   -0.0596 H       1  UNL1        0.0660
     70 H           8.8781   -2.6974    0.2414 H       1  UNL1        0.0660
     71 H           7.3915   -2.1561    1.1331 H       1  UNL1        0.0660
@<TRIPOS>BOND
     1     1     2    1
     2     2     3    1
     3     3     4   ar
     4     4     5   ar
     5     5     6   ar
     6     6     7    1
     7     7     8    1
     8     8     9    1
     9     9    10    1
    10     9    11    1
    11    11    12    1
    12    12    13    1
    13    13    14    1
    14    14    15    1
    15    15    16    3
    16    14    17    1
    17    17    18   ar
    18    18    19   ar
    19    19    20   ar
    20    20    21    1
    21    21    22    1
    22    20    23   ar
    23    23    24    1
    24    24    25    1
    25    23    26   ar
    26    14    27    1
    27    27    28    1
    28    27    29    1
    29     6    30   ar
    30    30    31   ar
    31    31    32    1
    32    32    33    1
    33    31     3   ar
    34    26    17   ar
    35     1    34    1
    36     1    35    1
    37     1    36    1
    38     4    37    1
    39     5    38    1
    40     7    39    1
    41     7    40    1
    42     8    41    1
    43     8    42    1
    44    10    43    1
    45    10    44    1
    46    10    45    1
    47    11    46    1
    48    11    47    1
    49    12    48    1
    50    12    49    1
    51    13    50    1
    52    13    51    1
    53    18    52    1
    54    19    53    1
    55    22    54    1
    56    22    55    1
    57    22    56    1
    58    25    57    1
    59    25    58    1
    60    25    59    1
    61    26    60    1
    62    27    61    1
    63    28    62    1
    64    28    63    1
    65    28    64    1
    66    29    65    1
    67    29    66    1
    68    29    67    1
    69    30    68    1
    70    33    69    1
    71    33    70    1
    72    33    71    1
