
     RDKit          3D

 71 72  0  0  0  0  0  0  0  0999 V2000
    6.8831    1.1238   -3.9253 C   0  0  0  0  0  0  0  0  0  0  0  0
    7.1084    0.2000   -2.8859 O   0  0  0  0  0  0  0  0  0  0  0  0
    6.0593   -0.1340   -2.0290 C   0  0  0  0  0  0  0  0  0  0  0  0
    4.7961    0.4058   -2.1587 C   0  0  0  0  0  0  0  0  0  0  0  0
    3.7618    0.0773   -1.3136 C   0  0  0  0  0  0  0  0  0  0  0  0
    3.9601   -0.8281   -0.2798 C   0  0  0  0  0  0  0  0  0  0  0  0
    2.8450   -1.2051    0.6602 C   0  0  0  0  0  0  0  0  0  0  0  0
    2.8597   -0.2406    1.8001 C   0  0  0  0  0  0  0  0  0  0  0  0
    1.8376   -0.5503    2.7389 N   0  0  0  0  0  0  0  0  0  0  0  0
    1.7858    0.3352    3.8702 C   0  0  0  0  0  0  0  0  0  0  0  0
    0.5468   -0.8383    2.1953 C   0  0  0  0  0  0  0  0  0  0  0  0
   -0.1192    0.4018    1.5606 C   0  0  0  0  0  0  0  0  0  0  0  0
   -1.4516   -0.0873    1.0454 C   0  0  0  0  0  0  0  0  0  0  0  0
   -2.3138    0.8851    0.3640 C   0  0  0  0  0  0  0  0  0  0  0  0
   -1.5205    1.3858   -0.8054 C   0  0  0  0  0  0  0  0  0  0  0  0
   -0.9208    1.7620   -1.7180 N   0  0  0  0  0  0  0  0  0  0  0  0
   -3.4766    0.1388   -0.2284 C   0  0  0  0  0  0  0  0  0  0  0  0
   -3.6257   -1.2081   -0.0273 C   0  0  0  0  0  0  0  0  0  0  0  0
   -4.6774   -1.9219   -0.5637 C   0  0  0  0  0  0  0  0  0  0  0  0
   -5.6008   -1.2655   -1.3199 C   0  0  0  0  0  0  0  0  0  0  0  0
   -6.6613   -1.9486   -1.8686 O   0  0  0  0  0  0  0  0  0  0  0  0
   -6.7950   -3.3289   -1.6507 C   0  0  0  0  0  0  0  0  0  0  0  0
   -5.4946    0.0916   -1.5515 C   0  0  0  0  0  0  0  0  0  0  0  0
   -6.4524    0.7594   -2.3321 O   0  0  0  0  0  0  0  0  0  0  0  0
   -6.3133    2.1343   -2.5439 C   0  0  0  0  0  0  0  0  0  0  0  0
   -4.4381    0.7732   -1.0051 C   0  0  0  0  0  0  0  0  0  0  0  0
   -2.8549    2.0391    1.1018 C   0  0  0  0  0  0  0  0  0  0  0  0
   -1.8503    2.9962    1.6946 C   0  0  0  0  0  0  0  0  0  0  0  0
   -3.8853    1.6940    2.1455 C   0  0  0  0  0  0  0  0  0  0  0  0
    5.2159   -1.3677   -0.1477 C   0  0  0  0  0  0  0  0  0  0  0  0
    6.2514   -1.0390   -0.9937 C   0  0  0  0  0  0  0  0  0  0  0  0
    7.5127   -1.5850   -0.8564 O   0  0  0  0  0  0  0  0  0  0  0  0
    7.7861   -2.5096    0.1684 C   0  0  0  0  0  0  0  0  0  0  0  0
    6.2140    0.7293   -4.7095 H   0  0  0  0  0  0  0  0  0  0  0  0
    6.3641    2.0019   -3.4498 H   0  0  0  0  0  0  0  0  0  0  0  0
    7.8288    1.5358   -4.3380 H   0  0  0  0  0  0  0  0  0  0  0  0
    4.5868    1.1246   -2.9573 H   0  0  0  0  0  0  0  0  0  0  0  0
    2.7711    0.4953   -1.4086 H   0  0  0  0  0  0  0  0  0  0  0  0
    2.9999   -2.2498    0.9767 H   0  0  0  0  0  0  0  0  0  0  0  0
    1.8868   -1.1498    0.1054 H   0  0  0  0  0  0  0  0  0  0  0  0
    3.8419   -0.3758    2.3342 H   0  0  0  0  0  0  0  0  0  0  0  0
    2.7690    0.7879    1.3967 H   0  0  0  0  0  0  0  0  0  0  0  0
    2.0998   -0.1522    4.8302 H   0  0  0  0  0  0  0  0  0  0  0  0
    2.4211    1.2259    3.6608 H   0  0  0  0  0  0  0  0  0  0  0  0
    0.7619    0.7074    4.0560 H   0  0  0  0  0  0  0  0  0  0  0  0
    0.5576   -1.6951    1.5275 H   0  0  0  0  0  0  0  0  0  0  0  0
   -0.0847   -1.1651    3.0776 H   0  0  0  0  0  0  0  0  0  0  0  0
    0.5628    0.7236    0.7518 H   0  0  0  0  0  0  0  0  0  0  0  0
   -0.1597    1.1859    2.3095 H   0  0  0  0  0  0  0  0  0  0  0  0
   -1.9727   -0.6600    1.8712 H   0  0  0  0  0  0  0  0  0  0  0  0
   -1.1825   -0.8817    0.2988 H   0  0  0  0  0  0  0  0  0  0  0  0
   -2.9227   -1.7526    0.5602 H   0  0  0  0  0  0  0  0  0  0  0  0
   -4.7616   -2.9675   -0.3872 H   0  0  0  0  0  0  0  0  0  0  0  0
   -5.8839   -3.8726   -2.0097 H   0  0  0  0  0  0  0  0  0  0  0  0
   -7.6841   -3.7515   -2.1304 H   0  0  0  0  0  0  0  0  0  0  0  0
   -6.8671   -3.5737   -0.5588 H   0  0  0  0  0  0  0  0  0  0  0  0
   -5.4533    2.3477   -3.2356 H   0  0  0  0  0  0  0  0  0  0  0  0
   -7.2578    2.5685   -2.9750 H   0  0  0  0  0  0  0  0  0  0  0  0
   -6.1101    2.7168   -1.6201 H   0  0  0  0  0  0  0  0  0  0  0  0
   -4.3315    1.8345   -1.1791 H   0  0  0  0  0  0  0  0  0  0  0  0
   -3.4261    2.6752    0.3584 H   0  0  0  0  0  0  0  0  0  0  0  0
   -2.2618    4.0629    1.6644 H   0  0  0  0  0  0  0  0  0  0  0  0
   -0.9094    3.0772    1.1416 H   0  0  0  0  0  0  0  0  0  0  0  0
   -1.7201    2.8528    2.8074 H   0  0  0  0  0  0  0  0  0  0  0  0
   -3.3700    1.7643    3.1432 H   0  0  0  0  0  0  0  0  0  0  0  0
   -4.2880    0.6895    2.0749 H   0  0  0  0  0  0  0  0  0  0  0  0
   -4.7282    2.4150    2.1939 H   0  0  0  0  0  0  0  0  0  0  0  0
    5.4033   -2.0783    0.6502 H   0  0  0  0  0  0  0  0  0  0  0  0
    7.2788   -3.4883   -0.0596 H   0  0  0  0  0  0  0  0  0  0  0  0
    8.8781   -2.6974    0.2414 H   0  0  0  0  0  0  0  0  0  0  0  0
    7.3915   -2.1561    1.1331 H   0  0  0  0  0  0  0  0  0  0  0  0
  1  2  1  0
  2  3  1  0
  3  4  2  0
  4  5  1  0
  5  6  2  0
  6  7  1  0
  7  8  1  0
  8  9  1  0
  9 10  1  0
  9 11  1  0
 11 12  1  0
 12 13  1  0
 13 14  1  0
 14 15  1  0
 15 16  3  0
 14 17  1  0
 17 18  2  0
 18 19  1  0
 19 20  2  0
 20 21  1  0
 21 22  1  0
 20 23  1  0
 23 24  1  0
 24 25  1  0
 23 26  2  0
 14 27  1  0
 27 28  1  0
 27 29  1  0
  6 30  1  0
 30 31  2  0
 31 32  1  0
 32 33  1  0
 31  3  1  0
 26 17  1  0
  1 34  1  0
  1 35  1  0
  1 36  1  0
  4 37  1  0
  5 38  1  0
  7 39  1  0
  7 40  1  0
  8 41  1  0
  8 42  1  0
 10 43  1  0
 10 44  1  0
 10 45  1  0
 11 46  1  0
 11 47  1  0
 12 48  1  0
 12 49  1  0
 13 50  1  0
 13 51  1  0
 18 52  1  0
 19 53  1  0
 22 54  1  0
 22 55  1  0
 22 56  1  0
 25 57  1  0
 25 58  1  0
 25 59  1  0
 26 60  1  0
 27 61  1  0
 28 62  1  0
 28 63  1  0
 28 64  1  0
 29 65  1  0
 29 66  1  0
 29 67  1  0
 30 68  1  0
 33 69  1  0
 33 70  1  0
 33 71  1  0
M  END
$$$$
