@<TRIPOS>MOLECULE
*****
 62 66 0 0 0
SMALL
GASTEIGER

@<TRIPOS>ATOM
      1 O          -0.1955    0.1529   -3.6649 O.2     1  UNL1       -0.2817
      2 C          -0.7513    0.4770   -2.5951 C.2     1  UNL1        0.2496
      3 C          -1.8844    1.3696   -2.4160 C.2     1  UNL1        0.2915
      4 O          -2.5204    1.9857   -3.3099 O.2     1  UNL1       -0.2661
      5 N          -2.1557    1.4250   -1.0061 N.am    1  UNL1       -0.2598
      6 C          -3.2226    2.2201   -0.4313 C.3     1  UNL1        0.0452
      7 C          -4.4910    1.4851   -0.3467 C.ar    1  UNL1       -0.0295
      8 C          -4.7871    0.7653    0.7703 C.ar    1  UNL1       -0.0536
      9 C          -6.0049    0.0821    0.8047 C.ar    1  UNL1       -0.0196
     10 C          -6.8933    0.1274   -0.2585 C.ar    1  UNL1        0.1206
     11 O          -8.0950   -0.5587   -0.2006 O.3     1  UNL1       -0.4894
     12 C          -8.4107   -1.3089    0.9557 C.3     1  UNL1        0.1177
     13 C          -9.7682   -1.9649    0.7826 C.3     1  UNL1        0.1241
     14 F         -10.6985   -0.9766    0.5949 F       1  UNL1       -0.2455
     15 C          -6.5398    0.8715   -1.3612 C.ar    1  UNL1       -0.0196
     16 C          -5.3568    1.5588   -1.4420 C.ar    1  UNL1       -0.0536
     17 C          -1.2236    0.5941   -0.3168 C.ar    1  UNL1        0.0481
     18 C          -1.0836    0.3271    1.0265 C.ar    1  UNL1       -0.0377
     19 C          -0.0747   -0.5300    1.4148 C.ar    1  UNL1       -0.0335
     20 C           0.7803   -1.1140    0.5059 C.ar    1  UNL1        0.1063
     21 S           2.0546   -2.1984    0.9865 S.O2    1  UNL1        0.0612
     22 O           2.3403   -3.1728   -0.0919 O.2     1  UNL1       -0.1528
     23 O           1.6541   -2.9550    2.2420 O.2     1  UNL1       -0.1528
     24 N           3.4676   -1.2921    1.3146 N.3     1  UNL1       -0.1702
     25 C           3.3001   -0.3244    2.4208 C.3     1  UNL1        0.0225
     26 C           4.3824    0.4760    1.6545 C.3     1  UNL1       -0.0180
     27 C           3.6318   -0.0758    0.4760 C.3     1  UNL1        0.0671
     28 C           4.3196   -0.3275   -0.8076 C.3     1  UNL1        0.1067
     29 O           5.5937   -0.7617   -0.8441 O.3     1  UNL1       -0.4904
     30 C           6.8113   -0.2308   -0.5275 C.ar    1  UNL1        0.1206
     31 C           7.9489   -1.0681   -0.6651 C.ar    1  UNL1       -0.0199
     32 C           9.1822   -0.5642   -0.3616 C.ar    1  UNL1       -0.0583
     33 C           9.3691    0.7361    0.0770 C.ar    1  UNL1       -0.0615
     34 C           8.2728    1.5494    0.2111 C.ar    1  UNL1       -0.0583
     35 C           7.0203    1.0587   -0.0911 C.ar    1  UNL1       -0.0199
     36 C           0.6162   -0.8285   -0.8284 C.ar    1  UNL1       -0.0226
     37 C          -0.3867    0.0296   -1.2677 C.ar    1  UNL1        0.0502
     38 H          -2.8933    2.4648    0.6112 H       1  UNL1        0.0518
     39 H          -3.3238    3.1787   -0.9896 H       1  UNL1        0.0518
     40 H          -4.1511    0.6816    1.6361 H       1  UNL1        0.0622
     41 H          -6.2364   -0.4898    1.6962 H       1  UNL1        0.0654
     42 H          -8.4423   -0.6374    1.8335 H       1  UNL1        0.0723
     43 H          -7.6281   -2.0770    1.1241 H       1  UNL1        0.0723
     44 H          -9.9716   -2.5926    1.6833 H       1  UNL1        0.0649
     45 H          -9.7246   -2.6627   -0.0709 H       1  UNL1        0.0649
     46 H          -7.2246    0.9139   -2.1957 H       1  UNL1        0.0654
     47 H          -5.0670    2.1422   -2.2918 H       1  UNL1        0.0622
     48 H          -1.7661    0.8001    1.7085 H       1  UNL1        0.0637
     49 H           0.0553   -0.7559    2.4695 H       1  UNL1        0.0638
     50 H           3.6170   -0.6845    3.3966 H       1  UNL1        0.0444
     51 H           2.3545    0.2458    2.3528 H       1  UNL1        0.0444
     52 H           5.3384   -0.0467    1.8849 H       1  UNL1        0.0295
     53 H           4.3451    1.5496    1.8224 H       1  UNL1        0.0295
     54 H           2.6672    0.4510    0.3171 H       1  UNL1        0.0514
     55 H           3.6276   -1.0180   -1.3958 H       1  UNL1        0.0713
     56 H           4.2608    0.6489   -1.3849 H       1  UNL1        0.0713
     57 H           7.7846   -2.0826   -1.0095 H       1  UNL1        0.0654
     58 H          10.0490   -1.2302   -0.4754 H       1  UNL1        0.0619
     59 H          10.3574    1.1053    0.3097 H       1  UNL1        0.0618
     60 H           8.3692    2.5770    0.5518 H       1  UNL1        0.0619
     61 H           6.1471    1.7357   -0.0065 H       1  UNL1        0.0654
     62 H           1.2542   -1.2563   -1.5886 H       1  UNL1        0.0645
@<TRIPOS>BOND
     1     1     2    2
     2     2     3    1
     3     3     4    2
     4     3     5   am
     5     5     6    1
     6     6     7    1
     7     7     8   ar
     8     8     9   ar
     9     9    10   ar
    10    10    11    1
    11    11    12    1
    12    12    13    1
    13    13    14    1
    14    10    15   ar
    15    15    16   ar
    16     5    17    1
    17    17    18   ar
    18    18    19   ar
    19    19    20   ar
    20    20    21    1
    21    21    22    2
    22    21    23    2
    23    21    24    1
    24    24    25    1
    25    25    26    1
    26    26    27    1
    27    27    28    1
    28    28    29    1
    29    29    30    1
    30    30    31   ar
    31    31    32   ar
    32    32    33   ar
    33    33    34   ar
    34    34    35   ar
    35    20    36   ar
    36    36    37   ar
    37    37     2    1
    38    16     7   ar
    39    37    17   ar
    40    27    24    1
    41    35    30   ar
    42     6    38    1
    43     6    39    1
    44     8    40    1
    45     9    41    1
    46    12    42    1
    47    12    43    1
    48    13    44    1
    49    13    45    1
    50    15    46    1
    51    16    47    1
    52    18    48    1
    53    19    49    1
    54    25    50    1
    55    25    51    1
    56    26    52    1
    57    26    53    1
    58    27    54    1
    59    28    55    1
    60    28    56    1
    61    31    57    1
    62    32    58    1
    63    33    59    1
    64    34    60    1
    65    35    61    1
    66    36    62    1
