
     RDKit          3D

 62 66  0  0  0  0  0  0  0  0999 V2000
   -0.1955    0.1529   -3.6649 O   0  0  0  0  0  0  0  0  0  0  0  0
   -0.7513    0.4770   -2.5951 C   0  0  0  0  0  0  0  0  0  0  0  0
   -1.8844    1.3696   -2.4160 C   0  0  0  0  0  0  0  0  0  0  0  0
   -2.5204    1.9857   -3.3099 O   0  0  0  0  0  0  0  0  0  0  0  0
   -2.1557    1.4250   -1.0061 N   0  0  0  0  0  0  0  0  0  0  0  0
   -3.2226    2.2201   -0.4313 C   0  0  0  0  0  0  0  0  0  0  0  0
   -4.4910    1.4851   -0.3467 C   0  0  0  0  0  0  0  0  0  0  0  0
   -4.7871    0.7653    0.7703 C   0  0  0  0  0  0  0  0  0  0  0  0
   -6.0049    0.0821    0.8047 C   0  0  0  0  0  0  0  0  0  0  0  0
   -6.8933    0.1274   -0.2585 C   0  0  0  0  0  0  0  0  0  0  0  0
   -8.0950   -0.5587   -0.2006 O   0  0  0  0  0  0  0  0  0  0  0  0
   -8.4107   -1.3089    0.9557 C   0  0  0  0  0  0  0  0  0  0  0  0
   -9.7682   -1.9649    0.7826 C   0  0  0  0  0  0  0  0  0  0  0  0
  -10.6985   -0.9766    0.5949 F   0  0  0  0  0  0  0  0  0  0  0  0
   -6.5398    0.8715   -1.3612 C   0  0  0  0  0  0  0  0  0  0  0  0
   -5.3568    1.5588   -1.4420 C   0  0  0  0  0  0  0  0  0  0  0  0
   -1.2236    0.5941   -0.3168 C   0  0  0  0  0  0  0  0  0  0  0  0
   -1.0836    0.3271    1.0265 C   0  0  0  0  0  0  0  0  0  0  0  0
   -0.0747   -0.5300    1.4148 C   0  0  0  0  0  0  0  0  0  0  0  0
    0.7803   -1.1140    0.5059 C   0  0  0  0  0  0  0  0  0  0  0  0
    2.0546   -2.1984    0.9865 S   0  0  0  0  0  6  0  0  0  0  0  0
    2.3403   -3.1728   -0.0919 O   0  0  0  0  0  0  0  0  0  0  0  0
    1.6541   -2.9550    2.2420 O   0  0  0  0  0  0  0  0  0  0  0  0
    3.4676   -1.2921    1.3146 N   0  0  0  0  0  0  0  0  0  0  0  0
    3.3001   -0.3244    2.4208 C   0  0  0  0  0  0  0  0  0  0  0  0
    4.3824    0.4760    1.6545 C   0  0  0  0  0  0  0  0  0  0  0  0
    3.6318   -0.0758    0.4760 C   0  0  1  0  0  0  0  0  0  0  0  0
    4.3196   -0.3275   -0.8076 C   0  0  0  0  0  0  0  0  0  0  0  0
    5.5937   -0.7617   -0.8441 O   0  0  0  0  0  0  0  0  0  0  0  0
    6.8113   -0.2308   -0.5275 C   0  0  0  0  0  0  0  0  0  0  0  0
    7.9489   -1.0681   -0.6651 C   0  0  0  0  0  0  0  0  0  0  0  0
    9.1822   -0.5642   -0.3616 C   0  0  0  0  0  0  0  0  0  0  0  0
    9.3691    0.7361    0.0770 C   0  0  0  0  0  0  0  0  0  0  0  0
    8.2728    1.5494    0.2111 C   0  0  0  0  0  0  0  0  0  0  0  0
    7.0203    1.0587   -0.0911 C   0  0  0  0  0  0  0  0  0  0  0  0
    0.6162   -0.8285   -0.8284 C   0  0  0  0  0  0  0  0  0  0  0  0
   -0.3867    0.0296   -1.2677 C   0  0  0  0  0  0  0  0  0  0  0  0
   -2.8933    2.4648    0.6112 H   0  0  0  0  0  0  0  0  0  0  0  0
   -3.3238    3.1787   -0.9896 H   0  0  0  0  0  0  0  0  0  0  0  0
   -4.1511    0.6816    1.6361 H   0  0  0  0  0  0  0  0  0  0  0  0
   -6.2364   -0.4898    1.6962 H   0  0  0  0  0  0  0  0  0  0  0  0
   -8.4423   -0.6374    1.8335 H   0  0  0  0  0  0  0  0  0  0  0  0
   -7.6281   -2.0770    1.1241 H   0  0  0  0  0  0  0  0  0  0  0  0
   -9.9716   -2.5926    1.6833 H   0  0  0  0  0  0  0  0  0  0  0  0
   -9.7246   -2.6627   -0.0709 H   0  0  0  0  0  0  0  0  0  0  0  0
   -7.2246    0.9139   -2.1957 H   0  0  0  0  0  0  0  0  0  0  0  0
   -5.0670    2.1422   -2.2918 H   0  0  0  0  0  0  0  0  0  0  0  0
   -1.7661    0.8001    1.7085 H   0  0  0  0  0  0  0  0  0  0  0  0
    0.0553   -0.7559    2.4695 H   0  0  0  0  0  0  0  0  0  0  0  0
    3.6170   -0.6845    3.3966 H   0  0  0  0  0  0  0  0  0  0  0  0
    2.3545    0.2458    2.3528 H   0  0  0  0  0  0  0  0  0  0  0  0
    5.3384   -0.0467    1.8849 H   0  0  0  0  0  0  0  0  0  0  0  0
    4.3451    1.5496    1.8224 H   0  0  0  0  0  0  0  0  0  0  0  0
    2.6672    0.4510    0.3171 H   0  0  0  0  0  0  0  0  0  0  0  0
    3.6276   -1.0180   -1.3958 H   0  0  0  0  0  0  0  0  0  0  0  0
    4.2608    0.6489   -1.3849 H   0  0  0  0  0  0  0  0  0  0  0  0
    7.7846   -2.0826   -1.0095 H   0  0  0  0  0  0  0  0  0  0  0  0
   10.0490   -1.2302   -0.4754 H   0  0  0  0  0  0  0  0  0  0  0  0
   10.3574    1.1053    0.3097 H   0  0  0  0  0  0  0  0  0  0  0  0
    8.3692    2.5770    0.5518 H   0  0  0  0  0  0  0  0  0  0  0  0
    6.1471    1.7357   -0.0065 H   0  0  0  0  0  0  0  0  0  0  0  0
    1.2542   -1.2563   -1.5886 H   0  0  0  0  0  0  0  0  0  0  0  0
  1  2  2  0
  2  3  1  0
  3  4  2  0
  3  5  1  0
  5  6  1  0
  6  7  1  0
  7  8  2  0
  8  9  1  0
  9 10  2  0
 10 11  1  0
 11 12  1  0
 12 13  1  0
 13 14  1  0
 10 15  1  0
 15 16  2  0
  5 17  1  0
 17 18  2  0
 18 19  1  0
 19 20  2  0
 20 21  1  0
 21 22  2  0
 21 23  2  0
 21 24  1  0
 24 25  1  0
 25 26  1  0
 26 27  1  0
 27 28  1  0
 28 29  1  0
 29 30  1  0
 30 31  2  0
 31 32  1  0
 32 33  2  0
 33 34  1  0
 34 35  2  0
 20 36  1  0
 36 37  2  0
 37  2  1  0
 16  7  1  0
 37 17  1  0
 27 24  1  0
 35 30  1  0
  6 38  1  0
  6 39  1  0
  8 40  1  0
  9 41  1  0
 12 42  1  0
 12 43  1  0
 13 44  1  0
 13 45  1  0
 15 46  1  0
 16 47  1  0
 18 48  1  0
 19 49  1  0
 25 50  1  0
 25 51  1  0
 26 52  1  0
 26 53  1  0
 27 54  1  6
 28 55  1  0
 28 56  1  0
 31 57  1  0
 32 58  1  0
 33 59  1  0
 34 60  1  0
 35 61  1  0
 36 62  1  0
M  END
$$$$
