@<TRIPOS>MOLECULE
*****
 55 58 0 0 0
SMALL
GASTEIGER

@<TRIPOS>ATOM
      1 C           3.9772    2.0019    0.4341 C.3     1  UNL1        0.0788
      2 O           3.3301    0.7564    0.3830 O.3     1  UNL1       -0.4944
      3 C           3.9793   -0.4525    0.3897 C.ar    1  UNL1        0.1322
      4 C           5.3835   -0.3942    0.4519 C.ar    1  UNL1       -0.0192
      5 C           6.0784   -1.5523    0.4617 C.ar    1  UNL1       -0.0583
      6 C           5.4196   -2.7602    0.4115 C.ar    1  UNL1       -0.0608
      7 C           4.0551   -2.8351    0.3506 C.ar    1  UNL1       -0.0461
      8 C           3.2992   -1.6389    0.3388 C.ar    1  UNL1        0.0786
      9 C           1.8479   -1.7375    0.2718 C.2     1  UNL1        0.2518
     10 O           1.3677   -2.9255    0.2324 O.2     1  UNL1       -0.2697
     11 N           0.9172   -0.7004    0.2455 N.am    1  UNL1       -0.2798
     12 C          -0.5007   -0.8026    0.1864 C.ar    1  UNL1        0.0570
     13 C          -1.1425   -2.0052    0.2907 C.ar    1  UNL1       -0.0130
     14 C          -2.5423   -2.0280    0.2174 C.ar    1  UNL1        0.0714
     15 C          -3.2309   -0.8463    0.0436 C.ar    1  UNL1        0.0714
     16 C          -2.5873    0.3636   -0.0614 C.ar    1  UNL1       -0.0132
     17 C          -1.2100    0.3917    0.0095 C.ar    1  UNL1        0.0533
     18 N          -0.5073    1.6330   -0.1177 N.pl3   1  UNL1       -0.3284
     19 C           0.3756    1.9598   -1.2157 C.3     1  UNL1        0.0122
     20 C          -0.2906    3.0494   -2.0549 C.3     1  UNL1       -0.0372
     21 C          -1.1730    3.9104   -1.1582 C.3     1  UNL1       -0.0502
     22 C          -0.5788    4.0335    0.2288 C.3     1  UNL1       -0.0372
     23 C          -0.6736    2.6659    0.8927 C.3     1  UNL1        0.0122
     24 N          -4.5458   -1.2122    0.0146 N.ar    1  UNL1       -0.2950
     25 C          -5.6145   -0.2403   -0.1555 C.3     1  UNL1        0.0167
     26 C          -4.6268   -2.5378    0.1632 C.ar    1  UNL1        0.3297
     27 O          -5.6986   -3.1973    0.1812 O.2     1  UNL1       -0.2463
     28 N          -3.4040   -3.0800    0.2920 N.ar    1  UNL1       -0.2950
     29 C          -3.0691   -4.4790    0.4716 C.3     1  UNL1        0.0167
     30 H           3.2282    2.8128    0.6060 H       1  UNL1        0.0660
     31 H           4.7244    2.0359    1.2712 H       1  UNL1        0.0660
     32 H           4.4619    2.2310   -0.5346 H       1  UNL1        0.0660
     33 H           5.8741    0.5487    0.4898 H       1  UNL1        0.0654
     34 H           7.1715   -1.6154    0.5083 H       1  UNL1        0.0619
     35 H           5.9641   -3.6998    0.4186 H       1  UNL1        0.0618
     36 H           3.5226   -3.7881    0.3105 H       1  UNL1        0.0626
     37 H           1.3249    0.2773    0.2854 H       1  UNL1        0.1552
     38 H          -0.6745   -2.9636    0.4354 H       1  UNL1        0.0658
     39 H          -3.1897    1.2464   -0.1958 H       1  UNL1        0.0658
     40 H           1.3167    2.3731   -0.7692 H       1  UNL1        0.0464
     41 H           0.5062    1.0790   -1.8396 H       1  UNL1        0.0464
     42 H           0.5052    3.6351   -2.5229 H       1  UNL1        0.0280
     43 H          -0.8852    2.5544   -2.8298 H       1  UNL1        0.0280
     44 H          -1.2841    4.8903   -1.6613 H       1  UNL1        0.0266
     45 H          -2.1721    3.4362   -1.1235 H       1  UNL1        0.0266
     46 H           0.4687    4.3525    0.1782 H       1  UNL1        0.0280
     47 H          -1.1747    4.7311    0.8302 H       1  UNL1        0.0280
     48 H           0.0853    2.6050    1.6940 H       1  UNL1        0.0464
     49 H          -1.6904    2.6022    1.3596 H       1  UNL1        0.0464
     50 H          -6.5224   -0.6849    0.3007 H       1  UNL1        0.0457
     51 H          -5.8474   -0.0906   -1.2426 H       1  UNL1        0.0457
     52 H          -5.3863    0.7403    0.2567 H       1  UNL1        0.0457
     53 H          -2.1678   -4.6292    1.0915 H       1  UNL1        0.0457
     54 H          -3.9013   -5.0207    0.9717 H       1  UNL1        0.0457
     55 H          -2.8930   -4.9993   -0.4880 H       1  UNL1        0.0457
@<TRIPOS>BOND
     1     1     2    1
     2     2     3    1
     3     3     4   ar
     4     4     5   ar
     5     5     6   ar
     6     6     7   ar
     7     7     8   ar
     8     8     9    1
     9     9    10    2
    10     9    11   am
    11    11    12    1
    12    12    13   ar
    13    13    14   ar
    14    14    15   ar
    15    15    16   ar
    16    16    17   ar
    17    17    18    1
    18    18    19    1
    19    19    20    1
    20    20    21    1
    21    21    22    1
    22    22    23    1
    23    15    24   ar
    24    24    25    1
    25    24    26   ar
    26    26    27    2
    27    26    28   ar
    28    28    29    1
    29     8     3   ar
    30    17    12   ar
    31    23    18    1
    32    28    14   ar
    33     1    30    1
    34     1    31    1
    35     1    32    1
    36     4    33    1
    37     5    34    1
    38     6    35    1
    39     7    36    1
    40    11    37    1
    41    13    38    1
    42    16    39    1
    43    19    40    1
    44    19    41    1
    45    20    42    1
    46    20    43    1
    47    21    44    1
    48    21    45    1
    49    22    46    1
    50    22    47    1
    51    23    48    1
    52    23    49    1
    53    25    50    1
    54    25    51    1
    55    25    52    1
    56    29    53    1
    57    29    54    1
    58    29    55    1
