@<TRIPOS>MOLECULE
*****
 33 35 0 0 0
SMALL
GASTEIGER

@<TRIPOS>ATOM
      1 CL         -4.0134    3.0918   -1.4277 Cl      1  UNL1       -0.0835
      2 C          -3.9116    1.5342   -0.6338 C.ar    1  UNL1        0.0413
      3 C          -4.6182    1.2938    0.5006 C.ar    1  UNL1       -0.0434
      4 C          -4.5082    0.0541    1.0918 C.ar    1  UNL1       -0.0600
      5 C          -3.6874   -0.8726    0.4995 C.ar    1  UNL1       -0.0553
      6 C          -2.9387   -0.6702   -0.6704 C.ar    1  UNL1       -0.0090
      7 C          -2.1365   -1.8277   -1.1258 C.3     1  UNL1        0.1147
      8 O          -0.9229   -1.8626   -0.4976 O.3     1  UNL1       -0.4873
      9 C           0.1424   -1.0541   -0.4217 C.ar    1  UNL1        0.1245
     10 C           0.5085    0.1580   -0.9311 C.ar    1  UNL1       -0.0191
     11 C           1.6992    0.8032   -0.6966 C.ar    1  UNL1       -0.0470
     12 C           2.6053    0.1738    0.1242 C.ar    1  UNL1        0.0280
     13 C           2.3297   -1.0529    0.6876 C.ar    1  UNL1        0.1432
     14 O           3.2668   -1.5563    1.4518 O.2     1  UNL1       -0.4220
     15 C           4.3989   -0.9716    1.6912 C.ar    1  UNL1        0.3379
     16 O           5.2576   -1.5235    2.4434 O.2     1  UNL1       -0.2452
     17 C           4.7460    0.2720    1.1543 C.ar    1  UNL1        0.0338
     18 C           3.7906    0.8435    0.3417 C.ar    1  UNL1        0.0316
     19 C           4.1349    2.1349   -0.2239 C.2     1  UNL1        0.1511
     20 O           5.1986    2.7405   -0.0313 O.2     1  UNL1       -0.2957
     21 C           1.0983   -1.6596    0.4106 C.ar    1  UNL1        0.0231
     22 C          -3.0939    0.5881   -1.2103 C.ar    1  UNL1       -0.0370
     23 H          -5.2582    2.0251    0.9573 H       1  UNL1        0.0632
     24 H          -5.0545   -0.1497    1.9792 H       1  UNL1        0.0618
     25 H          -3.6453   -1.8407    1.0226 H       1  UNL1        0.0621
     26 H          -2.7149   -2.7678   -0.8611 H       1  UNL1        0.0748
     27 H          -2.0890   -1.8814   -2.2408 H       1  UNL1        0.0748
     28 H          -0.2375    0.5757   -1.5551 H       1  UNL1        0.0654
     29 H           1.8494    1.7615   -1.1699 H       1  UNL1        0.0626
     30 H           5.6944    0.7376    1.3686 H       1  UNL1        0.0696
     31 H           3.5832    2.7919   -0.8806 H       1  UNL1        0.1082
     32 H           1.0481   -2.6259    0.9391 H       1  UNL1        0.0691
     33 H          -2.5218    0.7369   -2.1148 H       1  UNL1        0.0636
@<TRIPOS>BOND
     1     1     2    1
     2     2     3   ar
     3     3     4   ar
     4     4     5   ar
     5     5     6   ar
     6     6     7    1
     7     7     8    1
     8     8     9    1
     9     9    10   ar
    10    10    11   ar
    11    11    12   ar
    12    12    13   ar
    13    13    14   ar
    14    14    15   ar
    15    15    16    2
    16    15    17   ar
    17    17    18   ar
    18    18    19    1
    19    19    20    2
    20    13    21   ar
    21     6    22   ar
    22    22     2   ar
    23    21     9   ar
    24    18    12   ar
    25     3    23    1
    26     4    24    1
    27     5    25    1
    28     7    26    1
    29     7    27    1
    30    10    28    1
    31    11    29    1
    32    17    30    1
    33    19    31    1
    34    21    32    1
    35    22    33    1
