@<TRIPOS>MOLECULE
*****
 47 50 0 0 0
SMALL
GASTEIGER

@<TRIPOS>ATOM
      1 O          -6.4413   -1.7325    1.0331 O.2     1  UNL1       -0.2655
      2 C          -5.2491   -1.4440    0.6758 C.ar    1  UNL1        0.2761
      3 N          -4.2356   -1.8642    1.4439 N.ar    1  UNL1       -0.3009
      4 C          -2.9563   -1.5452    1.0478 C.ar    1  UNL1        0.1614
      5 S          -1.8157   -2.1116    2.0988 S.2     1  UNL1       -0.0128
      6 N          -2.6705   -0.8541   -0.0375 N.ar    1  UNL1       -0.3149
      7 C          -1.3493   -0.5557   -0.4957 C.3     1  UNL1        0.0510
      8 C          -0.6591    0.5699    0.1405 C.ar    1  UNL1       -0.0233
      9 C          -1.2684    1.8289    0.0765 C.ar    1  UNL1       -0.0566
     10 C          -0.7229    2.8676    0.7980 C.ar    1  UNL1       -0.0614
     11 C           0.4080    2.7208    1.5894 C.ar    1  UNL1       -0.0614
     12 C           0.9773    1.4709    1.6234 C.ar    1  UNL1       -0.0570
     13 C           0.4644    0.3783    0.9057 C.ar    1  UNL1       -0.0287
     14 C           1.2046   -0.8855    0.8739 C.3     1  UNL1        0.0218
     15 N           2.0328   -0.9861   -0.3336 N.3     1  UNL1       -0.3093
     16 C           3.0931    0.0253   -0.3476 C.3     1  UNL1        0.0079
     17 C           3.7932   -0.0666   -1.6480 C.3     1  UNL1       -0.0375
     18 C           5.2477   -0.2280   -1.3773 C.3     1  UNL1       -0.0516
     19 C           5.4435    0.0736    0.0934 C.3     1  UNL1       -0.0516
     20 C           4.1023   -0.2172    0.7106 C.3     1  UNL1       -0.0375
     21 C          -3.7116   -0.4230   -0.8272 C.ar    1  UNL1        0.0743
     22 C          -3.7343    0.3015   -2.0297 C.ar    1  UNL1       -0.0200
     23 C          -5.0673    0.4150   -2.3510 C.ar    1  UNL1        0.0043
     24 N          -5.8125   -0.1968   -1.4134 N.ar    1  UNL1       -0.3553
     25 C          -4.9856   -0.7227   -0.4610 C.ar    1  UNL1        0.1283
     26 H          -4.3944   -2.4139    2.3144 H       1  UNL1        0.1709
     27 H          -1.3878   -0.3352   -1.5927 H       1  UNL1        0.0542
     28 H          -0.6885   -1.4876   -0.4627 H       1  UNL1        0.0542
     29 H          -2.1429    1.9861   -0.5214 H       1  UNL1        0.0621
     30 H          -1.1945    3.8404    0.7492 H       1  UNL1        0.0618
     31 H           0.8108    3.5587    2.1477 H       1  UNL1        0.0618
     32 H           1.8673    1.3042    2.2293 H       1  UNL1        0.0621
     33 H           1.9644   -0.8627    1.7161 H       1  UNL1        0.0474
     34 H           0.6606   -1.8132    1.0189 H       1  UNL1        0.0474
     35 H           2.5318   -1.9056   -0.2765 H       1  UNL1        0.1225
     36 H           2.6039    1.0121   -0.1681 H       1  UNL1        0.0460
     37 H           3.5632    0.8569   -2.2387 H       1  UNL1        0.0280
     38 H           3.4052   -0.9586   -2.2127 H       1  UNL1        0.0280
     39 H           5.8163    0.5246   -1.9629 H       1  UNL1        0.0266
     40 H           5.6209   -1.2625   -1.5552 H       1  UNL1        0.0266
     41 H           6.2474   -0.5545    0.5395 H       1  UNL1        0.0266
     42 H           5.7220    1.1374    0.2434 H       1  UNL1        0.0266
     43 H           4.0741   -1.2481    1.1278 H       1  UNL1        0.0280
     44 H           4.0048    0.4966    1.5676 H       1  UNL1        0.0280
     45 H          -2.8808    0.6649   -2.5446 H       1  UNL1        0.0653
     46 H          -5.4508    0.9259   -3.2361 H       1  UNL1        0.0807
     47 H          -6.8406   -0.2844   -1.3700 H       1  UNL1        0.1655
@<TRIPOS>BOND
     1     1     2    2
     2     2     3   ar
     3     3     4   ar
     4     4     5    2
     5     4     6   ar
     6     6     7    1
     7     7     8    1
     8     8     9   ar
     9     9    10   ar
    10    10    11   ar
    11    11    12   ar
    12    12    13   ar
    13    13    14    1
    14    14    15    1
    15    15    16    1
    16    16    17    1
    17    17    18    1
    18    18    19    1
    19    19    20    1
    20     6    21   ar
    21    21    22   ar
    22    22    23   ar
    23    23    24   ar
    24    24    25   ar
    25    25     2   ar
    26    13     8   ar
    27    20    16    1
    28    25    21   ar
    29     3    26    1
    30     7    27    1
    31     7    28    1
    32     9    29    1
    33    10    30    1
    34    11    31    1
    35    12    32    1
    36    14    33    1
    37    14    34    1
    38    15    35    1
    39    16    36    1
    40    17    37    1
    41    17    38    1
    42    18    39    1
    43    18    40    1
    44    19    41    1
    45    19    42    1
    46    20    43    1
    47    20    44    1
    48    22    45    1
    49    23    46    1
    50    24    47    1
