
     RDKit          3D

 80 86  0  0  0  0  0  0  0  0999 V2000
   -5.9164    2.4404   -5.1868 C   0  0  0  0  0  0  0  0  0  0  0  0
   -5.9705    1.8036   -3.8403 C   0  0  0  0  0  0  0  0  0  0  0  0
   -6.1185    0.4417   -3.6775 C   0  0  0  0  0  0  0  0  0  0  0  0
   -6.1666   -0.1327   -2.4122 C   0  0  0  0  0  0  0  0  0  0  0  0
   -6.0686    0.6341   -1.2682 C   0  0  0  0  0  0  0  0  0  0  0  0
   -6.1198    0.0272    0.0187 N   0  0  0  0  0  0  0  0  0  0  0  0
   -7.0698   -0.8101    0.4464 N   0  0  0  0  0  0  0  0  0  0  0  0
   -6.8171   -1.1983    1.7061 C   0  0  0  0  0  0  0  0  0  0  0  0
   -7.6471   -2.1210    2.5095 C   0  0  0  0  0  0  0  0  0  0  0  0
   -8.6866   -1.3160    3.2749 C   0  0  0  0  0  0  0  0  0  0  0  0
   -6.8187   -2.9575    3.4537 C   0  0  0  0  0  0  0  0  0  0  0  0
   -8.4021   -3.0405    1.5744 C   0  0  0  0  0  0  0  0  0  0  0  0
   -5.6381   -0.5568    2.0690 C   0  0  0  0  0  0  0  0  0  0  0  0
   -5.2313    0.1998    0.9911 C   0  0  0  0  0  0  0  0  0  0  0  0
   -4.0823    1.0188    0.9086 N   0  0  0  0  0  0  0  0  0  0  0  0
   -2.8338    0.4669    0.4310 C   0  0  0  0  0  0  0  0  0  0  0  0
   -2.8463   -0.7281    0.1137 O   0  0  0  0  0  0  0  0  0  0  0  0
   -1.6682    1.2683    0.3381 N   0  0  0  0  0  0  0  0  0  0  0  0
   -0.3958    0.8197   -0.1062 C   0  0  0  0  0  0  0  0  0  0  0  0
   -0.1066   -0.5064   -0.3284 C   0  0  0  0  0  0  0  0  0  0  0  0
    1.1304   -0.9192   -0.7844 C   0  0  0  0  0  0  0  0  0  0  0  0
    2.1399   -0.0209   -1.0397 C   0  0  0  0  0  0  0  0  0  0  0  0
    3.3775   -0.4485   -1.4963 O   0  0  0  0  0  0  0  0  0  0  0  0
    4.5470   -0.3611   -0.7341 C   0  0  0  0  0  0  0  0  0  0  0  0
    4.4448    0.0911    0.5589 C   0  0  0  0  0  0  0  0  0  0  0  0
    5.5924    0.1761    1.3194 C   0  0  0  0  0  0  0  0  0  0  0  0
    6.7400   -0.1875    0.7535 N   0  0  0  0  0  0  0  0  0  0  0  0
    6.8476   -0.6273   -0.4996 C   0  0  0  0  0  0  0  0  0  0  0  0
    8.1054   -0.9926   -1.0238 N   0  0  0  0  0  0  0  0  0  0  0  0
    9.3557   -0.9748   -0.4009 C   0  0  0  0  0  0  0  0  0  0  0  0
   10.4905   -1.3630   -1.1382 C   0  0  0  0  0  0  0  0  0  0  0  0
   11.7396   -1.3758   -0.6097 C   0  0  0  0  0  0  0  0  0  0  0  0
   11.9580   -1.0032    0.6945 C   0  0  0  0  0  0  0  0  0  0  0  0
   13.0546   -0.9157    1.4777 N   0  0  0  0  0  0  0  0  0  0  0  0
   12.6787   -0.4940    2.6695 N   0  0  0  0  0  0  0  0  0  0  0  0
   11.3404   -0.2981    2.6920 C   0  0  0  0  0  0  0  0  0  0  0  0
   10.8971   -0.6220    1.4428 C   0  0  0  0  0  0  0  0  0  0  0  0
    9.6078   -0.6076    0.9011 C   0  0  0  0  0  0  0  0  0  0  0  0
    5.7283   -0.7077   -1.2345 N   0  0  0  0  0  0  0  0  0  0  0  0
    1.8838    1.3152   -0.8302 C   0  0  0  0  0  0  0  0  0  0  0  0
    2.8948    2.2009   -1.1202 C   0  0  0  0  0  0  0  0  0  0  0  0
    2.6620    3.5462   -0.9439 C   0  0  0  0  0  0  0  0  0  0  0  0
    1.4537    4.0012   -0.4913 C   0  0  0  0  0  0  0  0  0  0  0  0
    0.4399    3.0818   -0.2052 C   0  0  0  0  0  0  0  0  0  0  0  0
    0.6329    1.7352   -0.3684 C   0  0  0  0  0  0  0  0  0  0  0  0
   -5.9208    1.9952   -1.4386 C   0  0  0  0  0  0  0  0  0  0  0  0
   -5.8730    2.5654   -2.6944 C   0  0  0  0  0  0  0  0  0  0  0  0
   -5.3982    3.4048   -5.0938 H   0  0  0  0  0  0  0  0  0  0  0  0
   -6.9591    2.6604   -5.5566 H   0  0  0  0  0  0  0  0  0  0  0  0
   -5.4680    1.7548   -5.9150 H   0  0  0  0  0  0  0  0  0  0  0  0
   -6.1943   -0.1486   -4.5876 H   0  0  0  0  0  0  0  0  0  0  0  0
   -6.2842   -1.2110   -2.3154 H   0  0  0  0  0  0  0  0  0  0  0  0
   -8.3328   -1.0230    4.2683 H   0  0  0  0  0  0  0  0  0  0  0  0
   -8.8996   -0.4002    2.6714 H   0  0  0  0  0  0  0  0  0  0  0  0
   -9.6466   -1.9058    3.3399 H   0  0  0  0  0  0  0  0  0  0  0  0
   -6.2587   -3.7178    2.8920 H   0  0  0  0  0  0  0  0  0  0  0  0
   -7.5529   -3.5277    4.0913 H   0  0  0  0  0  0  0  0  0  0  0  0
   -6.2223   -2.3594    4.1426 H   0  0  0  0  0  0  0  0  0  0  0  0
   -7.7284   -3.8398    1.1687 H   0  0  0  0  0  0  0  0  0  0  0  0
   -8.7521   -2.4219    0.7220 H   0  0  0  0  0  0  0  0  0  0  0  0
   -9.2811   -3.4675    2.0962 H   0  0  0  0  0  0  0  0  0  0  0  0
   -5.1295   -0.6328    3.0184 H   0  0  0  0  0  0  0  0  0  0  0  0
   -4.0633    2.0239    1.1735 H   0  0  0  0  0  0  0  0  0  0  0  0
   -1.7855    2.2806    0.6438 H   0  0  0  0  0  0  0  0  0  0  0  0
   -0.8459   -1.3017   -0.1420 H   0  0  0  0  0  0  0  0  0  0  0  0
    1.3537   -1.9792   -0.9602 H   0  0  0  0  0  0  0  0  0  0  0  0
    3.4854    0.3774    1.0012 H   0  0  0  0  0  0  0  0  0  0  0  0
    5.4879    0.5338    2.3311 H   0  0  0  0  0  0  0  0  0  0  0  0
    8.0808   -1.3277   -2.0402 H   0  0  0  0  0  0  0  0  0  0  0  0
   10.3622   -1.6622   -2.1636 H   0  0  0  0  0  0  0  0  0  0  0  0
   12.5774   -1.6821   -1.2174 H   0  0  0  0  0  0  0  0  0  0  0  0
   14.0026   -1.1616    1.1156 H   0  0  0  0  0  0  0  0  0  0  0  0
   10.7816    0.0401    3.5305 H   0  0  0  0  0  0  0  0  0  0  0  0
    8.8119   -0.2984    1.5407 H   0  0  0  0  0  0  0  0  0  0  0  0
    3.8376    1.8381   -1.4993 H   0  0  0  0  0  0  0  0  0  0  0  0
    3.4940    4.2051   -1.1866 H   0  0  0  0  0  0  0  0  0  0  0  0
    1.2847    5.0592   -0.3565 H   0  0  0  0  0  0  0  0  0  0  0  0
   -0.5006    3.4668    0.1454 H   0  0  0  0  0  0  0  0  0  0  0  0
   -5.8442    2.5909   -0.5295 H   0  0  0  0  0  0  0  0  0  0  0  0
   -5.7568    3.6318   -2.8003 H   0  0  0  0  0  0  0  0  0  0  0  0
  1  2  1  0
  2  3  2  0
  3  4  1  0
  4  5  2  0
  5  6  1  0
  6  7  1  0
  7  8  2  0
  8  9  1  0
  9 10  1  0
  9 11  1  0
  9 12  1  0
  8 13  1  0
 13 14  2  0
 14 15  1  0
 15 16  1  0
 16 17  2  0
 16 18  1  0
 18 19  1  0
 19 20  2  0
 20 21  1  0
 21 22  2  0
 22 23  1  0
 23 24  1  0
 24 25  2  0
 25 26  1  0
 26 27  2  0
 27 28  1  0
 28 29  1  0
 29 30  1  0
 30 31  2  0
 31 32  1  0
 32 33  2  0
 33 34  1  0
 34 35  1  0
 35 36  2  0
 36 37  1  0
 37 38  2  0
 28 39  2  0
 22 40  1  0
 40 41  2  0
 41 42  1  0
 42 43  2  0
 43 44  1  0
 44 45  2  0
  5 46  1  0
 46 47  2  0
 47  2  1  0
 14  6  1  0
 45 19  1  0
 39 24  1  0
 45 40  1  0
 38 30  1  0
 37 33  1  0
  1 48  1  0
  1 49  1  0
  1 50  1  0
  3 51  1  0
  4 52  1  0
 10 53  1  0
 10 54  1  0
 10 55  1  0
 11 56  1  0
 11 57  1  0
 11 58  1  0
 12 59  1  0
 12 60  1  0
 12 61  1  0
 13 62  1  0
 15 63  1  0
 18 64  1  0
 20 65  1  0
 21 66  1  0
 25 67  1  0
 26 68  1  0
 29 69  1  0
 31 70  1  0
 32 71  1  0
 34 72  1  0
 36 73  1  0
 38 74  1  0
 41 75  1  0
 42 76  1  0
 43 77  1  0
 44 78  1  0
 46 79  1  0
 47 80  1  0
M  END
$$$$
