@<TRIPOS>MOLECULE
*****
 80 86 0 0 0
SMALL
GASTEIGER

@<TRIPOS>ATOM
      1 C          -5.9164    2.4404   -5.1868 C.3     1  UNL1       -0.0397
      2 C          -5.9705    1.8036   -3.8403 C.ar    1  UNL1       -0.0503
      3 C          -6.1185    0.4417   -3.6775 C.ar    1  UNL1       -0.0568
      4 C          -6.1666   -0.1327   -2.4122 C.ar    1  UNL1       -0.0359
      5 C          -6.0686    0.6341   -1.2682 C.ar    1  UNL1        0.0674
      6 N          -6.1198    0.0272    0.0187 N.ar    1  UNL1       -0.2181
      7 N          -7.0698   -0.8101    0.4464 N.ar    1  UNL1       -0.1691
      8 C          -6.8171   -1.1983    1.7061 C.ar    1  UNL1        0.0706
      9 C          -7.6471   -2.1210    2.5095 C.3     1  UNL1        0.0063
     10 C          -8.6866   -1.3160    3.2749 C.3     1  UNL1       -0.0546
     11 C          -6.8187   -2.9575    3.4537 C.3     1  UNL1       -0.0546
     12 C          -8.4021   -3.0405    1.5744 C.3     1  UNL1       -0.0546
     13 C          -5.6381   -0.5568    2.0690 C.ar    1  UNL1        0.0021
     14 C          -5.2313    0.1998    0.9911 C.ar    1  UNL1        0.1299
     15 N          -4.0823    1.0188    0.9086 N.am    1  UNL1       -0.2538
     16 C          -2.8338    0.4669    0.4310 C.2     1  UNL1        0.3092
     17 O          -2.8463   -0.7281    0.1137 O.2     1  UNL1       -0.2521
     18 N          -1.6682    1.2683    0.3381 N.am    1  UNL1       -0.2686
     19 C          -0.3958    0.8197   -0.1062 C.ar    1  UNL1        0.0427
     20 C          -0.1066   -0.5064   -0.3284 C.ar    1  UNL1       -0.0363
     21 C           1.1304   -0.9192   -0.7844 C.ar    1  UNL1       -0.0169
     22 C           2.1399   -0.0209   -1.0397 C.ar    1  UNL1        0.1381
     23 O           3.3775   -0.4485   -1.4963 O.3     1  UNL1       -0.4373
     24 C           4.5470   -0.3611   -0.7341 C.ar    1  UNL1        0.2249
     25 C           4.4448    0.0911    0.5589 C.ar    1  UNL1        0.0186
     26 C           5.5924    0.1761    1.3194 C.ar    1  UNL1        0.0362
     27 N           6.7400   -0.1875    0.7535 N.ar    1  UNL1       -0.2225
     28 C           6.8476   -0.6273   -0.4996 C.ar    1  UNL1        0.2226
     29 N           8.1054   -0.9926   -1.0238 N.pl3   1  UNL1       -0.2835
     30 C           9.3557   -0.9748   -0.4009 C.ar    1  UNL1        0.0343
     31 C          10.4905   -1.3630   -1.1382 C.ar    1  UNL1       -0.0384
     32 C          11.7396   -1.3758   -0.6097 C.ar    1  UNL1       -0.0345
     33 C          11.9580   -1.0032    0.6945 C.ar    1  UNL1        0.0658
     34 N          13.0546   -0.9157    1.4777 N.ar    1  UNL1       -0.2770
     35 N          12.6787   -0.4940    2.6695 N.ar    1  UNL1       -0.1812
     36 C          11.3404   -0.2981    2.6920 C.ar    1  UNL1        0.0569
     37 C          10.8971   -0.6220    1.4428 C.ar    1  UNL1        0.0212
     38 C           9.6078   -0.6076    0.9011 C.ar    1  UNL1       -0.0298
     39 N           5.7283   -0.7077   -1.2345 N.ar    1  UNL1       -0.1789
     40 C           1.8838    1.3152   -0.8302 C.ar    1  UNL1        0.0262
     41 C           2.8948    2.2009   -1.1202 C.ar    1  UNL1       -0.0505
     42 C           2.6620    3.5462   -0.9439 C.ar    1  UNL1       -0.0611
     43 C           1.4537    4.0012   -0.4913 C.ar    1  UNL1       -0.0611
     44 C           0.4399    3.0818   -0.2052 C.ar    1  UNL1       -0.0521
     45 C           0.6329    1.7352   -0.3684 C.ar    1  UNL1        0.0069
     46 C          -5.9208    1.9952   -1.4386 C.ar    1  UNL1       -0.0359
     47 C          -5.8730    2.5654   -2.6944 C.ar    1  UNL1       -0.0568
     48 H          -5.3982    3.4048   -5.0938 H       1  UNL1        0.0278
     49 H          -6.9591    2.6604   -5.5566 H       1  UNL1        0.0278
     50 H          -5.4680    1.7548   -5.9150 H       1  UNL1        0.0278
     51 H          -6.1943   -0.1486   -4.5876 H       1  UNL1        0.0621
     52 H          -6.2842   -1.2110   -2.3154 H       1  UNL1        0.0639
     53 H          -8.3328   -1.0230    4.2683 H       1  UNL1        0.0239
     54 H          -8.8996   -0.4002    2.6714 H       1  UNL1        0.0239
     55 H          -9.6466   -1.9058    3.3399 H       1  UNL1        0.0239
     56 H          -6.2587   -3.7178    2.8920 H       1  UNL1        0.0239
     57 H          -7.5529   -3.5277    4.0913 H       1  UNL1        0.0239
     58 H          -6.2223   -2.3594    4.1426 H       1  UNL1        0.0239
     59 H          -7.7284   -3.8398    1.1687 H       1  UNL1        0.0239
     60 H          -8.7521   -2.4219    0.7220 H       1  UNL1        0.0239
     61 H          -9.2811   -3.4675    2.0962 H       1  UNL1        0.0239
     62 H          -5.1295   -0.6328    3.0184 H       1  UNL1        0.0671
     63 H          -4.0633    2.0239    1.1735 H       1  UNL1        0.1578
     64 H          -1.7855    2.2806    0.6438 H       1  UNL1        0.1564
     65 H          -0.8459   -1.3017   -0.1420 H       1  UNL1        0.0637
     66 H           1.3537   -1.9792   -0.9602 H       1  UNL1        0.0655
     67 H           3.4854    0.3774    1.0012 H       1  UNL1        0.0686
     68 H           5.4879    0.5338    2.3311 H       1  UNL1        0.0832
     69 H           8.0808   -1.3277   -2.0402 H       1  UNL1        0.1550
     70 H          10.3622   -1.6622   -2.1636 H       1  UNL1        0.0637
     71 H          12.5774   -1.6821   -1.2174 H       1  UNL1        0.0639
     72 H          14.0026   -1.1616    1.1156 H       1  UNL1        0.1889
     73 H          10.7816    0.0401    3.5305 H       1  UNL1        0.0854
     74 H           8.8119   -0.2984    1.5407 H       1  UNL1        0.0643
     75 H           3.8376    1.8381   -1.4993 H       1  UNL1        0.0625
     76 H           3.4940    4.2051   -1.1866 H       1  UNL1        0.0618
     77 H           1.2847    5.0592   -0.3565 H       1  UNL1        0.0618
     78 H          -0.5006    3.4668    0.1454 H       1  UNL1        0.0624
     79 H          -5.8442    2.5909   -0.5295 H       1  UNL1        0.0639
     80 H          -5.7568    3.6318   -2.8003 H       1  UNL1        0.0621
@<TRIPOS>BOND
     1     1     2    1
     2     2     3   ar
     3     3     4   ar
     4     4     5   ar
     5     5     6    1
     6     6     7   ar
     7     7     8   ar
     8     8     9    1
     9     9    10    1
    10     9    11    1
    11     9    12    1
    12     8    13   ar
    13    13    14   ar
    14    14    15    1
    15    15    16   am
    16    16    17    2
    17    16    18   am
    18    18    19    1
    19    19    20   ar
    20    20    21   ar
    21    21    22   ar
    22    22    23    1
    23    23    24    1
    24    24    25   ar
    25    25    26   ar
    26    26    27   ar
    27    27    28   ar
    28    28    29    1
    29    29    30    1
    30    30    31   ar
    31    31    32   ar
    32    32    33   ar
    33    33    34   ar
    34    34    35   ar
    35    35    36   ar
    36    36    37   ar
    37    37    38   ar
    38    28    39   ar
    39    22    40   ar
    40    40    41   ar
    41    41    42   ar
    42    42    43   ar
    43    43    44   ar
    44    44    45   ar
    45     5    46   ar
    46    46    47   ar
    47    47     2   ar
    48    14     6   ar
    49    45    19   ar
    50    39    24   ar
    51    45    40   ar
    52    38    30   ar
    53    37    33   ar
    54     1    48    1
    55     1    49    1
    56     1    50    1
    57     3    51    1
    58     4    52    1
    59    10    53    1
    60    10    54    1
    61    10    55    1
    62    11    56    1
    63    11    57    1
    64    11    58    1
    65    12    59    1
    66    12    60    1
    67    12    61    1
    68    13    62    1
    69    15    63    1
    70    18    64    1
    71    20    65    1
    72    21    66    1
    73    25    67    1
    74    26    68    1
    75    29    69    1
    76    31    70    1
    77    32    71    1
    78    34    72    1
    79    36    73    1
    80    38    74    1
    81    41    75    1
    82    42    76    1
    83    43    77    1
    84    44    78    1
    85    46    79    1
    86    47    80    1
