
     RDKit          3D

 62 65  0  0  0  0  0  0  0  0999 V2000
   -8.0124    0.8162    0.9763 C   0  0  0  0  0  0  0  0  0  0  0  0
   -6.6392    0.4131    0.5392 C   0  0  0  0  0  0  0  0  0  0  0  0
   -6.4890   -0.5924   -0.2373 N   0  0  0  0  0  0  0  0  0  0  0  0
   -5.5641    1.1999    1.0700 N   0  0  0  0  0  0  0  0  0  0  0  0
   -4.4952    0.5381    1.7471 C   0  0  0  0  0  0  0  0  0  0  0  0
   -3.1986    1.2144    1.4999 C   0  0  0  0  0  0  0  0  0  0  0  0
   -3.2292    2.2457    0.5171 N   0  0  0  0  0  0  0  0  0  0  0  0
   -3.1311    1.8330   -0.8434 C   0  0  0  0  0  0  0  0  0  0  0  0
   -1.9084    1.0712   -1.1468 C   0  0  0  0  0  0  0  0  0  0  0  0
   -0.7161    1.6882   -1.5166 C   0  0  0  0  0  0  0  0  0  0  0  0
    0.4401    0.9612   -1.8058 C   0  0  0  0  0  0  0  0  0  0  0  0
    0.4310   -0.3957   -1.7323 C   0  0  0  0  0  0  0  0  0  0  0  0
    1.5892   -1.2261   -2.0159 C   0  0  0  0  0  0  0  0  0  0  0  0
    1.4830   -2.4881   -1.9462 O   0  0  0  0  0  0  0  0  0  0  0  0
    2.8638   -0.7384   -2.3750 N   0  0  0  0  0  0  0  0  0  0  0  0
    3.9996   -1.5377   -2.6583 C   0  0  0  0  0  0  0  0  0  0  0  0
    4.2153   -1.9548   -3.9705 C   0  0  0  0  0  0  0  0  0  0  0  0
    5.3182   -2.7239   -4.2778 C   0  0  0  0  0  0  0  0  0  0  0  0
    6.1772   -3.0529   -3.2517 C   0  0  0  0  0  0  0  0  0  0  0  0
    7.6016   -4.0205   -3.5363 Cl  0  0  0  0  0  0  0  0  0  0  0  0
    5.9537   -2.6304   -1.9362 C   0  0  0  0  0  0  0  0  0  0  0  0
    4.8525   -1.8645   -1.6364 C   0  0  0  0  0  0  0  0  0  0  0  0
    4.5544   -1.3973   -0.2949 C   0  0  0  0  0  0  0  0  0  0  0  0
    3.5204   -0.7158   -0.0677 O   0  0  0  0  0  0  0  0  0  0  0  0
    5.3732   -1.6577    0.8377 N   0  0  0  0  0  0  0  0  0  0  0  0
    5.0563   -1.1857    2.1605 C   0  0  0  0  0  0  0  0  0  0  0  0
    5.5338    0.0713    2.4853 C   0  0  0  0  0  0  0  0  0  0  0  0
    5.3018    0.6288    3.7270 C   0  0  0  0  0  0  0  0  0  0  0  0
    4.5824   -0.0972    4.6377 C   0  0  0  0  0  0  0  0  0  0  0  0
    4.2325    0.5233    6.2541 Cl  0  0  0  0  0  0  0  0  0  0  0  0
    4.1215   -1.3443    4.2839 C   0  0  0  0  0  0  0  0  0  0  0  0
    4.3610   -1.8775    3.0522 N   0  0  0  0  0  0  0  0  0  0  0  0
   -0.7444   -1.0176   -1.3674 C   0  0  0  0  0  0  0  0  0  0  0  0
   -1.8942   -0.3076   -1.0792 C   0  0  0  0  0  0  0  0  0  0  0  0
   -4.2790    3.2119    0.7521 C   0  0  0  0  0  0  0  0  0  0  0  0
   -5.6220    2.6172    0.9203 C   0  0  0  0  0  0  0  0  0  0  0  0
   -8.0174    1.1670    2.0407 H   0  0  0  0  0  0  0  0  0  0  0  0
   -8.7506    0.0052    0.8318 H   0  0  0  0  0  0  0  0  0  0  0  0
   -8.3668    1.6887    0.3601 H   0  0  0  0  0  0  0  0  0  0  0  0
   -5.5411   -0.8993   -0.5645 H   0  0  0  0  0  0  0  0  0  0  0  0
   -4.7179    0.5174    2.8418 H   0  0  0  0  0  0  0  0  0  0  0  0
   -4.4612   -0.5173    1.3453 H   0  0  0  0  0  0  0  0  0  0  0  0
   -2.4446    0.4577    1.1853 H   0  0  0  0  0  0  0  0  0  0  0  0
   -2.8048    1.5946    2.4840 H   0  0  0  0  0  0  0  0  0  0  0  0
   -4.0350    1.2575   -1.1566 H   0  0  0  0  0  0  0  0  0  0  0  0
   -3.1449    2.7668   -1.4681 H   0  0  0  0  0  0  0  0  0  0  0  0
   -0.7059    2.7585   -1.5746 H   0  0  0  0  0  0  0  0  0  0  0  0
    1.3561    1.4635   -2.0910 H   0  0  0  0  0  0  0  0  0  0  0  0
    2.9744    0.3182   -2.4351 H   0  0  0  0  0  0  0  0  0  0  0  0
    3.5327   -1.6875   -4.7647 H   0  0  0  0  0  0  0  0  0  0  0  0
    5.5188   -3.0688   -5.2987 H   0  0  0  0  0  0  0  0  0  0  0  0
    6.6401   -2.8989   -1.1483 H   0  0  0  0  0  0  0  0  0  0  0  0
    6.2464   -2.2160    0.7124 H   0  0  0  0  0  0  0  0  0  0  0  0
    6.1073    0.6774    1.7935 H   0  0  0  0  0  0  0  0  0  0  0  0
    5.6697    1.5990    3.9767 H   0  0  0  0  0  0  0  0  0  0  0  0
    3.5519   -1.8968    5.0352 H   0  0  0  0  0  0  0  0  0  0  0  0
   -0.8038   -2.1142   -1.2928 H   0  0  0  0  0  0  0  0  0  0  0  0
   -2.8028   -0.8202   -0.7966 H   0  0  0  0  0  0  0  0  0  0  0  0
   -4.2751    3.8992   -0.1144 H   0  0  0  0  0  0  0  0  0  0  0  0
   -4.0196    3.7835    1.6830 H   0  0  0  0  0  0  0  0  0  0  0  0
   -6.2131    2.8482   -0.0197 H   0  0  0  0  0  0  0  0  0  0  0  0
   -6.1323    3.1091    1.7869 H   0  0  0  0  0  0  0  0  0  0  0  0
  1  2  1  0
  2  3  2  3
  2  4  1  0
  4  5  1  0
  5  6  1  0
  6  7  1  0
  7  8  1  0
  8  9  1  0
  9 10  2  0
 10 11  1  0
 11 12  2  0
 12 13  1  0
 13 14  2  0
 13 15  1  0
 15 16  1  0
 16 17  2  0
 17 18  1  0
 18 19  2  0
 19 20  1  0
 19 21  1  0
 21 22  2  0
 22 23  1  0
 23 24  2  0
 23 25  1  0
 25 26  1  0
 26 27  2  0
 27 28  1  0
 28 29  2  0
 29 30  1  0
 29 31  1  0
 31 32  2  0
 12 33  1  0
 33 34  2  0
  7 35  1  0
 35 36  1  0
 36  4  1  0
 34  9  1  0
 22 16  1  0
 32 26  1  0
  1 37  1  0
  1 38  1  0
  1 39  1  0
  3 40  1  0
  5 41  1  0
  5 42  1  0
  6 43  1  0
  6 44  1  0
  8 45  1  0
  8 46  1  0
 10 47  1  0
 11 48  1  0
 15 49  1  0
 17 50  1  0
 18 51  1  0
 21 52  1  0
 25 53  1  0
 27 54  1  0
 28 55  1  0
 31 56  1  0
 33 57  1  0
 34 58  1  0
 35 59  1  0
 35 60  1  0
 36 61  1  0
 36 62  1  0
M  END
$$$$
