@<TRIPOS>MOLECULE
*****
 62 65 0 0 0
SMALL
GASTEIGER

@<TRIPOS>ATOM
      1 C          -8.0124    0.8162    0.9763 C.3     1  UNL1        0.0386
      2 C          -6.6392    0.4131    0.5392 C.2     1  UNL1        0.2771
      3 N          -6.4890   -0.5924   -0.2373 N.2     1  UNL1       -0.1041
      4 N          -5.5641    1.1999    1.0700 N.pl3   1  UNL1       -0.2225
      5 C          -4.4952    0.5381    1.7471 C.3     1  UNL1        0.0930
      6 C          -3.1986    1.2144    1.4999 C.3     1  UNL1        0.0355
      7 N          -3.2292    2.2457    0.5171 N.3     1  UNL1       -0.2911
      8 C          -3.1311    1.8330   -0.8434 C.3     1  UNL1        0.0243
      9 C          -1.9084    1.0712   -1.1468 C.ar    1  UNL1       -0.0333
     10 C          -0.7161    1.6882   -1.5166 C.ar    1  UNL1       -0.0566
     11 C           0.4401    0.9612   -1.8058 C.ar    1  UNL1       -0.0493
     12 C           0.4310   -0.3957   -1.7323 C.ar    1  UNL1        0.0370
     13 C           1.5892   -1.2261   -2.0159 C.2     1  UNL1        0.2483
     14 O           1.4830   -2.4881   -1.9462 O.2     1  UNL1       -0.2699
     15 N           2.8638   -0.7384   -2.3750 N.am    1  UNL1       -0.2808
     16 C           3.9996   -1.5377   -2.6583 C.ar    1  UNL1        0.0459
     17 C           4.2153   -1.9548   -3.9705 C.ar    1  UNL1       -0.0384
     18 C           5.3182   -2.7239   -4.2778 C.ar    1  UNL1       -0.0416
     19 C           6.1772   -3.0529   -3.2517 C.ar    1  UNL1        0.0418
     20 CL          7.6016   -4.0205   -3.5363 Cl      1  UNL1       -0.0835
     21 C           5.9537   -2.6304   -1.9362 C.ar    1  UNL1       -0.0295
     22 C           4.8525   -1.8645   -1.6364 C.ar    1  UNL1        0.0596
     23 C           4.5544   -1.3973   -0.2949 C.2     1  UNL1        0.2511
     24 O           3.5204   -0.7158   -0.0677 O.2     1  UNL1       -0.2697
     25 N           5.3732   -1.6577    0.8377 N.am    1  UNL1       -0.2663
     26 C           5.0563   -1.1857    2.1605 C.ar    1  UNL1        0.1252
     27 C           5.5338    0.0713    2.4853 C.ar    1  UNL1       -0.0201
     28 C           5.3018    0.6288    3.7270 C.ar    1  UNL1       -0.0387
     29 C           4.5824   -0.0972    4.6377 C.ar    1  UNL1        0.0592
     30 CL          4.2325    0.5233    6.2541 Cl      1  UNL1       -0.0820
     31 C           4.1215   -1.3443    4.2839 C.ar    1  UNL1        0.0480
     32 N           4.3610   -1.8775    3.0522 N.ar    1  UNL1       -0.2387
     33 C          -0.7444   -1.0176   -1.3674 C.ar    1  UNL1       -0.0493
     34 C          -1.8942   -0.3076   -1.0792 C.ar    1  UNL1       -0.0566
     35 C          -4.2790    3.2119    0.7521 C.3     1  UNL1        0.0355
     36 C          -5.6220    2.6172    0.9203 C.3     1  UNL1        0.0930
     37 H          -8.0174    1.1670    2.0407 H       1  UNL1        0.0351
     38 H          -8.7506    0.0052    0.8318 H       1  UNL1        0.0351
     39 H          -8.3668    1.6887    0.3601 H       1  UNL1        0.0351
     40 H          -5.5411   -0.8993   -0.5645 H       1  UNL1        0.3629
     41 H          -4.7179    0.5174    2.8418 H       1  UNL1        0.0739
     42 H          -4.4612   -0.5173    1.3453 H       1  UNL1        0.0739
     43 H          -2.4446    0.4577    1.1853 H       1  UNL1        0.0464
     44 H          -2.8048    1.5946    2.4840 H       1  UNL1        0.0464
     45 H          -4.0350    1.2575   -1.1566 H       1  UNL1        0.0476
     46 H          -3.1449    2.7668   -1.4681 H       1  UNL1        0.0476
     47 H          -0.7059    2.7585   -1.5746 H       1  UNL1        0.0621
     48 H           1.3561    1.4635   -2.0910 H       1  UNL1        0.0625
     49 H           2.9744    0.3182   -2.4351 H       1  UNL1        0.1552
     50 H           3.5327   -1.6875   -4.7647 H       1  UNL1        0.0637
     51 H           5.5188   -3.0688   -5.2987 H       1  UNL1        0.0633
     52 H           6.6401   -2.8989   -1.1483 H       1  UNL1        0.0640
     53 H           6.2464   -2.2160    0.7124 H       1  UNL1        0.1566
     54 H           6.1073    0.6774    1.7935 H       1  UNL1        0.0652
     55 H           5.6697    1.5990    3.9767 H       1  UNL1        0.0634
     56 H           3.5519   -1.8968    5.0352 H       1  UNL1        0.0845
     57 H          -0.8038   -2.1142   -1.2928 H       1  UNL1        0.0625
     58 H          -2.8028   -0.8202   -0.7966 H       1  UNL1        0.0621
     59 H          -4.2751    3.8992   -0.1144 H       1  UNL1        0.0464
     60 H          -4.0196    3.7835    1.6830 H       1  UNL1        0.0464
     61 H          -6.2131    2.8482   -0.0197 H       1  UNL1        0.0739
     62 H          -6.1323    3.1091    1.7869 H       1  UNL1        0.0739
@<TRIPOS>BOND
     1     1     2    1
     2     2     3    2
     3     2     4    1
     4     4     5    1
     5     5     6    1
     6     6     7    1
     7     7     8    1
     8     8     9    1
     9     9    10   ar
    10    10    11   ar
    11    11    12   ar
    12    12    13    1
    13    13    14    2
    14    13    15   am
    15    15    16    1
    16    16    17   ar
    17    17    18   ar
    18    18    19   ar
    19    19    20    1
    20    19    21   ar
    21    21    22   ar
    22    22    23    1
    23    23    24    2
    24    23    25   am
    25    25    26    1
    26    26    27   ar
    27    27    28   ar
    28    28    29   ar
    29    29    30    1
    30    29    31   ar
    31    31    32   ar
    32    12    33   ar
    33    33    34   ar
    34     7    35    1
    35    35    36    1
    36    36     4    1
    37    34     9   ar
    38    22    16   ar
    39    32    26   ar
    40     1    37    1
    41     1    38    1
    42     1    39    1
    43     3    40    1
    44     5    41    1
    45     5    42    1
    46     6    43    1
    47     6    44    1
    48     8    45    1
    49     8    46    1
    50    10    47    1
    51    11    48    1
    52    15    49    1
    53    17    50    1
    54    18    51    1
    55    21    52    1
    56    25    53    1
    57    27    54    1
    58    28    55    1
    59    31    56    1
    60    33    57    1
    61    34    58    1
    62    35    59    1
    63    35    60    1
    64    36    61    1
    65    36    62    1
