@<TRIPOS>MOLECULE
*****
 54 54 0 0 0
SMALL
GASTEIGER

@<TRIPOS>ATOM
      1 C           6.6791   -0.3668    0.0774 C.3     1  UNL1       -0.0157
      2 N           6.0946   -1.4173    0.9032 N.3     1  UNL1       -0.3162
      3 C           4.7592   -1.7369    0.3946 C.3     1  UNL1        0.0258
      4 C           3.8991   -0.5195    0.6758 C.3     1  UNL1        0.0927
      5 O           3.8508   -0.2508    2.0319 O.3     1  UNL1       -0.3859
      6 C           2.5642   -0.7179    0.0870 C.ar    1  UNL1       -0.0142
      7 C           1.6392    0.2243    0.4627 C.ar    1  UNL1       -0.0099
      8 C           0.3355    0.1771   -0.0123 C.ar    1  UNL1        0.1741
      9 O          -0.6748    1.1040    0.3248 O.3     1  UNL1       -0.4217
     10 C          -0.7520    2.3162   -0.3769 C.2     1  UNL1        0.3179
     11 O           0.2137    2.1996   -1.1853 O.2     1  UNL1       -0.2498
     12 C          -1.6420    3.4844   -0.3075 C.3     1  UNL1        0.0598
     13 C          -1.1046    4.4814   -1.3493 C.3     1  UNL1       -0.0499
     14 C          -1.6387    4.1119    1.0434 C.3     1  UNL1       -0.0499
     15 C          -3.0519    3.1705   -0.7569 C.3     1  UNL1       -0.0499
     16 C          -0.0389   -0.8285   -0.8736 C.ar    1  UNL1        0.1738
     17 O          -1.3376   -0.9596   -1.4092 O.3     1  UNL1       -0.4217
     18 C          -2.2510   -1.6864   -0.6588 C.2     1  UNL1        0.3179
     19 O          -1.3905   -1.9011    0.2346 O.2     1  UNL1       -0.2498
     20 C          -3.5101   -2.3261   -0.2688 C.3     1  UNL1        0.0598
     21 C          -3.2491   -2.9877    1.0908 C.3     1  UNL1       -0.0499
     22 C          -4.5686   -1.2552   -0.1178 C.3     1  UNL1       -0.0499
     23 C          -3.9417   -3.4427   -1.1911 C.3     1  UNL1       -0.0499
     24 C           0.8656   -1.7981   -1.2761 C.ar    1  UNL1       -0.0152
     25 C           2.1459   -1.7070   -0.7764 C.ar    1  UNL1       -0.0524
     26 H           6.1644   -0.3463   -0.9165 H       1  UNL1        0.0388
     27 H           6.5380    0.6093    0.5867 H       1  UNL1        0.0388
     28 H           7.7555   -0.5922   -0.0381 H       1  UNL1        0.0388
     29 H           6.7024   -2.2647    0.9041 H       1  UNL1        0.1217
     30 H           4.8223   -1.9358   -0.6920 H       1  UNL1        0.0453
     31 H           4.3871   -2.6338    0.9221 H       1  UNL1        0.0453
     32 H           4.3697    0.3193    0.1045 H       1  UNL1        0.0656
     33 H           3.8877    0.7300    2.1433 H       1  UNL1        0.2103
     34 H           1.7998    1.0563    1.1258 H       1  UNL1        0.0659
     35 H          -0.0286    4.6263   -1.0745 H       1  UNL1        0.0240
     36 H          -1.6695    5.4073   -1.3904 H       1  UNL1        0.0240
     37 H          -1.0847    3.8985   -2.3123 H       1  UNL1        0.0240
     38 H          -2.6867    4.4160    1.2950 H       1  UNL1        0.0240
     39 H          -1.3333    3.4431    1.8754 H       1  UNL1        0.0240
     40 H          -1.0414    5.0495    1.0987 H       1  UNL1        0.0240
     41 H          -3.4229    2.2106   -0.3883 H       1  UNL1        0.0240
     42 H          -3.7342    3.9844   -0.4399 H       1  UNL1        0.0240
     43 H          -3.0623    3.1378   -1.8682 H       1  UNL1        0.0240
     44 H          -3.0055   -2.1693    1.8172 H       1  UNL1        0.0240
     45 H          -4.0915   -3.6047    1.3931 H       1  UNL1        0.0240
     46 H          -2.2970   -3.5577    0.9647 H       1  UNL1        0.0240
     47 H          -4.5596   -0.9265    0.9332 H       1  UNL1        0.0240
     48 H          -4.2812   -0.3972   -0.7528 H       1  UNL1        0.0240
     49 H          -5.5579   -1.6129   -0.4407 H       1  UNL1        0.0240
     50 H          -3.8599   -4.4491   -0.7361 H       1  UNL1        0.0240
     51 H          -3.2137   -3.4477   -2.0450 H       1  UNL1        0.0240
     52 H          -4.9333   -3.2603   -1.6547 H       1  UNL1        0.0240
     53 H           0.6447   -2.6261   -1.9567 H       1  UNL1        0.0656
     54 H           2.8967   -2.4317   -1.0508 H       1  UNL1        0.0622
@<TRIPOS>BOND
     1     1     2    1
     2     2     3    1
     3     3     4    1
     4     4     5    1
     5     4     6    1
     6     6     7   ar
     7     7     8   ar
     8     8     9    1
     9     9    10    1
    10    10    11    2
    11    10    12    1
    12    12    13    1
    13    12    14    1
    14    12    15    1
    15     8    16   ar
    16    16    17    1
    17    17    18    1
    18    18    19    2
    19    18    20    1
    20    20    21    1
    21    20    22    1
    22    20    23    1
    23    16    24   ar
    24    24    25   ar
    25    25     6   ar
    26     1    26    1
    27     1    27    1
    28     1    28    1
    29     2    29    1
    30     3    30    1
    31     3    31    1
    32     4    32    1
    33     5    33    1
    34     7    34    1
    35    13    35    1
    36    13    36    1
    37    13    37    1
    38    14    38    1
    39    14    39    1
    40    14    40    1
    41    15    41    1
    42    15    42    1
    43    15    43    1
    44    21    44    1
    45    21    45    1
    46    21    46    1
    47    22    47    1
    48    22    48    1
    49    22    49    1
    50    23    50    1
    51    23    51    1
    52    23    52    1
    53    24    53    1
    54    25    54    1
