
     RDKit          3D

 54 54  0  0  0  0  0  0  0  0999 V2000
    6.6791   -0.3668    0.0774 C   0  0  0  0  0  0  0  0  0  0  0  0
    6.0946   -1.4173    0.9032 N   0  0  0  0  0  0  0  0  0  0  0  0
    4.7592   -1.7369    0.3946 C   0  0  0  0  0  0  0  0  0  0  0  0
    3.8991   -0.5195    0.6758 C   0  0  0  0  0  0  0  0  0  0  0  0
    3.8508   -0.2508    2.0319 O   0  0  0  0  0  0  0  0  0  0  0  0
    2.5642   -0.7179    0.0870 C   0  0  0  0  0  0  0  0  0  0  0  0
    1.6392    0.2243    0.4627 C   0  0  0  0  0  0  0  0  0  0  0  0
    0.3355    0.1771   -0.0123 C   0  0  0  0  0  0  0  0  0  0  0  0
   -0.6748    1.1040    0.3248 O   0  0  0  0  0  0  0  0  0  0  0  0
   -0.7520    2.3162   -0.3769 C   0  0  0  0  0  0  0  0  0  0  0  0
    0.2137    2.1996   -1.1853 O   0  0  0  0  0  0  0  0  0  0  0  0
   -1.6420    3.4844   -0.3075 C   0  0  0  0  0  0  0  0  0  0  0  0
   -1.1046    4.4814   -1.3493 C   0  0  0  0  0  0  0  0  0  0  0  0
   -1.6387    4.1119    1.0434 C   0  0  0  0  0  0  0  0  0  0  0  0
   -3.0519    3.1705   -0.7569 C   0  0  0  0  0  0  0  0  0  0  0  0
   -0.0389   -0.8285   -0.8736 C   0  0  0  0  0  0  0  0  0  0  0  0
   -1.3376   -0.9596   -1.4092 O   0  0  0  0  0  0  0  0  0  0  0  0
   -2.2510   -1.6864   -0.6588 C   0  0  0  0  0  0  0  0  0  0  0  0
   -1.3905   -1.9011    0.2346 O   0  0  0  0  0  0  0  0  0  0  0  0
   -3.5101   -2.3261   -0.2688 C   0  0  0  0  0  0  0  0  0  0  0  0
   -3.2491   -2.9877    1.0908 C   0  0  0  0  0  0  0  0  0  0  0  0
   -4.5686   -1.2552   -0.1178 C   0  0  0  0  0  0  0  0  0  0  0  0
   -3.9417   -3.4427   -1.1911 C   0  0  0  0  0  0  0  0  0  0  0  0
    0.8656   -1.7981   -1.2761 C   0  0  0  0  0  0  0  0  0  0  0  0
    2.1459   -1.7070   -0.7764 C   0  0  0  0  0  0  0  0  0  0  0  0
    6.1644   -0.3463   -0.9165 H   0  0  0  0  0  0  0  0  0  0  0  0
    6.5380    0.6093    0.5867 H   0  0  0  0  0  0  0  0  0  0  0  0
    7.7555   -0.5922   -0.0381 H   0  0  0  0  0  0  0  0  0  0  0  0
    6.7024   -2.2647    0.9041 H   0  0  0  0  0  0  0  0  0  0  0  0
    4.8223   -1.9358   -0.6920 H   0  0  0  0  0  0  0  0  0  0  0  0
    4.3871   -2.6338    0.9221 H   0  0  0  0  0  0  0  0  0  0  0  0
    4.3697    0.3193    0.1045 H   0  0  0  0  0  0  0  0  0  0  0  0
    3.8877    0.7300    2.1433 H   0  0  0  0  0  0  0  0  0  0  0  0
    1.7998    1.0563    1.1258 H   0  0  0  0  0  0  0  0  0  0  0  0
   -0.0286    4.6263   -1.0745 H   0  0  0  0  0  0  0  0  0  0  0  0
   -1.6695    5.4073   -1.3904 H   0  0  0  0  0  0  0  0  0  0  0  0
   -1.0847    3.8985   -2.3123 H   0  0  0  0  0  0  0  0  0  0  0  0
   -2.6867    4.4160    1.2950 H   0  0  0  0  0  0  0  0  0  0  0  0
   -1.3333    3.4431    1.8754 H   0  0  0  0  0  0  0  0  0  0  0  0
   -1.0414    5.0495    1.0987 H   0  0  0  0  0  0  0  0  0  0  0  0
   -3.4229    2.2106   -0.3883 H   0  0  0  0  0  0  0  0  0  0  0  0
   -3.7342    3.9844   -0.4399 H   0  0  0  0  0  0  0  0  0  0  0  0
   -3.0623    3.1378   -1.8682 H   0  0  0  0  0  0  0  0  0  0  0  0
   -3.0055   -2.1693    1.8172 H   0  0  0  0  0  0  0  0  0  0  0  0
   -4.0915   -3.6047    1.3931 H   0  0  0  0  0  0  0  0  0  0  0  0
   -2.2970   -3.5577    0.9647 H   0  0  0  0  0  0  0  0  0  0  0  0
   -4.5596   -0.9265    0.9332 H   0  0  0  0  0  0  0  0  0  0  0  0
   -4.2812   -0.3972   -0.7528 H   0  0  0  0  0  0  0  0  0  0  0  0
   -5.5579   -1.6129   -0.4407 H   0  0  0  0  0  0  0  0  0  0  0  0
   -3.8599   -4.4491   -0.7361 H   0  0  0  0  0  0  0  0  0  0  0  0
   -3.2137   -3.4477   -2.0450 H   0  0  0  0  0  0  0  0  0  0  0  0
   -4.9333   -3.2603   -1.6547 H   0  0  0  0  0  0  0  0  0  0  0  0
    0.6447   -2.6261   -1.9567 H   0  0  0  0  0  0  0  0  0  0  0  0
    2.8967   -2.4317   -1.0508 H   0  0  0  0  0  0  0  0  0  0  0  0
  1  2  1  0
  2  3  1  0
  3  4  1  0
  4  5  1  0
  4  6  1  0
  6  7  2  0
  7  8  1  0
  8  9  1  0
  9 10  1  0
 10 11  2  0
 10 12  1  0
 12 13  1  0
 12 14  1  0
 12 15  1  0
  8 16  2  0
 16 17  1  0
 17 18  1  0
 18 19  2  0
 18 20  1  0
 20 21  1  0
 20 22  1  0
 20 23  1  0
 16 24  1  0
 24 25  2  0
 25  6  1  0
  1 26  1  0
  1 27  1  0
  1 28  1  0
  2 29  1  0
  3 30  1  0
  3 31  1  0
  4 32  1  0
  5 33  1  0
  7 34  1  0
 13 35  1  0
 13 36  1  0
 13 37  1  0
 14 38  1  0
 14 39  1  0
 14 40  1  0
 15 41  1  0
 15 42  1  0
 15 43  1  0
 21 44  1  0
 21 45  1  0
 21 46  1  0
 22 47  1  0
 22 48  1  0
 22 49  1  0
 23 50  1  0
 23 51  1  0
 23 52  1  0
 24 53  1  0
 25 54  1  0
M  END
$$$$
