@<TRIPOS>MOLECULE
*****
 63 67 0 0 0
SMALL
GASTEIGER

@<TRIPOS>ATOM
      1 C           5.3152    0.0184    2.0005 C.3     1  UNL1       -0.0274
      2 C           4.9468    0.1266    0.5016 C.3     1  UNL1        0.1037
      3 O           3.7107   -0.2606    0.2856 O.3     1  UNL1       -0.4725
      4 C           2.7850   -1.0732   -0.1964 C.ar    1  UNL1        0.2265
      5 N           1.4417   -0.7845   -0.0018 N.ar    1  UNL1       -0.2122
      6 C           0.4579   -1.5482   -0.4518 C.ar    1  UNL1        0.0769
      7 C          -0.9360   -1.1564   -0.1947 C.ar    1  UNL1        0.0006
      8 C          -1.2257    0.0005    0.5051 C.ar    1  UNL1       -0.0523
      9 C          -2.5570    0.3556    0.7514 C.ar    1  UNL1       -0.0577
     10 C          -3.6037   -0.4035    0.3232 C.ar    1  UNL1       -0.0442
     11 C          -5.0076   -0.0190    0.5746 C.3     1  UNL1       -0.0135
     12 C          -5.5348    0.9603   -0.4574 C.3     1  UNL1       -0.0333
     13 C          -6.8939    1.4944   -0.0633 C.3     1  UNL1       -0.0009
     14 N          -6.7600    2.2858    1.1369 N.3     1  UNL1       -0.3053
     15 C          -7.9030    2.0850    1.9940 C.3     1  UNL1       -0.0128
     16 C          -5.5077    2.0308    1.8198 C.3     1  UNL1       -0.0009
     17 C          -5.2574    0.5519    1.9390 C.3     1  UNL1       -0.0333
     18 C          -3.3271   -1.5687   -0.3809 C.ar    1  UNL1       -0.0577
     19 C          -2.0079   -1.9006   -0.6138 C.ar    1  UNL1       -0.0523
     20 C           0.8078   -2.6795   -1.1445 C.ar    1  UNL1       -0.0077
     21 C           2.1289   -3.0253   -1.3743 C.ar    1  UNL1        0.0999
     22 N           2.7094   -4.0681   -2.0124 N.ar    1  UNL1       -0.1712
     23 N           3.9977   -3.9420   -1.9534 N.ar    1  UNL1       -0.2732
     24 C           4.9661   -4.8551   -2.5172 C.3     1  UNL1        0.0302
     25 C           4.3273   -2.8221   -1.2790 C.ar    1  UNL1        0.0380
     26 C           3.1314   -2.2314   -0.9060 C.ar    1  UNL1        0.0812
     27 C           5.2993    1.5386    0.0309 C.3     1  UNL1        0.0196
     28 C           4.9942    1.7934   -1.4012 C.3     1  UNL1        0.0182
     29 N           4.8346    3.2504   -1.4383 N.am    1  UNL1       -0.3149
     30 C           4.8172    3.7785   -0.1037 C.2     1  UNL1        0.2135
     31 O           5.0328    4.9585    0.2618 O.2     1  UNL1       -0.2758
     32 C           4.4760    2.5895    0.7475 C.3     1  UNL1        0.0315
     33 H           5.0072   -0.9991    2.3046 H       1  UNL1        0.0265
     34 H           4.7770    0.7451    2.6089 H       1  UNL1        0.0265
     35 H           6.4097    0.2017    2.1067 H       1  UNL1        0.0265
     36 H           5.7238   -0.5042    0.0175 H       1  UNL1        0.0734
     37 H          -0.4175    0.6424    0.8703 H       1  UNL1        0.0624
     38 H          -2.7004    1.2784    1.3114 H       1  UNL1        0.0621
     39 H          -5.6036   -0.9797    0.4989 H       1  UNL1        0.0350
     40 H          -5.7142    0.3502   -1.3876 H       1  UNL1        0.0283
     41 H          -4.8789    1.8057   -0.6584 H       1  UNL1        0.0283
     42 H          -7.6664    0.7064    0.0249 H       1  UNL1        0.0427
     43 H          -7.2185    2.1731   -0.8873 H       1  UNL1        0.0427
     44 H          -7.5930    2.2692    3.0385 H       1  UNL1        0.0391
     45 H          -8.6990    2.8395    1.7437 H       1  UNL1        0.0391
     46 H          -8.3637    1.0965    1.8445 H       1  UNL1        0.0391
     47 H          -5.5525    2.5164    2.8245 H       1  UNL1        0.0427
     48 H          -4.7137    2.4971    1.2245 H       1  UNL1        0.0427
     49 H          -6.1606    0.0661    2.3766 H       1  UNL1        0.0283
     50 H          -4.4356    0.3366    2.6514 H       1  UNL1        0.0283
     51 H          -4.1503   -2.2028   -0.7397 H       1  UNL1        0.0621
     52 H          -1.8285   -2.8189   -1.1683 H       1  UNL1        0.0624
     53 H           0.0714   -3.3371   -1.5313 H       1  UNL1        0.0661
     54 H           4.6176   -5.2485   -3.4999 H       1  UNL1        0.0473
     55 H           5.0919   -5.6797   -1.7696 H       1  UNL1        0.0473
     56 H           5.9260   -4.3454   -2.6785 H       1  UNL1        0.0473
     57 H           5.3103   -2.4419   -1.0629 H       1  UNL1        0.0834
     58 H           6.3639    1.7829    0.2171 H       1  UNL1        0.0356
     59 H           4.0546    1.2980   -1.6937 H       1  UNL1        0.0466
     60 H           5.7941    1.4762   -2.1080 H       1  UNL1        0.0466
     61 H           4.7457    3.8377   -2.2828 H       1  UNL1        0.1487
     62 H           3.3791    2.4323    0.6025 H       1  UNL1        0.0363
     63 H           4.7660    2.7259    1.7888 H       1  UNL1        0.0363
@<TRIPOS>BOND
     1     1     2    1
     2     2     3    1
     3     3     4    1
     4     4     5   ar
     5     5     6   ar
     6     6     7    1
     7     7     8   ar
     8     8     9   ar
     9     9    10   ar
    10    10    11    1
    11    11    12    1
    12    12    13    1
    13    13    14    1
    14    14    15    1
    15    14    16    1
    16    16    17    1
    17    10    18   ar
    18    18    19   ar
    19     6    20   ar
    20    20    21   ar
    21    21    22   ar
    22    22    23   ar
    23    23    24    1
    24    23    25   ar
    25    25    26   ar
    26     2    27    1
    27    27    28    1
    28    28    29    1
    29    29    30   am
    30    30    31    2
    31    30    32    1
    32    26     4   ar
    33    32    27    1
    34    19     7   ar
    35    26    21   ar
    36    17    11    1
    37     1    33    1
    38     1    34    1
    39     1    35    1
    40     2    36    1
    41     8    37    1
    42     9    38    1
    43    11    39    1
    44    12    40    1
    45    12    41    1
    46    13    42    1
    47    13    43    1
    48    15    44    1
    49    15    45    1
    50    15    46    1
    51    16    47    1
    52    16    48    1
    53    17    49    1
    54    17    50    1
    55    18    51    1
    56    19    52    1
    57    20    53    1
    58    24    54    1
    59    24    55    1
    60    24    56    1
    61    25    57    1
    62    27    58    1
    63    28    59    1
    64    28    60    1
    65    29    61    1
    66    32    62    1
    67    32    63    1
