
     RDKit          3D

 63 67  0  0  0  0  0  0  0  0999 V2000
    5.3152    0.0184    2.0005 C   0  0  0  0  0  0  0  0  0  0  0  0
    4.9468    0.1266    0.5016 C   0  0  1  0  0  0  0  0  0  0  0  0
    3.7107   -0.2606    0.2856 O   0  0  0  0  0  0  0  0  0  0  0  0
    2.7850   -1.0732   -0.1964 C   0  0  0  0  0  0  0  0  0  0  0  0
    1.4417   -0.7845   -0.0018 N   0  0  0  0  0  0  0  0  0  0  0  0
    0.4579   -1.5482   -0.4518 C   0  0  0  0  0  0  0  0  0  0  0  0
   -0.9360   -1.1564   -0.1947 C   0  0  0  0  0  0  0  0  0  0  0  0
   -1.2257    0.0005    0.5051 C   0  0  0  0  0  0  0  0  0  0  0  0
   -2.5570    0.3556    0.7514 C   0  0  0  0  0  0  0  0  0  0  0  0
   -3.6037   -0.4035    0.3232 C   0  0  0  0  0  0  0  0  0  0  0  0
   -5.0076   -0.0190    0.5746 C   0  0  0  0  0  0  0  0  0  0  0  0
   -5.5348    0.9603   -0.4574 C   0  0  0  0  0  0  0  0  0  0  0  0
   -6.8939    1.4944   -0.0633 C   0  0  0  0  0  0  0  0  0  0  0  0
   -6.7600    2.2858    1.1369 N   0  0  0  0  0  0  0  0  0  0  0  0
   -7.9030    2.0850    1.9940 C   0  0  0  0  0  0  0  0  0  0  0  0
   -5.5077    2.0308    1.8198 C   0  0  0  0  0  0  0  0  0  0  0  0
   -5.2574    0.5519    1.9390 C   0  0  0  0  0  0  0  0  0  0  0  0
   -3.3271   -1.5687   -0.3809 C   0  0  0  0  0  0  0  0  0  0  0  0
   -2.0079   -1.9006   -0.6138 C   0  0  0  0  0  0  0  0  0  0  0  0
    0.8078   -2.6795   -1.1445 C   0  0  0  0  0  0  0  0  0  0  0  0
    2.1289   -3.0253   -1.3743 C   0  0  0  0  0  0  0  0  0  0  0  0
    2.7094   -4.0681   -2.0124 N   0  0  0  0  0  0  0  0  0  0  0  0
    3.9977   -3.9420   -1.9534 N   0  0  0  0  0  0  0  0  0  0  0  0
    4.9661   -4.8551   -2.5172 C   0  0  0  0  0  0  0  0  0  0  0  0
    4.3273   -2.8221   -1.2790 C   0  0  0  0  0  0  0  0  0  0  0  0
    3.1314   -2.2314   -0.9060 C   0  0  0  0  0  0  0  0  0  0  0  0
    5.2993    1.5386    0.0309 C   0  0  1  0  0  0  0  0  0  0  0  0
    4.9942    1.7934   -1.4012 C   0  0  0  0  0  0  0  0  0  0  0  0
    4.8346    3.2504   -1.4383 N   0  0  0  0  0  0  0  0  0  0  0  0
    4.8172    3.7785   -0.1037 C   0  0  0  0  0  0  0  0  0  0  0  0
    5.0328    4.9585    0.2618 O   0  0  0  0  0  0  0  0  0  0  0  0
    4.4760    2.5895    0.7475 C   0  0  0  0  0  0  0  0  0  0  0  0
    5.0072   -0.9991    2.3046 H   0  0  0  0  0  0  0  0  0  0  0  0
    4.7770    0.7451    2.6089 H   0  0  0  0  0  0  0  0  0  0  0  0
    6.4097    0.2017    2.1067 H   0  0  0  0  0  0  0  0  0  0  0  0
    5.7238   -0.5042    0.0175 H   0  0  0  0  0  0  0  0  0  0  0  0
   -0.4175    0.6424    0.8703 H   0  0  0  0  0  0  0  0  0  0  0  0
   -2.7004    1.2784    1.3114 H   0  0  0  0  0  0  0  0  0  0  0  0
   -5.6036   -0.9797    0.4989 H   0  0  0  0  0  0  0  0  0  0  0  0
   -5.7142    0.3502   -1.3876 H   0  0  0  0  0  0  0  0  0  0  0  0
   -4.8789    1.8057   -0.6584 H   0  0  0  0  0  0  0  0  0  0  0  0
   -7.6664    0.7064    0.0249 H   0  0  0  0  0  0  0  0  0  0  0  0
   -7.2185    2.1731   -0.8873 H   0  0  0  0  0  0  0  0  0  0  0  0
   -7.5930    2.2692    3.0385 H   0  0  0  0  0  0  0  0  0  0  0  0
   -8.6990    2.8395    1.7437 H   0  0  0  0  0  0  0  0  0  0  0  0
   -8.3637    1.0965    1.8445 H   0  0  0  0  0  0  0  0  0  0  0  0
   -5.5525    2.5164    2.8245 H   0  0  0  0  0  0  0  0  0  0  0  0
   -4.7137    2.4971    1.2245 H   0  0  0  0  0  0  0  0  0  0  0  0
   -6.1606    0.0661    2.3766 H   0  0  0  0  0  0  0  0  0  0  0  0
   -4.4356    0.3366    2.6514 H   0  0  0  0  0  0  0  0  0  0  0  0
   -4.1503   -2.2028   -0.7397 H   0  0  0  0  0  0  0  0  0  0  0  0
   -1.8285   -2.8189   -1.1683 H   0  0  0  0  0  0  0  0  0  0  0  0
    0.0714   -3.3371   -1.5313 H   0  0  0  0  0  0  0  0  0  0  0  0
    4.6176   -5.2485   -3.4999 H   0  0  0  0  0  0  0  0  0  0  0  0
    5.0919   -5.6797   -1.7696 H   0  0  0  0  0  0  0  0  0  0  0  0
    5.9260   -4.3454   -2.6785 H   0  0  0  0  0  0  0  0  0  0  0  0
    5.3103   -2.4419   -1.0629 H   0  0  0  0  0  0  0  0  0  0  0  0
    6.3639    1.7829    0.2171 H   0  0  0  0  0  0  0  0  0  0  0  0
    4.0546    1.2980   -1.6937 H   0  0  0  0  0  0  0  0  0  0  0  0
    5.7941    1.4762   -2.1080 H   0  0  0  0  0  0  0  0  0  0  0  0
    4.7457    3.8377   -2.2828 H   0  0  0  0  0  0  0  0  0  0  0  0
    3.3791    2.4323    0.6025 H   0  0  0  0  0  0  0  0  0  0  0  0
    4.7660    2.7259    1.7888 H   0  0  0  0  0  0  0  0  0  0  0  0
  1  2  1  0
  2  3  1  0
  3  4  1  0
  4  5  2  0
  5  6  1  0
  6  7  1  0
  7  8  2  0
  8  9  1  0
  9 10  2  0
 10 11  1  0
 11 12  1  0
 12 13  1  0
 13 14  1  0
 14 15  1  0
 14 16  1  0
 16 17  1  0
 10 18  1  0
 18 19  2  0
  6 20  2  0
 20 21  1  0
 21 22  2  0
 22 23  1  0
 23 24  1  0
 23 25  1  0
 25 26  2  0
  2 27  1  0
 27 28  1  0
 28 29  1  0
 29 30  1  0
 30 31  2  0
 30 32  1  0
 26  4  1  0
 32 27  1  0
 19  7  1  0
 26 21  1  0
 17 11  1  0
  1 33  1  0
  1 34  1  0
  1 35  1  0
  2 36  1  6
  8 37  1  0
  9 38  1  0
 11 39  1  0
 12 40  1  0
 12 41  1  0
 13 42  1  0
 13 43  1  0
 15 44  1  0
 15 45  1  0
 15 46  1  0
 16 47  1  0
 16 48  1  0
 17 49  1  0
 17 50  1  0
 18 51  1  0
 19 52  1  0
 20 53  1  0
 24 54  1  0
 24 55  1  0
 24 56  1  0
 25 57  1  0
 27 58  1  6
 28 59  1  0
 28 60  1  0
 29 61  1  0
 32 62  1  0
 32 63  1  0
M  END
$$$$
