@<TRIPOS>MOLECULE
*****
 60 62 0 0 0
SMALL
GASTEIGER

@<TRIPOS>ATOM
      1 C           0.7629    2.0973   -1.0366 C.3     1  UNL1        0.1022
      2 C           0.6679    3.5685   -1.3910 C.3     1  UNL1       -0.0243
      3 C          -0.7500    3.6417   -1.9448 C.3     1  UNL1       -0.0350
      4 C          -0.9825    2.1717   -2.2217 C.3     1  UNL1        0.0155
      5 N          -0.5878    1.5971   -0.9233 N.am    1  UNL1       -0.2899
      6 C          -1.3381    0.8321    0.0441 C.2     1  UNL1        0.2162
      7 O          -1.0306    0.3260    1.1514 O.2     1  UNL1       -0.2756
      8 C          -2.7508    0.6267   -0.3982 C.3     1  UNL1        0.0244
      9 C          -3.5549   -0.1345    0.5912 C.3     1  UNL1       -0.0419
     10 C          -4.9714   -0.2946    0.1273 C.3     1  UNL1       -0.0406
     11 C          -5.7961   -1.0695    1.1571 C.3     1  UNL1       -0.0502
     12 C          -6.2715   -2.3615    0.5771 C.3     1  UNL1       -0.0528
     13 C          -5.1350   -3.1224   -0.0605 C.3     1  UNL1       -0.0530
     14 C          -4.5894   -2.3569   -1.2296 C.3     1  UNL1       -0.0528
     15 C          -5.1187   -0.9342   -1.2279 C.3     1  UNL1       -0.0502
     16 C           1.5918    1.8853    0.1630 C.2     1  UNL1        0.2338
     17 O           1.3689    1.3647    1.2859 O.2     1  UNL1       -0.2738
     18 N           2.9130    2.3793   -0.0059 N.am    1  UNL1       -0.3097
     19 C           3.9573    2.3223    0.9829 C.3     1  UNL1        0.0369
     20 C           4.5702    0.9782    1.1320 C.ar    1  UNL1       -0.0303
     21 C           5.6366    0.7692    0.2474 C.ar    1  UNL1       -0.0563
     22 C           6.3684   -0.4213    0.2082 C.ar    1  UNL1       -0.0466
     23 C           6.0256   -1.4342    1.0782 C.ar    1  UNL1        0.0647
     24 C           4.9769   -1.2375    1.9531 C.ar    1  UNL1       -0.0466
     25 C           4.2486   -0.0688    2.0009 C.ar    1  UNL1       -0.0563
     26 C           6.7494   -2.7038    1.0842 C.2     1  UNL1        0.3081
     27 N           6.1484   -3.9250    1.5035 N.pl3   1  UNL1       -0.2466
     28 N           7.9764   -2.8607    0.7212 N.2     1  UNL1       -0.0994
     29 H           1.2553    1.5508   -1.8851 H       1  UNL1        0.0597
     30 H           1.3526    3.7712   -2.2359 H       1  UNL1        0.0288
     31 H           0.8028    4.2268   -0.5201 H       1  UNL1        0.0288
     32 H          -0.8284    4.2754   -2.8319 H       1  UNL1        0.0281
     33 H          -1.4470    3.9526   -1.1265 H       1  UNL1        0.0281
     34 H          -0.2982    1.8460   -3.0322 H       1  UNL1        0.0465
     35 H          -2.0413    1.9286   -2.4453 H       1  UNL1        0.0465
     36 H          -2.7262    0.0667   -1.3685 H       1  UNL1        0.0358
     37 H          -3.1667    1.6268   -0.6216 H       1  UNL1        0.0358
     38 H          -3.1588   -1.1874    0.7108 H       1  UNL1        0.0272
     39 H          -3.4940    0.2775    1.6243 H       1  UNL1        0.0272
     40 H          -5.4774    0.7103    0.0351 H       1  UNL1        0.0301
     41 H          -6.6817   -0.4930    1.5022 H       1  UNL1        0.0268
     42 H          -5.1752   -1.2450    2.0706 H       1  UNL1        0.0268
     43 H          -6.7097   -2.9720    1.4042 H       1  UNL1        0.0265
     44 H          -7.0804   -2.1831   -0.1591 H       1  UNL1        0.0265
     45 H          -5.5080   -4.1458   -0.3477 H       1  UNL1        0.0265
     46 H          -4.3440   -3.2852    0.7169 H       1  UNL1        0.0265
     47 H          -3.4823   -2.3516   -1.2589 H       1  UNL1        0.0265
     48 H          -4.9369   -2.7991   -2.1989 H       1  UNL1        0.0265
     49 H          -4.5462   -0.3414   -1.9610 H       1  UNL1        0.0268
     50 H          -6.2065   -0.9389   -1.4746 H       1  UNL1        0.0268
     51 H           3.2654    2.8469   -0.8957 H       1  UNL1        0.1491
     52 H           4.7531    3.0634    0.8584 H       1  UNL1        0.0512
     53 H           3.4618    2.6087    1.9599 H       1  UNL1        0.0512
     54 H           5.9785    1.5035   -0.4715 H       1  UNL1        0.0621
     55 H           7.1854   -0.5636   -0.4791 H       1  UNL1        0.0626
     56 H           4.6500   -1.9729    2.6590 H       1  UNL1        0.0626
     57 H           3.4283    0.1808    2.6360 H       1  UNL1        0.0621
     58 H           5.7788   -4.8211    1.1576 H       1  UNL1        0.2884
     59 H           5.8275   -4.7609    0.9546 H       1  UNL1        0.2884
     60 H           8.4838   -2.0100    0.4000 H       1  UNL1        0.3633
@<TRIPOS>BOND
     1     1     2    1
     2     2     3    1
     3     3     4    1
     4     4     5    1
     5     5     6   am
     6     6     7    2
     7     6     8    1
     8     8     9    1
     9     9    10    1
    10    10    11    1
    11    11    12    1
    12    12    13    1
    13    13    14    1
    14    14    15    1
    15     1    16    1
    16    16    17    2
    17    16    18   am
    18    18    19    1
    19    19    20    1
    20    20    21   ar
    21    21    22   ar
    22    22    23   ar
    23    23    24   ar
    24    24    25   ar
    25    23    26    1
    26    26    27    1
    27    26    28    2
    28     5     1    1
    29    15    10    1
    30    25    20   ar
    31     1    29    1
    32     2    30    1
    33     2    31    1
    34     3    32    1
    35     3    33    1
    36     4    34    1
    37     4    35    1
    38     8    36    1
    39     8    37    1
    40     9    38    1
    41     9    39    1
    42    10    40    1
    43    11    41    1
    44    11    42    1
    45    12    43    1
    46    12    44    1
    47    13    45    1
    48    13    46    1
    49    14    47    1
    50    14    48    1
    51    15    49    1
    52    15    50    1
    53    18    51    1
    54    19    52    1
    55    19    53    1
    56    21    54    1
    57    22    55    1
    58    24    56    1
    59    25    57    1
    60    27    58    1
    61    27    59    1
    62    28    60    1
