
     RDKit          3D

 60 62  0  0  0  0  0  0  0  0999 V2000
    0.7629    2.0973   -1.0366 C   0  0  2  0  0  0  0  0  0  0  0  0
    0.6679    3.5685   -1.3910 C   0  0  0  0  0  0  0  0  0  0  0  0
   -0.7500    3.6417   -1.9448 C   0  0  0  0  0  0  0  0  0  0  0  0
   -0.9825    2.1717   -2.2217 C   0  0  0  0  0  0  0  0  0  0  0  0
   -0.5878    1.5971   -0.9233 N   0  0  0  0  0  0  0  0  0  0  0  0
   -1.3381    0.8321    0.0441 C   0  0  0  0  0  0  0  0  0  0  0  0
   -1.0306    0.3260    1.1514 O   0  0  0  0  0  0  0  0  0  0  0  0
   -2.7508    0.6267   -0.3982 C   0  0  0  0  0  0  0  0  0  0  0  0
   -3.5549   -0.1345    0.5912 C   0  0  0  0  0  0  0  0  0  0  0  0
   -4.9714   -0.2946    0.1273 C   0  0  0  0  0  0  0  0  0  0  0  0
   -5.7961   -1.0695    1.1571 C   0  0  0  0  0  0  0  0  0  0  0  0
   -6.2715   -2.3615    0.5771 C   0  0  0  0  0  0  0  0  0  0  0  0
   -5.1350   -3.1224   -0.0605 C   0  0  0  0  0  0  0  0  0  0  0  0
   -4.5894   -2.3569   -1.2296 C   0  0  0  0  0  0  0  0  0  0  0  0
   -5.1187   -0.9342   -1.2279 C   0  0  0  0  0  0  0  0  0  0  0  0
    1.5918    1.8853    0.1630 C   0  0  0  0  0  0  0  0  0  0  0  0
    1.3689    1.3647    1.2859 O   0  0  0  0  0  0  0  0  0  0  0  0
    2.9130    2.3793   -0.0059 N   0  0  0  0  0  0  0  0  0  0  0  0
    3.9573    2.3223    0.9829 C   0  0  0  0  0  0  0  0  0  0  0  0
    4.5702    0.9782    1.1320 C   0  0  0  0  0  0  0  0  0  0  0  0
    5.6366    0.7692    0.2474 C   0  0  0  0  0  0  0  0  0  0  0  0
    6.3684   -0.4213    0.2082 C   0  0  0  0  0  0  0  0  0  0  0  0
    6.0256   -1.4342    1.0782 C   0  0  0  0  0  0  0  0  0  0  0  0
    4.9769   -1.2375    1.9531 C   0  0  0  0  0  0  0  0  0  0  0  0
    4.2486   -0.0688    2.0009 C   0  0  0  0  0  0  0  0  0  0  0  0
    6.7494   -2.7038    1.0842 C   0  0  0  0  0  0  0  0  0  0  0  0
    6.1484   -3.9250    1.5035 N   0  0  0  0  0  0  0  0  0  0  0  0
    7.9764   -2.8607    0.7212 N   0  0  0  0  0  0  0  0  0  0  0  0
    1.2553    1.5508   -1.8851 H   0  0  0  0  0  0  0  0  0  0  0  0
    1.3526    3.7712   -2.2359 H   0  0  0  0  0  0  0  0  0  0  0  0
    0.8028    4.2268   -0.5201 H   0  0  0  0  0  0  0  0  0  0  0  0
   -0.8284    4.2754   -2.8319 H   0  0  0  0  0  0  0  0  0  0  0  0
   -1.4470    3.9526   -1.1265 H   0  0  0  0  0  0  0  0  0  0  0  0
   -0.2982    1.8460   -3.0322 H   0  0  0  0  0  0  0  0  0  0  0  0
   -2.0413    1.9286   -2.4453 H   0  0  0  0  0  0  0  0  0  0  0  0
   -2.7262    0.0667   -1.3685 H   0  0  0  0  0  0  0  0  0  0  0  0
   -3.1667    1.6268   -0.6216 H   0  0  0  0  0  0  0  0  0  0  0  0
   -3.1588   -1.1874    0.7108 H   0  0  0  0  0  0  0  0  0  0  0  0
   -3.4940    0.2775    1.6243 H   0  0  0  0  0  0  0  0  0  0  0  0
   -5.4774    0.7103    0.0351 H   0  0  0  0  0  0  0  0  0  0  0  0
   -6.6817   -0.4930    1.5022 H   0  0  0  0  0  0  0  0  0  0  0  0
   -5.1752   -1.2450    2.0706 H   0  0  0  0  0  0  0  0  0  0  0  0
   -6.7097   -2.9720    1.4042 H   0  0  0  0  0  0  0  0  0  0  0  0
   -7.0804   -2.1831   -0.1591 H   0  0  0  0  0  0  0  0  0  0  0  0
   -5.5080   -4.1458   -0.3477 H   0  0  0  0  0  0  0  0  0  0  0  0
   -4.3440   -3.2852    0.7169 H   0  0  0  0  0  0  0  0  0  0  0  0
   -3.4823   -2.3516   -1.2589 H   0  0  0  0  0  0  0  0  0  0  0  0
   -4.9369   -2.7991   -2.1989 H   0  0  0  0  0  0  0  0  0  0  0  0
   -4.5462   -0.3414   -1.9610 H   0  0  0  0  0  0  0  0  0  0  0  0
   -6.2065   -0.9389   -1.4746 H   0  0  0  0  0  0  0  0  0  0  0  0
    3.2654    2.8469   -0.8957 H   0  0  0  0  0  0  0  0  0  0  0  0
    4.7531    3.0634    0.8584 H   0  0  0  0  0  0  0  0  0  0  0  0
    3.4618    2.6087    1.9599 H   0  0  0  0  0  0  0  0  0  0  0  0
    5.9785    1.5035   -0.4715 H   0  0  0  0  0  0  0  0  0  0  0  0
    7.1854   -0.5636   -0.4791 H   0  0  0  0  0  0  0  0  0  0  0  0
    4.6500   -1.9729    2.6590 H   0  0  0  0  0  0  0  0  0  0  0  0
    3.4283    0.1808    2.6360 H   0  0  0  0  0  0  0  0  0  0  0  0
    5.7788   -4.8211    1.1576 H   0  0  0  0  0  0  0  0  0  0  0  0
    5.8275   -4.7609    0.9546 H   0  0  0  0  0  0  0  0  0  0  0  0
    8.4838   -2.0100    0.4000 H   0  0  0  0  0  0  0  0  0  0  0  0
  1  2  1  0
  2  3  1  0
  3  4  1  0
  4  5  1  0
  5  6  1  0
  6  7  2  0
  6  8  1  0
  8  9  1  0
  9 10  1  0
 10 11  1  0
 11 12  1  0
 12 13  1  0
 13 14  1  0
 14 15  1  0
  1 16  1  0
 16 17  2  0
 16 18  1  0
 18 19  1  0
 19 20  1  0
 20 21  2  0
 21 22  1  0
 22 23  2  0
 23 24  1  0
 24 25  2  0
 23 26  1  0
 26 27  1  0
 26 28  2  3
  5  1  1  0
 15 10  1  0
 25 20  1  0
  1 29  1  6
  2 30  1  0
  2 31  1  0
  3 32  1  0
  3 33  1  0
  4 34  1  0
  4 35  1  0
  8 36  1  0
  8 37  1  0
  9 38  1  0
  9 39  1  0
 10 40  1  0
 11 41  1  0
 11 42  1  0
 12 43  1  0
 12 44  1  0
 13 45  1  0
 13 46  1  0
 14 47  1  0
 14 48  1  0
 15 49  1  0
 15 50  1  0
 18 51  1  0
 19 52  1  0
 19 53  1  0
 21 54  1  0
 22 55  1  0
 24 56  1  0
 25 57  1  0
 27 58  1  0
 27 59  1  0
 28 60  1  0
M  END
$$$$
