
     RDKit          3D

 52 56  0  0  0  0  0  0  0  0999 V2000
    6.7239   -2.2516    1.8910 C   0  0  0  0  0  0  0  0  0  0  0  0
    5.2766   -1.9092    2.1130 C   0  0  0  0  0  0  0  0  0  0  0  0
    4.6781   -1.4339    0.9225 O   0  0  0  0  0  0  0  0  0  0  0  0
    3.3580   -1.0468    0.8377 C   0  0  0  0  0  0  0  0  0  0  0  0
    2.6381   -1.1120    1.8532 O   0  0  0  0  0  0  0  0  0  0  0  0
    2.8489   -0.5836   -0.4019 N   0  0  0  0  0  0  0  0  0  0  0  0
    3.5207   -0.4624   -1.5814 C   0  0  0  0  0  0  0  0  0  0  0  0
    2.6738   -0.0032   -2.5650 C   0  0  0  0  0  0  0  0  0  0  0  0
    1.4304    0.1549   -1.9428 C   0  0  0  0  0  0  0  0  0  0  0  0
    1.5764   -0.1941   -0.6461 C   0  0  0  0  0  0  0  0  0  0  0  0
    0.2729    0.1484    0.0301 C   0  0  0  0  0  0  0  0  0  0  0  0
    0.3881    1.5664    0.5336 C   0  0  0  0  0  0  0  0  0  0  0  0
   -0.6893    2.3368    0.8392 C   0  0  0  0  0  0  0  0  0  0  0  0
   -0.5518    3.6607    1.2975 C   0  0  0  0  0  0  0  0  0  0  0  0
    0.6873    4.2025    1.4450 C   0  0  0  0  0  0  0  0  0  0  0  0
    0.8247    5.8480    2.0160 Cl  0  0  0  0  0  0  0  0  0  0  0  0
    1.7769    3.4467    1.1437 C   0  0  0  0  0  0  0  0  0  0  0  0
    1.6309    2.1247    0.6863 C   0  0  0  0  0  0  0  0  0  0  0  0
   -0.6702    0.1172   -1.0354 N   0  0  0  0  0  0  0  0  0  0  0  0
   -2.0721   -0.1753   -0.9255 C   0  0  0  0  0  0  0  0  0  0  0  0
   -2.8918   -0.0660   -2.0066 C   0  0  0  0  0  0  0  0  0  0  0  0
   -4.2505   -0.3884   -1.9147 C   0  0  0  0  0  0  0  0  0  0  0  0
   -5.1213   -0.2592   -3.1122 C   0  0  0  0  0  0  0  0  0  0  0  0
   -4.7083   -0.8154   -0.6930 C   0  0  0  0  0  0  0  0  0  0  0  0
   -5.9532   -1.1802   -0.3493 N   0  0  0  0  0  0  0  0  0  0  0  0
   -5.9117   -1.5126    0.9280 N   0  0  0  0  0  0  0  0  0  0  0  0
   -4.6526   -1.3543    1.3682 C   0  0  0  0  0  0  0  0  0  0  0  0
   -4.1603   -1.6174    2.7559 C   0  0  0  0  0  0  0  0  0  0  0  0
   -3.8777   -0.9139    0.3564 N   0  0  0  0  0  0  0  0  0  0  0  0
   -2.5800   -0.6073    0.2738 C   0  0  0  0  0  0  0  0  0  0  0  0
   -0.0010    0.3875   -2.2446 C   0  0  0  0  0  0  0  0  0  0  0  0
   -0.3942    0.7457   -3.3749 O   0  0  0  0  0  0  0  0  0  0  0  0
    6.9058   -2.5513    0.8281 H   0  0  0  0  0  0  0  0  0  0  0  0
    7.3920   -1.4188    2.1878 H   0  0  0  0  0  0  0  0  0  0  0  0
    7.0018   -3.1395    2.5065 H   0  0  0  0  0  0  0  0  0  0  0  0
    5.1661   -1.2392    2.9655 H   0  0  0  0  0  0  0  0  0  0  0  0
    4.7541   -2.8749    2.3520 H   0  0  0  0  0  0  0  0  0  0  0  0
    4.5597   -0.7015   -1.6837 H   0  0  0  0  0  0  0  0  0  0  0  0
    2.8903    0.2036   -3.6114 H   0  0  0  0  0  0  0  0  0  0  0  0
    0.0545   -0.5477    0.8579 H   0  0  0  0  0  0  0  0  0  0  0  0
   -1.6787    1.9547    0.7346 H   0  0  0  0  0  0  0  0  0  0  0  0
   -1.4434    4.2296    1.5265 H   0  0  0  0  0  0  0  0  0  0  0  0
    2.7532    3.8569    1.2540 H   0  0  0  0  0  0  0  0  0  0  0  0
    2.5401    1.6007    0.4621 H   0  0  0  0  0  0  0  0  0  0  0  0
   -2.5528    0.2748   -2.9998 H   0  0  0  0  0  0  0  0  0  0  0  0
   -4.9575   -1.1810   -3.7190 H   0  0  0  0  0  0  0  0  0  0  0  0
   -4.8247    0.5945   -3.7354 H   0  0  0  0  0  0  0  0  0  0  0  0
   -6.1709   -0.2222   -2.7815 H   0  0  0  0  0  0  0  0  0  0  0  0
   -3.4673   -0.8125    3.0611 H   0  0  0  0  0  0  0  0  0  0  0  0
   -3.7446   -2.6234    2.8616 H   0  0  0  0  0  0  0  0  0  0  0  0
   -5.0338   -1.5460    3.4543 H   0  0  0  0  0  0  0  0  0  0  0  0
   -1.9638   -0.7094    1.1609 H   0  0  0  0  0  0  0  0  0  0  0  0
  1  2  1  0
  2  3  1  0
  3  4  1  0
  4  5  2  0
  4  6  1  0
  6  7  1  0
  7  8  2  0
  8  9  1  0
  9 10  2  0
 10 11  1  0
 11 12  1  0
 12 13  2  0
 13 14  1  0
 14 15  2  0
 15 16  1  0
 15 17  1  0
 17 18  2  0
 11 19  1  0
 19 20  1  0
 20 21  1  0
 21 22  2  0
 22 23  1  0
 22 24  1  0
 24 25  2  0
 25 26  1  0
 26 27  2  0
 27 28  1  0
 27 29  1  0
 29 30  1  0
 19 31  1  0
 31 32  2  0
 10  6  1  0
 18 12  1  0
 30 20  2  0
 31  9  1  0
 29 24  1  0
  1 33  1  0
  1 34  1  0
  1 35  1  0
  2 36  1  0
  2 37  1  0
  7 38  1  0
  8 39  1  0
 11 40  1  0
 13 41  1  0
 14 42  1  0
 17 43  1  0
 18 44  1  0
 21 45  1  0
 23 46  1  0
 23 47  1  0
 23 48  1  0
 28 49  1  0
 28 50  1  0
 28 51  1  0
 30 52  1  0
M  END
$$$$
