@<TRIPOS>MOLECULE
*****
 52 56 0 0 0
SMALL
GASTEIGER

@<TRIPOS>ATOM
      1 C           6.7239   -2.2516    1.8910 C.3     1  UNL1       -0.0305
      2 C           5.2766   -1.9092    2.1130 C.3     1  UNL1        0.0915
      3 O           4.6781   -1.4339    0.9225 O.3     1  UNL1       -0.4485
      4 C           3.3580   -1.0468    0.8377 C.2     1  UNL1        0.4197
      5 O           2.6381   -1.1120    1.8532 O.2     1  UNL1       -0.2227
      6 N           2.8489   -0.5836   -0.4019 N.ar    1  UNL1       -0.2542
      7 C           3.5207   -0.4624   -1.5814 C.ar    1  UNL1        0.0167
      8 C           2.6738   -0.0032   -2.5650 C.ar    1  UNL1       -0.0311
      9 C           1.4304    0.1549   -1.9428 C.ar    1  UNL1        0.0606
     10 C           1.5764   -0.1941   -0.6461 C.ar    1  UNL1        0.0668
     11 C           0.2729    0.1484    0.0301 C.3     1  UNL1        0.0978
     12 C           0.3881    1.5664    0.5336 C.ar    1  UNL1       -0.0208
     13 C          -0.6893    2.3368    0.8392 C.ar    1  UNL1       -0.0550
     14 C          -0.5518    3.6607    1.2975 C.ar    1  UNL1       -0.0431
     15 C           0.6873    4.2025    1.4450 C.ar    1  UNL1        0.0410
     16 CL          0.8247    5.8480    2.0160 Cl      1  UNL1       -0.0835
     17 C           1.7769    3.4467    1.1437 C.ar    1  UNL1       -0.0431
     18 C           1.6309    2.1247    0.6863 C.ar    1  UNL1       -0.0550
     19 N          -0.6702    0.1172   -1.0354 N.am    1  UNL1       -0.2530
     20 C          -2.0721   -0.1753   -0.9255 C.ar    1  UNL1        0.0545
     21 C          -2.8918   -0.0660   -2.0066 C.ar    1  UNL1       -0.0324
     22 C          -4.2505   -0.3884   -1.9147 C.ar    1  UNL1       -0.0041
     23 C          -5.1213   -0.2592   -3.1122 C.3     1  UNL1       -0.0361
     24 C          -4.7083   -0.8154   -0.6930 C.ar    1  UNL1        0.1641
     25 N          -5.9532   -1.1802   -0.3493 N.ar    1  UNL1       -0.1292
     26 N          -5.9117   -1.5126    0.9280 N.ar    1  UNL1       -0.1340
     27 C          -4.6526   -1.3543    1.3682 C.ar    1  UNL1        0.1347
     28 C          -4.1603   -1.6174    2.7559 C.3     1  UNL1       -0.0041
     29 N          -3.8777   -0.9139    0.3564 N.ar    1  UNL1       -0.2846
     30 C          -2.5800   -0.6073    0.2738 C.ar    1  UNL1        0.0344
     31 C          -0.0010    0.3875   -2.2446 C.2     1  UNL1        0.2535
     32 O          -0.3942    0.7457   -3.3749 O.2     1  UNL1       -0.2695
     33 H           6.9058   -2.5513    0.8281 H       1  UNL1        0.0262
     34 H           7.3920   -1.4188    2.1878 H       1  UNL1        0.0262
     35 H           7.0018   -3.1395    2.5065 H       1  UNL1        0.0262
     36 H           5.1661   -1.2392    2.9655 H       1  UNL1        0.0695
     37 H           4.7541   -2.8749    2.3520 H       1  UNL1        0.0695
     38 H           4.5597   -0.7015   -1.6837 H       1  UNL1        0.0815
     39 H           2.8903    0.2036   -3.6114 H       1  UNL1        0.0640
     40 H           0.0545   -0.5477    0.8579 H       1  UNL1        0.0620
     41 H          -1.6787    1.9547    0.7346 H       1  UNL1        0.0621
     42 H          -1.4434    4.2296    1.5265 H       1  UNL1        0.0632
     43 H           2.7532    3.8569    1.2540 H       1  UNL1        0.0632
     44 H           2.5401    1.6007    0.4621 H       1  UNL1        0.0621
     45 H          -2.5528    0.2748   -2.9998 H       1  UNL1        0.0640
     46 H          -4.9575   -1.1810   -3.7190 H       1  UNL1        0.0279
     47 H          -4.8247    0.5945   -3.7354 H       1  UNL1        0.0279
     48 H          -6.1709   -0.2222   -2.7815 H       1  UNL1        0.0279
     49 H          -3.4673   -0.8125    3.0611 H       1  UNL1        0.0308
     50 H          -3.7446   -2.6234    2.8616 H       1  UNL1        0.0308
     51 H          -5.0338   -1.5460    3.4543 H       1  UNL1        0.0308
     52 H          -1.9638   -0.7094    1.1609 H       1  UNL1        0.0833
@<TRIPOS>BOND
     1     1     2    1
     2     2     3    1
     3     3     4    1
     4     4     5    2
     5     4     6   am
     6     6     7   ar
     7     7     8   ar
     8     8     9   ar
     9     9    10   ar
    10    10    11    1
    11    11    12    1
    12    12    13   ar
    13    13    14   ar
    14    14    15   ar
    15    15    16    1
    16    15    17   ar
    17    17    18   ar
    18    11    19    1
    19    19    20    1
    20    20    21   ar
    21    21    22   ar
    22    22    23    1
    23    22    24   ar
    24    24    25   ar
    25    25    26   ar
    26    26    27   ar
    27    27    28    1
    28    27    29   ar
    29    29    30   ar
    30    19    31   am
    31    31    32    2
    32    10     6   ar
    33    18    12   ar
    34    30    20   ar
    35    31     9    1
    36    29    24   ar
    37     1    33    1
    38     1    34    1
    39     1    35    1
    40     2    36    1
    41     2    37    1
    42     7    38    1
    43     8    39    1
    44    11    40    1
    45    13    41    1
    46    14    42    1
    47    17    43    1
    48    18    44    1
    49    21    45    1
    50    23    46    1
    51    23    47    1
    52    23    48    1
    53    28    49    1
    54    28    50    1
    55    28    51    1
    56    30    52    1
