@<TRIPOS>MOLECULE
*****
 45 48 0 0 0
SMALL
GASTEIGER

@<TRIPOS>ATOM
      1 N          -2.9831    3.8828    1.5725 N.am    1  UNL1       -0.3253
      2 C          -1.6019    3.8412    1.8935 C.2     1  UNL1        0.2441
      3 O          -1.0926    4.7692    2.5246 O.2     1  UNL1       -0.2703
      4 C          -0.7704    2.7036    1.4818 C.ar    1  UNL1        0.0689
      5 C           0.5744    2.6455    1.7843 C.ar    1  UNL1        0.0429
      6 N           1.2312    1.5624    1.3589 N.ar    1  UNL1       -0.2391
      7 C           0.7144    0.5477    0.6791 C.ar    1  UNL1        0.1273
      8 N           1.5585   -0.5204    0.3084 N.pl3   1  UNL1       -0.3245
      9 C           2.9540   -0.5014    0.6407 C.3     1  UNL1        0.0345
     10 C           3.5684   -1.8494    0.2449 C.3     1  UNL1       -0.0322
     11 C           4.9812   -1.5569   -0.2155 C.3     1  UNL1       -0.0387
     12 C           5.6007   -0.6164    0.7986 C.3     1  UNL1       -0.0040
     13 N           5.0247    0.6980    0.6075 N.3     1  UNL1       -0.3142
     14 C           3.7265    0.6134   -0.0569 C.3     1  UNL1        0.0143
     15 C          -0.6682    0.5409    0.3320 C.ar    1  UNL1        0.0302
     16 C          -1.3435   -0.3833   -0.3378 C.ar    1  UNL1       -0.0359
     17 C          -2.6738   -0.2399   -0.5903 C.ar    1  UNL1        0.0206
     18 C          -3.6731   -1.0231   -1.2637 C.ar    1  UNL1       -0.0113
     19 C          -4.9585   -0.5332   -1.3161 C.ar    1  UNL1       -0.0535
     20 C          -5.9487   -1.2579   -1.9555 C.ar    1  UNL1       -0.0612
     21 C          -5.6604   -2.4648   -2.5400 C.ar    1  UNL1       -0.0617
     22 C          -4.3694   -2.9441   -2.4805 C.ar    1  UNL1       -0.0612
     23 C          -3.3886   -2.2193   -1.8434 C.ar    1  UNL1       -0.0535
     24 S          -2.9870    1.3900    0.2175 S.2     1  UNL1       -0.0873
     25 C          -1.3357    1.6461    0.7667 C.ar    1  UNL1        0.0367
     26 H          -3.7217    3.6118    2.2271 H       1  UNL1        0.1453
     27 H          -3.2677    4.2078    0.6146 H       1  UNL1        0.1453
     28 H           1.0710    3.4278    2.3327 H       1  UNL1        0.0838
     29 H           1.1477   -1.3205   -0.2103 H       1  UNL1        0.1478
     30 H           3.0840   -0.3339    1.7280 H       1  UNL1        0.0510
     31 H           2.9575   -2.3462   -0.5300 H       1  UNL1        0.0284
     32 H           3.6493   -2.4754    1.1623 H       1  UNL1        0.0284
     33 H           5.0273   -1.1684   -1.2470 H       1  UNL1        0.0278
     34 H           5.5373   -2.5285   -0.2299 H       1  UNL1        0.0278
     35 H           5.4424   -1.0334    1.7947 H       1  UNL1        0.0424
     36 H           6.7072   -0.5847    0.5899 H       1  UNL1        0.0424
     37 H           4.8369    1.1221    1.5426 H       1  UNL1        0.1220
     38 H           3.8074    0.4629   -1.1373 H       1  UNL1        0.0442
     39 H           3.1895    1.5512    0.1198 H       1  UNL1        0.0442
     40 H          -0.8676   -1.3287   -0.7333 H       1  UNL1        0.0636
     41 H          -5.1900    0.4042   -0.8640 H       1  UNL1        0.0624
     42 H          -6.9787   -0.8946   -2.0134 H       1  UNL1        0.0618
     43 H          -6.4191   -3.0389   -3.0402 H       1  UNL1        0.0618
     44 H          -4.1292   -3.8903   -2.9352 H       1  UNL1        0.0618
     45 H          -2.3628   -2.5747   -1.7823 H       1  UNL1        0.0624
@<TRIPOS>BOND
     1     1     2   am
     2     2     3    2
     3     2     4    1
     4     4     5   ar
     5     5     6   ar
     6     6     7   ar
     7     7     8    1
     8     8     9    1
     9     9    10    1
    10    10    11    1
    11    11    12    1
    12    12    13    1
    13    13    14    1
    14     7    15   ar
    15    15    16   ar
    16    16    17   ar
    17    17    18    1
    18    18    19   ar
    19    19    20   ar
    20    20    21   ar
    21    21    22   ar
    22    22    23   ar
    23    17    24   ar
    24    24    25   ar
    25    25     4   ar
    26    14     9    1
    27    25    15   ar
    28    23    18   ar
    29     1    26    1
    30     1    27    1
    31     5    28    1
    32     8    29    1
    33     9    30    1
    34    10    31    1
    35    10    32    1
    36    11    33    1
    37    11    34    1
    38    12    35    1
    39    12    36    1
    40    13    37    1
    41    14    38    1
    42    14    39    1
    43    16    40    1
    44    19    41    1
    45    20    42    1
    46    21    43    1
    47    22    44    1
    48    23    45    1
