@<TRIPOS>MOLECULE
*****
 53 57 0 0 0
SMALL
GASTEIGER

@<TRIPOS>ATOM
      1 C          -4.2493    0.9014    0.8017 C.3     1  UNL1       -0.0274
      2 C          -3.1311    0.6943   -0.1930 C.3     1  UNL1        0.1037
      3 O          -2.7076   -0.6494   -0.2664 O.3     1  UNL1       -0.4725
      4 C          -1.4001   -1.0426   -0.0230 C.ar    1  UNL1        0.2265
      5 N          -0.4169   -0.1859    0.3042 N.ar    1  UNL1       -0.2121
      6 C           0.8334   -0.5639    0.5367 C.ar    1  UNL1        0.0798
      7 C           1.8891    0.3846    0.8914 C.ar    1  UNL1        0.0380
      8 C           1.7810    1.7510    1.0379 C.ar    1  UNL1        0.0586
      9 N           3.0182    2.2142    1.3725 N.ar    1  UNL1       -0.1787
     10 N           3.8816    1.2362    1.4434 N.ar    1  UNL1       -0.2655
     11 C           5.2982    1.2443    1.7611 C.3     1  UNL1        0.0780
     12 C           5.8961    2.6214    1.5886 C.3     1  UNL1       -0.0048
     13 C           6.6105    2.5489    0.2629 C.3     1  UNL1        0.0498
     14 O           6.3919    1.2936   -0.2636 O.3     1  UNL1       -0.3776
     15 C           6.1079    0.4307    0.7757 C.3     1  UNL1        0.0701
     16 C           3.2103    0.0901    1.1501 C.ar    1  UNL1        0.0351
     17 C           1.1314   -1.9071    0.4354 C.ar    1  UNL1       -0.0076
     18 C           0.1832   -2.8416    0.1063 C.ar    1  UNL1        0.0999
     19 N           0.2257   -4.1832   -0.0520 N.ar    1  UNL1       -0.1712
     20 N          -0.9911   -4.5519   -0.3704 N.ar    1  UNL1       -0.2732
     21 C          -1.3885   -5.9348   -0.6324 C.3     1  UNL1        0.0302
     22 C          -1.8318   -3.5228   -0.4298 C.ar    1  UNL1        0.0380
     23 C          -1.0995   -2.3856   -0.1237 C.ar    1  UNL1        0.0812
     24 C          -3.5563    1.1272   -1.5800 C.3     1  UNL1        0.0196
     25 C          -4.7455    0.3571   -2.0796 C.3     1  UNL1        0.0182
     26 N          -5.8924    1.2189   -1.9171 N.am    1  UNL1       -0.3149
     27 C          -5.4785    2.4756   -1.4316 C.2     1  UNL1        0.2135
     28 O          -6.1494    3.3970   -0.9133 O.2     1  UNL1       -0.2758
     29 C          -3.9927    2.5585   -1.6427 C.3     1  UNL1        0.0315
     30 H          -5.2297    0.6832    0.3051 H       1  UNL1        0.0265
     31 H          -4.1992    1.9038    1.2379 H       1  UNL1        0.0265
     32 H          -4.1762    0.1771    1.6541 H       1  UNL1        0.0265
     33 H          -2.2371    1.2948    0.0836 H       1  UNL1        0.0734
     34 H           0.8966    2.3428    0.9141 H       1  UNL1        0.0854
     35 H           5.4919    0.8359    2.7735 H       1  UNL1        0.0568
     36 H           6.6626    2.7454    2.3811 H       1  UNL1        0.0309
     37 H           5.1204    3.4165    1.6051 H       1  UNL1        0.0309
     38 H           6.1528    3.2892   -0.4529 H       1  UNL1        0.0560
     39 H           7.6996    2.7154    0.3597 H       1  UNL1        0.0560
     40 H           7.0164    0.0013    1.2444 H       1  UNL1        0.0581
     41 H           5.4504   -0.3691    0.3641 H       1  UNL1        0.0581
     42 H           3.6334   -0.9046    1.1204 H       1  UNL1        0.0833
     43 H           2.1501   -2.2131    0.6251 H       1  UNL1        0.0661
     44 H          -1.5704   -6.0996   -1.7071 H       1  UNL1        0.0473
     45 H          -0.6706   -6.6517   -0.2150 H       1  UNL1        0.0473
     46 H          -2.3630   -6.1108   -0.1185 H       1  UNL1        0.0473
     47 H          -2.8851   -3.4735   -0.6594 H       1  UNL1        0.0834
     48 H          -2.7171    0.9959   -2.2855 H       1  UNL1        0.0356
     49 H          -4.6259    0.1663   -3.1652 H       1  UNL1        0.0466
     50 H          -4.8408   -0.5851   -1.4992 H       1  UNL1        0.0466
     51 H          -6.8672    0.9327   -2.1324 H       1  UNL1        0.1487
     52 H          -3.7913    2.9430   -2.6655 H       1  UNL1        0.0363
     53 H          -3.5285    3.1880   -0.8568 H       1  UNL1        0.0363
@<TRIPOS>BOND
     1     1     2    1
     2     2     3    1
     3     3     4    1
     4     4     5   ar
     5     5     6   ar
     6     6     7    1
     7     7     8   ar
     8     8     9   ar
     9     9    10   ar
    10    10    11    1
    11    11    12    1
    12    12    13    1
    13    13    14    1
    14    14    15    1
    15    10    16   ar
    16     6    17   ar
    17    17    18   ar
    18    18    19   ar
    19    19    20   ar
    20    20    21    1
    21    20    22   ar
    22    22    23   ar
    23     2    24    1
    24    24    25    1
    25    25    26    1
    26    26    27   am
    27    27    28    2
    28    27    29    1
    29    23     4   ar
    30    29    24    1
    31    16     7   ar
    32    23    18   ar
    33    15    11    1
    34     1    30    1
    35     1    31    1
    36     1    32    1
    37     2    33    1
    38     8    34    1
    39    11    35    1
    40    12    36    1
    41    12    37    1
    42    13    38    1
    43    13    39    1
    44    15    40    1
    45    15    41    1
    46    16    42    1
    47    17    43    1
    48    21    44    1
    49    21    45    1
    50    21    46    1
    51    22    47    1
    52    24    48    1
    53    25    49    1
    54    25    50    1
    55    26    51    1
    56    29    52    1
    57    29    53    1
