@<TRIPOS>MOLECULE
*****
 30 30 0 0 0
SMALL
GASTEIGER

@<TRIPOS>ATOM
      1 C           0.0028   -1.6769   -0.0915 C.3     1  UNL1        0.1818
      2 O          -0.0948   -1.6789    1.3102 O.3     1  UNL1       -0.3652
      3 O          -1.2464   -1.7475   -0.6517 O.3     1  UNL1       -0.3411
      4 C          -2.0561   -0.7268   -0.1415 C.3     1  UNL1        0.1130
      5 C          -3.4945   -0.8758   -0.5003 C.3     1  UNL1        0.0730
      6 O          -4.1930    0.2036    0.0681 O.3     1  UNL1       -0.3924
      7 C          -1.4563    0.5578   -0.6807 C.3     1  UNL1        0.1115
      8 O          -2.3147    1.6365   -0.5279 O.3     1  UNL1       -0.3865
      9 C          -0.1359    0.7348    0.0284 C.3     1  UNL1        0.1105
     10 O           0.4341    1.9762   -0.1611 O.3     1  UNL1       -0.3868
     11 C           0.7661   -0.4017   -0.4722 C.3     1  UNL1        0.1329
     12 N           1.9550   -0.3299    0.3084 N.2     1  UNL1       -0.2439
     13 C           3.1259    0.0011   -0.0547 C.2     1  UNL1        0.1797
     14 C           4.2259   -0.0030    0.9745 C.3     1  UNL1        0.0112
     15 O           3.3811    0.3625   -1.3917 O.2     1  UNL1       -0.4958
     16 H           0.5714   -2.5863   -0.3760 H       1  UNL1        0.0931
     17 H           0.6850   -1.1992    1.6847 H       1  UNL1        0.2125
     18 H          -1.9896   -0.7128    0.9638 H       1  UNL1        0.0647
     19 H          -3.8674   -1.8040   -0.0212 H       1  UNL1        0.0584
     20 H          -3.6951   -0.8560   -1.5859 H       1  UNL1        0.0584
     21 H          -3.9476    0.3514    1.0158 H       1  UNL1        0.2095
     22 H          -1.2032    0.3670   -1.7473 H       1  UNL1        0.0647
     23 H          -2.0163    2.1643    0.2721 H       1  UNL1        0.2100
     24 H          -0.3277    0.4818    1.1018 H       1  UNL1        0.0643
     25 H           0.0235    2.5882    0.5161 H       1  UNL1        0.2100
     26 H           0.8807   -0.3548   -1.5539 H       1  UNL1        0.0623
     27 H           4.1225    0.9802    1.5063 H       1  UNL1        0.0324
     28 H           5.2251   -0.0742    0.5082 H       1  UNL1        0.0324
     29 H           4.0034   -0.8136    1.6806 H       1  UNL1        0.0324
     30 H           2.6360    0.7218   -1.9815 H       1  UNL1        0.2934
@<TRIPOS>BOND
     1     1     2    1
     2     1     3    1
     3     3     4    1
     4     4     5    1
     5     5     6    1
     6     4     7    1
     7     7     8    1
     8     7     9    1
     9     9    10    1
    10     9    11    1
    11    11    12    1
    12    12    13    2
    13    13    14    1
    14    13    15    1
    15    11     1    1
    16     1    16    1
    17     2    17    1
    18     4    18    1
    19     5    19    1
    20     5    20    1
    21     6    21    1
    22     7    22    1
    23     8    23    1
    24     9    24    1
    25    10    25    1
    26    11    26    1
    27    14    27    1
    28    14    28    1
    29    14    29    1
    30    15    30    1
