
     RDKit          3D

 30 30  0  0  0  0  0  0  0  0999 V2000
    0.0028   -1.6769   -0.0915 C   0  0  1  0  0  0  0  0  0  0  0  0
   -0.0948   -1.6789    1.3102 O   0  0  0  0  0  0  0  0  0  0  0  0
   -1.2464   -1.7475   -0.6517 O   0  0  0  0  0  0  0  0  0  0  0  0
   -2.0561   -0.7268   -0.1415 C   0  0  2  0  0  0  0  0  0  0  0  0
   -3.4945   -0.8758   -0.5003 C   0  0  0  0  0  0  0  0  0  0  0  0
   -4.1930    0.2036    0.0681 O   0  0  0  0  0  0  0  0  0  0  0  0
   -1.4563    0.5578   -0.6807 C   0  0  1  0  0  0  0  0  0  0  0  0
   -2.3147    1.6365   -0.5279 O   0  0  0  0  0  0  0  0  0  0  0  0
   -0.1359    0.7348    0.0284 C   0  0  2  0  0  0  0  0  0  0  0  0
    0.4341    1.9762   -0.1611 O   0  0  0  0  0  0  0  0  0  0  0  0
    0.7661   -0.4017   -0.4722 C   0  0  1  0  0  0  0  0  0  0  0  0
    1.9550   -0.3299    0.3084 N   0  0  0  0  0  0  0  0  0  0  0  0
    3.1259    0.0011   -0.0547 C   0  0  0  0  0  0  0  0  0  0  0  0
    4.2259   -0.0030    0.9745 C   0  0  0  0  0  0  0  0  0  0  0  0
    3.3811    0.3625   -1.3917 O   0  0  0  0  0  0  0  0  0  0  0  0
    0.5714   -2.5863   -0.3760 H   0  0  0  0  0  0  0  0  0  0  0  0
    0.6850   -1.1992    1.6847 H   0  0  0  0  0  0  0  0  0  0  0  0
   -1.9896   -0.7128    0.9638 H   0  0  0  0  0  0  0  0  0  0  0  0
   -3.8674   -1.8040   -0.0212 H   0  0  0  0  0  0  0  0  0  0  0  0
   -3.6951   -0.8560   -1.5859 H   0  0  0  0  0  0  0  0  0  0  0  0
   -3.9476    0.3514    1.0158 H   0  0  0  0  0  0  0  0  0  0  0  0
   -1.2032    0.3670   -1.7473 H   0  0  0  0  0  0  0  0  0  0  0  0
   -2.0163    2.1643    0.2721 H   0  0  0  0  0  0  0  0  0  0  0  0
   -0.3277    0.4818    1.1018 H   0  0  0  0  0  0  0  0  0  0  0  0
    0.0235    2.5882    0.5161 H   0  0  0  0  0  0  0  0  0  0  0  0
    0.8807   -0.3548   -1.5539 H   0  0  0  0  0  0  0  0  0  0  0  0
    4.1225    0.9802    1.5063 H   0  0  0  0  0  0  0  0  0  0  0  0
    5.2251   -0.0742    0.5082 H   0  0  0  0  0  0  0  0  0  0  0  0
    4.0034   -0.8136    1.6806 H   0  0  0  0  0  0  0  0  0  0  0  0
    2.6360    0.7218   -1.9815 H   0  0  0  0  0  0  0  0  0  0  0  0
  1  2  1  0
  1  3  1  0
  3  4  1  0
  4  5  1  0
  5  6  1  0
  4  7  1  0
  7  8  1  0
  7  9  1  0
  9 10  1  0
  9 11  1  0
 11 12  1  0
 12 13  2  3
 13 14  1  0
 13 15  1  0
 11  1  1  0
  1 16  1  1
  2 17  1  0
  4 18  1  1
  5 19  1  0
  5 20  1  0
  6 21  1  0
  7 22  1  6
  8 23  1  0
  9 24  1  1
 10 25  1  0
 11 26  1  6
 14 27  1  0
 14 28  1  0
 14 29  1  0
 15 30  1  0
M  END
$$$$
