
     RDKit          3D

 50 50  0  0  0  0  0  0  0  0999 V2000
    3.7393    2.5702    0.5739 C   0  0  0  0  0  0  0  0  0  0  0  0
    4.0400    1.1238    0.4030 C   0  0  0  0  0  0  0  0  0  0  0  0
    3.0531    0.2378    0.2307 C   0  0  0  0  0  0  0  0  0  0  0  0
    1.6887    0.7945    0.2241 C   0  0  0  0  0  0  0  0  0  0  0  0
    0.6076    0.0661    0.0665 C   0  0  0  0  0  0  0  0  0  0  0  0
   -0.7622    0.5342    0.0483 C   0  0  0  0  0  0  0  0  0  0  0  0
   -1.1195    1.9551    0.2163 C   0  0  0  0  0  0  0  0  0  0  0  0
   -1.7674   -0.3277   -0.1233 C   0  0  0  0  0  0  0  0  0  0  0  0
   -3.1556    0.1713   -0.1389 C   0  0  0  0  0  0  0  0  0  0  0  0
   -4.1652   -0.6561   -0.3057 C   0  0  0  0  0  0  0  0  0  0  0  0
   -5.5715   -0.2243   -0.3311 C   0  0  0  0  0  0  0  0  0  0  0  0
   -5.9926    1.1816   -0.1695 C   0  0  0  0  0  0  0  0  0  0  0  0
   -6.5303   -1.1326   -0.5062 C   0  0  0  0  0  0  0  0  0  0  0  0
   -7.9203   -0.7760   -0.5407 C   0  0  0  0  0  0  0  0  0  0  0  0
   -8.7467   -1.7419   -0.7150 O   0  0  0  0  0  0  0  0  0  0  0  0
   -8.4669    0.4670   -0.4103 O   0  0  0  0  0  0  0  0  0  0  0  0
    3.2939   -1.1948    0.0595 C   0  0  0  0  0  0  0  0  0  0  0  0
    2.6296   -1.9810    1.1847 C   0  0  0  0  0  0  0  0  0  0  0  0
    2.7827   -1.6466   -1.3012 C   0  0  0  0  0  0  0  0  0  0  0  0
    4.7497   -1.5713    0.1020 C   0  0  0  0  0  0  0  0  0  0  0  0
    5.6890   -0.5340   -0.3838 C   0  0  0  0  0  0  0  0  0  0  0  0
    5.4680    0.7212    0.4310 C   0  0  0  0  0  0  0  0  0  0  0  0
    3.2914    3.0112   -0.3433 H   0  0  0  0  0  0  0  0  0  0  0  0
    3.0374    2.6832    1.4463 H   0  0  0  0  0  0  0  0  0  0  0  0
    4.6285    3.1414    0.8254 H   0  0  0  0  0  0  0  0  0  0  0  0
    1.5262    1.8622    0.3527 H   0  0  0  0  0  0  0  0  0  0  0  0
    0.7425   -1.0082   -0.0664 H   0  0  0  0  0  0  0  0  0  0  0  0
   -0.2686    2.6112    0.4346 H   0  0  0  0  0  0  0  0  0  0  0  0
   -1.7001    2.3251   -0.6762 H   0  0  0  0  0  0  0  0  0  0  0  0
   -1.8334    2.0867    1.0668 H   0  0  0  0  0  0  0  0  0  0  0  0
   -1.5966   -1.3804   -0.2513 H   0  0  0  0  0  0  0  0  0  0  0  0
   -3.3191    1.2225   -0.0125 H   0  0  0  0  0  0  0  0  0  0  0  0
   -3.9251   -1.7196   -0.4308 H   0  0  0  0  0  0  0  0  0  0  0  0
   -6.6620    1.3039    0.7323 H   0  0  0  0  0  0  0  0  0  0  0  0
   -5.1561    1.8789    0.0282 H   0  0  0  0  0  0  0  0  0  0  0  0
   -6.5483    1.5566   -1.0611 H   0  0  0  0  0  0  0  0  0  0  0  0
   -6.1878   -2.1636   -0.6214 H   0  0  0  0  0  0  0  0  0  0  0  0
   -9.3692    0.5651    0.0442 H   0  0  0  0  0  0  0  0  0  0  0  0
    2.0247   -2.8193    0.7993 H   0  0  0  0  0  0  0  0  0  0  0  0
    2.0865   -1.2997    1.8751 H   0  0  0  0  0  0  0  0  0  0  0  0
    3.3933   -2.4807    1.8512 H   0  0  0  0  0  0  0  0  0  0  0  0
    2.1717   -2.5518   -1.1878 H   0  0  0  0  0  0  0  0  0  0  0  0
    3.6274   -1.9669   -1.9812 H   0  0  0  0  0  0  0  0  0  0  0  0
    2.2894   -0.8305   -1.8676 H   0  0  0  0  0  0  0  0  0  0  0  0
    5.0458   -1.8523    1.1461 H   0  0  0  0  0  0  0  0  0  0  0  0
    4.8997   -2.4985   -0.4971 H   0  0  0  0  0  0  0  0  0  0  0  0
    6.7212   -0.8750   -0.1608 H   0  0  0  0  0  0  0  0  0  0  0  0
    5.6468   -0.3364   -1.4624 H   0  0  0  0  0  0  0  0  0  0  0  0
    6.0503    1.5293   -0.0518 H   0  0  0  0  0  0  0  0  0  0  0  0
    5.8402    0.5793    1.4551 H   0  0  0  0  0  0  0  0  0  0  0  0
  1  2  1  0
  2  3  2  0
  3  4  1  0
  4  5  2  0
  5  6  1  0
  6  7  1  0
  6  8  2  0
  8  9  1  0
  9 10  2  0
 10 11  1  0
 11 12  1  0
 11 13  2  0
 13 14  1  0
 14 15  2  0
 14 16  1  0
  3 17  1  0
 17 18  1  0
 17 19  1  0
 17 20  1  0
 20 21  1  0
 21 22  1  0
 22  2  1  0
  1 23  1  0
  1 24  1  0
  1 25  1  0
  4 26  1  0
  5 27  1  0
  7 28  1  0
  7 29  1  0
  7 30  1  0
  8 31  1  0
  9 32  1  0
 10 33  1  0
 12 34  1  0
 12 35  1  0
 12 36  1  0
 13 37  1  0
 16 38  1  0
 18 39  1  0
 18 40  1  0
 18 41  1  0
 19 42  1  0
 19 43  1  0
 19 44  1  0
 20 45  1  0
 20 46  1  0
 21 47  1  0
 21 48  1  0
 22 49  1  0
 22 50  1  0
M  END
$$$$
