@<TRIPOS>MOLECULE
*****
 50 50 0 0 0
SMALL
GASTEIGER

@<TRIPOS>ATOM
      1 C           3.7393    2.5702    0.5739 C.3     1  UNL1       -0.0432
      2 C           4.0400    1.1238    0.4030 C.2     1  UNL1       -0.0689
      3 C           3.0531    0.2378    0.2307 C.2     1  UNL1       -0.0427
      4 C           1.6887    0.7945    0.2241 C.2     1  UNL1       -0.0579
      5 C           0.6076    0.0661    0.0665 C.2     1  UNL1       -0.0586
      6 C          -0.7622    0.5342    0.0483 C.2     1  UNL1       -0.0504
      7 C          -1.1195    1.9551    0.2163 C.3     1  UNL1       -0.0397
      8 C          -1.7674   -0.3277   -0.1233 C.2     1  UNL1       -0.0588
      9 C          -3.1556    0.1713   -0.1389 C.2     1  UNL1       -0.0613
     10 C          -4.1652   -0.6561   -0.3057 C.2     1  UNL1       -0.0586
     11 C          -5.5715   -0.2243   -0.3311 C.2     1  UNL1       -0.0437
     12 C          -5.9926    1.1816   -0.1695 C.3     1  UNL1       -0.0395
     13 C          -6.5303   -1.1326   -0.5062 C.2     1  UNL1        0.0252
     14 C          -7.9203   -0.7760   -0.5407 C.2     1  UNL1        0.3298
     15 O          -8.7467   -1.7419   -0.7150 O.2     1  UNL1       -0.2458
     16 O          -8.4669    0.4670   -0.4103 O.3     1  UNL1       -0.4775
     17 C           3.2939   -1.1948    0.0595 C.3     1  UNL1       -0.0099
     18 C           2.6296   -1.9810    1.1847 C.3     1  UNL1       -0.0558
     19 C           2.7827   -1.6466   -1.3012 C.3     1  UNL1       -0.0558
     20 C           4.7497   -1.5713    0.1020 C.3     1  UNL1       -0.0436
     21 C           5.6890   -0.5340   -0.3838 C.3     1  UNL1       -0.0486
     22 C           5.4680    0.7212    0.4310 C.3     1  UNL1       -0.0314
     23 H           3.2914    3.0112   -0.3433 H       1  UNL1        0.0275
     24 H           3.0374    2.6832    1.4463 H       1  UNL1        0.0275
     25 H           4.6285    3.1414    0.8254 H       1  UNL1        0.0275
     26 H           1.5262    1.8622    0.3527 H       1  UNL1        0.0621
     27 H           0.7425   -1.0082   -0.0664 H       1  UNL1        0.0620
     28 H          -0.2686    2.6112    0.4346 H       1  UNL1        0.0278
     29 H          -1.7001    2.3251   -0.6762 H       1  UNL1        0.0278
     30 H          -1.8334    2.0867    1.0668 H       1  UNL1        0.0278
     31 H          -1.5966   -1.3804   -0.2513 H       1  UNL1        0.0620
     32 H          -3.3191    1.2225   -0.0125 H       1  UNL1        0.0618
     33 H          -3.9251   -1.7196   -0.4308 H       1  UNL1        0.0620
     34 H          -6.6620    1.3039    0.7323 H       1  UNL1        0.0278
     35 H          -5.1561    1.8789    0.0282 H       1  UNL1        0.0278
     36 H          -6.5483    1.5566   -1.0611 H       1  UNL1        0.0278
     37 H          -6.1878   -2.1636   -0.6214 H       1  UNL1        0.0691
     38 H          -9.3692    0.5651    0.0442 H       1  UNL1        0.2954
     39 H           2.0247   -2.8193    0.7993 H       1  UNL1        0.0238
     40 H           2.0865   -1.2997    1.8751 H       1  UNL1        0.0238
     41 H           3.3933   -2.4807    1.8512 H       1  UNL1        0.0238
     42 H           2.1717   -2.5518   -1.1878 H       1  UNL1        0.0238
     43 H           3.6274   -1.9669   -1.9812 H       1  UNL1        0.0238
     44 H           2.2894   -0.8305   -1.8676 H       1  UNL1        0.0238
     45 H           5.0458   -1.8523    1.1461 H       1  UNL1        0.0274
     46 H           4.8997   -2.4985   -0.4971 H       1  UNL1        0.0274
     47 H           6.7212   -0.8750   -0.1608 H       1  UNL1        0.0269
     48 H           5.6468   -0.3364   -1.4624 H       1  UNL1        0.0269
     49 H           6.0503    1.5293   -0.0518 H       1  UNL1        0.0310
     50 H           5.8402    0.5793    1.4551 H       1  UNL1        0.0310
@<TRIPOS>BOND
     1     1     2    1
     2     2     3    2
     3     3     4    1
     4     4     5    2
     5     5     6    1
     6     6     7    1
     7     6     8    2
     8     8     9    1
     9     9    10    2
    10    10    11    1
    11    11    12    1
    12    11    13    2
    13    13    14    1
    14    14    15    2
    15    14    16    1
    16     3    17    1
    17    17    18    1
    18    17    19    1
    19    17    20    1
    20    20    21    1
    21    21    22    1
    22    22     2    1
    23     1    23    1
    24     1    24    1
    25     1    25    1
    26     4    26    1
    27     5    27    1
    28     7    28    1
    29     7    29    1
    30     7    30    1
    31     8    31    1
    32     9    32    1
    33    10    33    1
    34    12    34    1
    35    12    35    1
    36    12    36    1
    37    13    37    1
    38    16    38    1
    39    18    39    1
    40    18    40    1
    41    18    41    1
    42    19    42    1
    43    19    43    1
    44    19    44    1
    45    20    45    1
    46    20    46    1
    47    21    47    1
    48    21    48    1
    49    22    49    1
    50    22    50    1
