@<TRIPOS>MOLECULE
*****
 43 44 0 0 0
SMALL
GASTEIGER

@<TRIPOS>ATOM
      1 C          -1.7994   -3.3263    0.2257 C.3     1  UNL1       -0.0611
      2 C          -1.9634   -2.5628   -1.0407 C.3     1  UNL1       -0.0271
      3 C          -1.5034   -1.1462   -0.9493 C.ar    1  UNL1       -0.0054
      4 C          -0.2766   -0.8182   -1.5299 C.ar    1  UNL1       -0.0516
      5 C           0.2266    0.4512   -1.4953 C.ar    1  UNL1       -0.0422
      6 C           1.5210    0.8403   -2.0909 C.3     1  UNL1        0.0023
      7 C           2.6490    0.8522   -1.1360 C.ar    1  UNL1        0.0146
      8 C           3.1004    2.0524   -0.5808 C.ar    1  UNL1        0.0379
      9 N           4.1160    2.0553    0.3014 N.ar    1  UNL1       -0.2227
     10 C           4.7379    0.9349    0.6889 C.ar    1  UNL1        0.2142
     11 N           5.8182    0.9513    1.6327 N.pl3   1  UNL1       -0.3274
     12 N           4.3235   -0.2273    0.1701 N.ar    1  UNL1       -0.1999
     13 C           3.2953   -0.2888   -0.7309 C.ar    1  UNL1        0.1247
     14 N           2.9324   -1.5478   -1.2381 N.pl3   1  UNL1       -0.3428
     15 C          -0.5470    1.4190   -0.8475 C.ar    1  UNL1       -0.0516
     16 C          -1.7512    1.1599   -0.2629 C.ar    1  UNL1       -0.0054
     17 C          -2.5583    2.2035    0.4188 C.3     1  UNL1       -0.0271
     18 C          -2.4847    2.1223    1.9267 C.3     1  UNL1       -0.0611
     19 C          -2.2070   -0.1449   -0.3311 C.ar    1  UNL1        0.1264
     20 O          -3.4140   -0.4476    0.2446 O.3     1  UNL1       -0.4946
     21 C          -3.6438   -0.8622    1.5600 C.3     1  UNL1        0.0788
     22 H          -2.7816   -3.7193    0.5481 H       1  UNL1        0.0233
     23 H          -1.1609   -4.2151    0.0429 H       1  UNL1        0.0233
     24 H          -1.3995   -2.6806    1.0298 H       1  UNL1        0.0233
     25 H          -1.4972   -3.0828   -1.8955 H       1  UNL1        0.0312
     26 H          -3.0539   -2.4974   -1.2957 H       1  UNL1        0.0312
     27 H           0.2744   -1.5996   -2.0209 H       1  UNL1        0.0624
     28 H           1.6976    0.1627   -2.9507 H       1  UNL1        0.0363
     29 H           1.3857    1.8554   -2.5702 H       1  UNL1        0.0363
     30 H           2.5823    2.9429   -0.9078 H       1  UNL1        0.0834
     31 H           5.8143    1.5749    2.4420 H       1  UNL1        0.1452
     32 H           6.6124    0.2814    1.4383 H       1  UNL1        0.1452
     33 H           2.6467   -1.7026   -2.2300 H       1  UNL1        0.1437
     34 H           2.9352   -2.4051   -0.6246 H       1  UNL1        0.1437
     35 H          -0.1669    2.4198   -0.8106 H       1  UNL1        0.0624
     36 H          -3.5875    2.1887    0.0447 H       1  UNL1        0.0312
     37 H          -2.1279    3.1848    0.0518 H       1  UNL1        0.0312
     38 H          -3.5174    1.9590    2.3159 H       1  UNL1        0.0233
     39 H          -2.2312    3.1676    2.2840 H       1  UNL1        0.0233
     40 H          -1.7659    1.3982    2.3089 H       1  UNL1        0.0233
     41 H          -4.4725   -0.2063    1.9541 H       1  UNL1        0.0660
     42 H          -2.7859   -0.7728    2.2380 H       1  UNL1        0.0660
     43 H          -3.9717   -1.9244    1.5937 H       1  UNL1        0.0660
@<TRIPOS>BOND
     1     1     2    1
     2     2     3    1
     3     3     4   ar
     4     4     5   ar
     5     5     6    1
     6     6     7    1
     7     7     8   ar
     8     8     9   ar
     9     9    10   ar
    10    10    11    1
    11    10    12   ar
    12    12    13   ar
    13    13    14    1
    14     5    15   ar
    15    15    16   ar
    16    16    17    1
    17    17    18    1
    18    16    19   ar
    19    19    20    1
    20    20    21    1
    21    19     3   ar
    22    13     7   ar
    23     1    22    1
    24     1    23    1
    25     1    24    1
    26     2    25    1
    27     2    26    1
    28     4    27    1
    29     6    28    1
    30     6    29    1
    31     8    30    1
    32    11    31    1
    33    11    32    1
    34    14    33    1
    35    14    34    1
    36    15    35    1
    37    17    36    1
    38    17    37    1
    39    18    38    1
    40    18    39    1
    41    18    40    1
    42    21    41    1
    43    21    42    1
    44    21    43    1
