
     RDKit          3D

 43 44  0  0  0  0  0  0  0  0999 V2000
   -1.7994   -3.3263    0.2257 C   0  0  0  0  0  0  0  0  0  0  0  0
   -1.9634   -2.5628   -1.0407 C   0  0  0  0  0  0  0  0  0  0  0  0
   -1.5034   -1.1462   -0.9493 C   0  0  0  0  0  0  0  0  0  0  0  0
   -0.2766   -0.8182   -1.5299 C   0  0  0  0  0  0  0  0  0  0  0  0
    0.2266    0.4512   -1.4953 C   0  0  0  0  0  0  0  0  0  0  0  0
    1.5210    0.8403   -2.0909 C   0  0  0  0  0  0  0  0  0  0  0  0
    2.6490    0.8522   -1.1360 C   0  0  0  0  0  0  0  0  0  0  0  0
    3.1004    2.0524   -0.5808 C   0  0  0  0  0  0  0  0  0  0  0  0
    4.1160    2.0553    0.3014 N   0  0  0  0  0  0  0  0  0  0  0  0
    4.7379    0.9349    0.6889 C   0  0  0  0  0  0  0  0  0  0  0  0
    5.8182    0.9513    1.6327 N   0  0  0  0  0  0  0  0  0  0  0  0
    4.3235   -0.2273    0.1701 N   0  0  0  0  0  0  0  0  0  0  0  0
    3.2953   -0.2888   -0.7309 C   0  0  0  0  0  0  0  0  0  0  0  0
    2.9324   -1.5478   -1.2381 N   0  0  0  0  0  0  0  0  0  0  0  0
   -0.5470    1.4190   -0.8475 C   0  0  0  0  0  0  0  0  0  0  0  0
   -1.7512    1.1599   -0.2629 C   0  0  0  0  0  0  0  0  0  0  0  0
   -2.5583    2.2035    0.4188 C   0  0  0  0  0  0  0  0  0  0  0  0
   -2.4847    2.1223    1.9267 C   0  0  0  0  0  0  0  0  0  0  0  0
   -2.2070   -0.1449   -0.3311 C   0  0  0  0  0  0  0  0  0  0  0  0
   -3.4140   -0.4476    0.2446 O   0  0  0  0  0  0  0  0  0  0  0  0
   -3.6438   -0.8622    1.5600 C   0  0  0  0  0  0  0  0  0  0  0  0
   -2.7816   -3.7193    0.5481 H   0  0  0  0  0  0  0  0  0  0  0  0
   -1.1609   -4.2151    0.0429 H   0  0  0  0  0  0  0  0  0  0  0  0
   -1.3995   -2.6806    1.0298 H   0  0  0  0  0  0  0  0  0  0  0  0
   -1.4972   -3.0828   -1.8955 H   0  0  0  0  0  0  0  0  0  0  0  0
   -3.0539   -2.4974   -1.2957 H   0  0  0  0  0  0  0  0  0  0  0  0
    0.2744   -1.5996   -2.0209 H   0  0  0  0  0  0  0  0  0  0  0  0
    1.6976    0.1627   -2.9507 H   0  0  0  0  0  0  0  0  0  0  0  0
    1.3857    1.8554   -2.5702 H   0  0  0  0  0  0  0  0  0  0  0  0
    2.5823    2.9429   -0.9078 H   0  0  0  0  0  0  0  0  0  0  0  0
    5.8143    1.5749    2.4420 H   0  0  0  0  0  0  0  0  0  0  0  0
    6.6124    0.2814    1.4383 H   0  0  0  0  0  0  0  0  0  0  0  0
    2.6467   -1.7026   -2.2300 H   0  0  0  0  0  0  0  0  0  0  0  0
    2.9352   -2.4051   -0.6246 H   0  0  0  0  0  0  0  0  0  0  0  0
   -0.1669    2.4198   -0.8106 H   0  0  0  0  0  0  0  0  0  0  0  0
   -3.5875    2.1887    0.0447 H   0  0  0  0  0  0  0  0  0  0  0  0
   -2.1279    3.1848    0.0518 H   0  0  0  0  0  0  0  0  0  0  0  0
   -3.5174    1.9590    2.3159 H   0  0  0  0  0  0  0  0  0  0  0  0
   -2.2312    3.1676    2.2840 H   0  0  0  0  0  0  0  0  0  0  0  0
   -1.7659    1.3982    2.3089 H   0  0  0  0  0  0  0  0  0  0  0  0
   -4.4725   -0.2063    1.9541 H   0  0  0  0  0  0  0  0  0  0  0  0
   -2.7859   -0.7728    2.2380 H   0  0  0  0  0  0  0  0  0  0  0  0
   -3.9717   -1.9244    1.5937 H   0  0  0  0  0  0  0  0  0  0  0  0
  1  2  1  0
  2  3  1  0
  3  4  2  0
  4  5  1  0
  5  6  1  0
  6  7  1  0
  7  8  2  0
  8  9  1  0
  9 10  2  0
 10 11  1  0
 10 12  1  0
 12 13  2  0
 13 14  1  0
  5 15  2  0
 15 16  1  0
 16 17  1  0
 17 18  1  0
 16 19  2  0
 19 20  1  0
 20 21  1  0
 19  3  1  0
 13  7  1  0
  1 22  1  0
  1 23  1  0
  1 24  1  0
  2 25  1  0
  2 26  1  0
  4 27  1  0
  6 28  1  0
  6 29  1  0
  8 30  1  0
 11 31  1  0
 11 32  1  0
 14 33  1  0
 14 34  1  0
 15 35  1  0
 17 36  1  0
 17 37  1  0
 18 38  1  0
 18 39  1  0
 18 40  1  0
 21 41  1  0
 21 42  1  0
 21 43  1  0
M  END
$$$$
