@<TRIPOS>MOLECULE
*****
 34 36 0 0 0
SMALL
GASTEIGER

@<TRIPOS>ATOM
      1 O          -2.1812   -3.9535   -0.4142 O.3     1  UNL1       -0.2498
      2 S          -1.0434   -2.6469   -0.3480 S.O2    1  UNL1        0.1102
      3 O          -0.4998   -2.7483   -1.7333 O.2     1  UNL1       -0.1421
      4 O          -0.1907   -3.1470    0.7562 O.2     1  UNL1       -0.1421
      5 C          -2.0249   -1.2774   -0.0018 C.ar    1  UNL1        0.1263
      6 C          -1.5652    0.0141    0.1485 C.ar    1  UNL1        0.0305
      7 C          -0.2226    0.2807    0.0191 C.ar    1  UNL1        0.0410
      8 N           0.7362   -0.7338   -0.2645 N.pl3   1  UNL1       -0.3140
      9 C           2.0898   -0.2037   -0.3380 C.ar    1  UNL1        0.0313
     10 C           2.7311    0.1189    0.8767 C.ar    1  UNL1       -0.0405
     11 C           4.0008    0.6770    1.0643 C.ar    1  UNL1       -0.0600
     12 C           4.6785    0.9284   -0.1046 C.ar    1  UNL1       -0.0616
     13 C           4.1632    0.6587   -1.3498 C.ar    1  UNL1       -0.0600
     14 C           2.9130    0.1126   -1.4356 C.ar    1  UNL1       -0.0405
     15 C           0.2782    1.5604    0.1601 C.ar    1  UNL1       -0.0399
     16 C          -0.5580    2.6502    0.4425 C.ar    1  UNL1       -0.0594
     17 C          -1.8800    2.3093    0.5574 C.ar    1  UNL1       -0.0539
     18 C          -2.4241    1.0534    0.4256 C.ar    1  UNL1       -0.0142
     19 C          -3.7659    0.9041    0.5720 C.ar    1  UNL1       -0.0539
     20 C          -4.3157   -0.3513    0.4391 C.ar    1  UNL1       -0.0593
     21 C          -3.4204   -1.3635    0.1617 C.ar    1  UNL1       -0.0337
     22 H          -2.8092   -3.6589   -1.1191 H       1  UNL1        0.2449
     23 H           1.2849   -1.5656   -0.4682 H       1  UNL1        0.1522
     24 H           2.1773   -0.0877    1.8070 H       1  UNL1        0.0636
     25 H           4.3618    0.8701    2.0562 H       1  UNL1        0.0618
     26 H           5.6521    1.3530   -0.0586 H       1  UNL1        0.0618
     27 H           4.6300    0.8263   -2.3053 H       1  UNL1        0.0618
     28 H           2.3777   -0.1545   -2.3643 H       1  UNL1        0.0636
     29 H           1.3187    1.9183    0.0792 H       1  UNL1        0.0636
     30 H          -0.2335    3.6731    0.5650 H       1  UNL1        0.0618
     31 H          -2.5596    3.1206    0.7750 H       1  UNL1        0.0624
     32 H          -4.4108    1.7410    0.7893 H       1  UNL1        0.0624
     33 H          -5.3742   -0.5299    0.5448 H       1  UNL1        0.0618
     34 H          -3.9142   -2.3482    0.0653 H       1  UNL1        0.0637
@<TRIPOS>BOND
     1     1     2    1
     2     2     3    2
     3     2     4    2
     4     2     5    1
     5     5     6   ar
     6     6     7   ar
     7     7     8    1
     8     8     9    1
     9     9    10   ar
    10    10    11   ar
    11    11    12   ar
    12    12    13   ar
    13    13    14   ar
    14     7    15   ar
    15    15    16   ar
    16    16    17   ar
    17    17    18   ar
    18    18    19   ar
    19    19    20   ar
    20    20    21   ar
    21    21     5   ar
    22    18     6   ar
    23    14     9   ar
    24     1    22    1
    25     8    23    1
    26    10    24    1
    27    11    25    1
    28    12    26    1
    29    13    27    1
    30    14    28    1
    31    15    29    1
    32    16    30    1
    33    17    31    1
    34    19    32    1
    35    20    33    1
    36    21    34    1
