@<TRIPOS>MOLECULE
*****
 53 56 0 0 0
SMALL
GASTEIGER

@<TRIPOS>ATOM
      1 C           6.0698   -0.9978    1.3747 C.3     1  UNL1       -0.0186
      2 C           6.1732   -0.5840   -0.0533 C.ar    1  UNL1        0.0857
      3 N           7.3555   -0.3661   -0.6608 N.ar    1  UNL1       -0.0786
      4 O           7.4282   -0.0044   -1.9113 O.2     1  UNL1       -0.3117
      5 C           6.3940    0.1778   -2.6779 C.ar    1  UNL1        0.3669
      6 O           6.4643    0.5279   -3.8880 O.2     1  UNL1       -0.2425
      7 C           5.1416   -0.0181   -2.1555 C.ar    1  UNL1        0.0703
      8 C           4.0059    0.1678   -2.9480 C.ar    1  UNL1       -0.0453
      9 C           2.7906   -0.0526   -2.3358 C.ar    1  UNL1       -0.0397
     10 C           2.6824   -0.4341   -1.0210 C.ar    1  UNL1        0.0341
     11 N           1.4050   -0.6466   -0.4439 N.am    1  UNL1       -0.2829
     12 C           0.7376    0.4293    0.1768 C.2     1  UNL1        0.2580
     13 O           1.2943    1.5420    0.1996 O.2     1  UNL1       -0.2720
     14 C          -0.6243    0.2767    0.8119 C.3     1  UNL1        0.2378
     15 O          -0.9809    1.5131    1.3212 O.3     1  UNL1       -0.3723
     16 C          -1.5202   -0.1941   -0.2679 C.3     1  UNL1        0.0031
     17 C          -2.9710   -0.4179    0.0785 C.3     1  UNL1        0.0006
     18 C          -3.7183    0.7324    0.5905 C.ar    1  UNL1       -0.0201
     19 C          -4.2998    0.7511    1.8378 C.ar    1  UNL1       -0.0214
     20 C          -5.0125    1.8514    2.3370 C.ar    1  UNL1        0.1238
     21 F          -5.5580    1.7910    3.5805 F       1  UNL1       -0.2055
     22 C          -5.1437    2.9622    1.5623 C.ar    1  UNL1       -0.0251
     23 C          -4.5850    2.9848    0.3262 C.ar    1  UNL1       -0.0404
     24 C          -3.8712    1.8689   -0.1610 C.ar    1  UNL1        0.0448
     25 CL         -3.1974    2.0107   -1.7536 Cl      1  UNL1       -0.0832
     26 C          -3.6159   -0.9861   -1.2288 C.3     1  UNL1       -0.0432
     27 C          -4.4039   -1.9114   -0.3548 C.3     1  UNL1       -0.0515
     28 C          -3.2881   -1.7447    0.6803 C.3     1  UNL1       -0.0432
     29 C          -0.4974   -0.6849    1.9944 C.3     1  UNL1        0.4269
     30 F          -0.0666   -1.9027    1.5643 F       1  UNL1       -0.1671
     31 F          -1.6182   -0.6736    2.7567 F       1  UNL1       -0.1671
     32 F           0.5234   -0.1963    2.8498 F       1  UNL1       -0.1671
     33 C           3.8037   -0.6149   -0.2481 C.ar    1  UNL1       -0.0307
     34 C           5.0393   -0.4011   -0.8350 C.ar    1  UNL1        0.0149
     35 H           5.4250   -1.8904    1.4979 H       1  UNL1        0.0294
     36 H           7.1020   -1.3260    1.6711 H       1  UNL1        0.0294
     37 H           5.7990   -0.1658    2.0361 H       1  UNL1        0.0294
     38 H           4.0864    0.4650   -3.9726 H       1  UNL1        0.0626
     39 H           1.8716    0.0721   -2.8874 H       1  UNL1        0.0636
     40 H           0.9486   -1.5841   -0.4694 H       1  UNL1        0.1549
     41 H          -0.9666    2.1999    0.6322 H       1  UNL1        0.2111
     42 H          -1.4435    0.4249   -1.1675 H       1  UNL1        0.0309
     43 H          -1.1689   -1.2272   -0.6228 H       1  UNL1        0.0309
     44 H          -4.2375   -0.0765    2.5145 H       1  UNL1        0.0649
     45 H          -5.6924    3.8154    1.9407 H       1  UNL1        0.0647
     46 H          -4.6987    3.8735   -0.2745 H       1  UNL1        0.0633
     47 H          -2.8967   -1.5088   -1.8666 H       1  UNL1        0.0274
     48 H          -4.1995   -0.2422   -1.7780 H       1  UNL1        0.0274
     49 H          -4.3960   -2.9593   -0.7209 H       1  UNL1        0.0266
     50 H          -5.3694   -1.4996   -0.0589 H       1  UNL1        0.0266
     51 H          -2.4912   -2.5186    0.5804 H       1  UNL1        0.0274
     52 H          -3.7675   -1.6933    1.6613 H       1  UNL1        0.0274
     53 H           3.7591   -0.9145    0.7893 H       1  UNL1        0.0643
@<TRIPOS>BOND
     1     1     2    1
     2     2     3   ar
     3     3     4   ar
     4     4     5   ar
     5     5     6    2
     6     5     7   ar
     7     7     8   ar
     8     8     9   ar
     9     9    10   ar
    10    10    11    1
    11    11    12   am
    12    12    13    2
    13    12    14    1
    14    14    15    1
    15    14    16    1
    16    16    17    1
    17    17    18    1
    18    18    19   ar
    19    19    20   ar
    20    20    21    1
    21    20    22   ar
    22    22    23   ar
    23    23    24   ar
    24    24    25    1
    25    17    26    1
    26    26    27    1
    27    27    28    1
    28    14    29    1
    29    29    30    1
    30    29    31    1
    31    29    32    1
    32    10    33   ar
    33    33    34   ar
    34    34     2   ar
    35    34     7   ar
    36    28    17    1
    37    24    18   ar
    38     1    35    1
    39     1    36    1
    40     1    37    1
    41     8    38    1
    42     9    39    1
    43    11    40    1
    44    15    41    1
    45    16    42    1
    46    16    43    1
    47    19    44    1
    48    22    45    1
    49    23    46    1
    50    26    47    1
    51    26    48    1
    52    27    49    1
    53    27    50    1
    54    28    51    1
    55    28    52    1
    56    33    53    1
