
     RDKit          3D

 53 56  0  0  0  0  0  0  0  0999 V2000
    6.0698   -0.9978    1.3747 C   0  0  0  0  0  0  0  0  0  0  0  0
    6.1732   -0.5840   -0.0533 C   0  0  0  0  0  0  0  0  0  0  0  0
    7.3555   -0.3661   -0.6608 N   0  0  0  0  0  0  0  0  0  0  0  0
    7.4282   -0.0044   -1.9113 O   0  0  0  0  0  0  0  0  0  0  0  0
    6.3940    0.1778   -2.6779 C   0  0  0  0  0  0  0  0  0  0  0  0
    6.4643    0.5279   -3.8880 O   0  0  0  0  0  0  0  0  0  0  0  0
    5.1416   -0.0181   -2.1555 C   0  0  0  0  0  0  0  0  0  0  0  0
    4.0059    0.1678   -2.9480 C   0  0  0  0  0  0  0  0  0  0  0  0
    2.7906   -0.0526   -2.3358 C   0  0  0  0  0  0  0  0  0  0  0  0
    2.6824   -0.4341   -1.0210 C   0  0  0  0  0  0  0  0  0  0  0  0
    1.4050   -0.6466   -0.4439 N   0  0  0  0  0  0  0  0  0  0  0  0
    0.7376    0.4293    0.1768 C   0  0  0  0  0  0  0  0  0  0  0  0
    1.2943    1.5420    0.1996 O   0  0  0  0  0  0  0  0  0  0  0  0
   -0.6243    0.2767    0.8119 C   0  0  0  0  0  0  0  0  0  0  0  0
   -0.9809    1.5131    1.3212 O   0  0  0  0  0  0  0  0  0  0  0  0
   -1.5202   -0.1941   -0.2679 C   0  0  0  0  0  0  0  0  0  0  0  0
   -2.9710   -0.4179    0.0785 C   0  0  0  0  0  0  0  0  0  0  0  0
   -3.7183    0.7324    0.5905 C   0  0  0  0  0  0  0  0  0  0  0  0
   -4.2998    0.7511    1.8378 C   0  0  0  0  0  0  0  0  0  0  0  0
   -5.0125    1.8514    2.3370 C   0  0  0  0  0  0  0  0  0  0  0  0
   -5.5580    1.7910    3.5805 F   0  0  0  0  0  0  0  0  0  0  0  0
   -5.1437    2.9622    1.5623 C   0  0  0  0  0  0  0  0  0  0  0  0
   -4.5850    2.9848    0.3262 C   0  0  0  0  0  0  0  0  0  0  0  0
   -3.8712    1.8689   -0.1610 C   0  0  0  0  0  0  0  0  0  0  0  0
   -3.1974    2.0107   -1.7536 Cl  0  0  0  0  0  0  0  0  0  0  0  0
   -3.6159   -0.9861   -1.2288 C   0  0  0  0  0  0  0  0  0  0  0  0
   -4.4039   -1.9114   -0.3548 C   0  0  0  0  0  0  0  0  0  0  0  0
   -3.2881   -1.7447    0.6803 C   0  0  0  0  0  0  0  0  0  0  0  0
   -0.4974   -0.6849    1.9944 C   0  0  0  0  0  0  0  0  0  0  0  0
   -0.0666   -1.9027    1.5643 F   0  0  0  0  0  0  0  0  0  0  0  0
   -1.6182   -0.6736    2.7567 F   0  0  0  0  0  0  0  0  0  0  0  0
    0.5234   -0.1963    2.8498 F   0  0  0  0  0  0  0  0  0  0  0  0
    3.8037   -0.6149   -0.2481 C   0  0  0  0  0  0  0  0  0  0  0  0
    5.0393   -0.4011   -0.8350 C   0  0  0  0  0  0  0  0  0  0  0  0
    5.4250   -1.8904    1.4979 H   0  0  0  0  0  0  0  0  0  0  0  0
    7.1020   -1.3260    1.6711 H   0  0  0  0  0  0  0  0  0  0  0  0
    5.7990   -0.1658    2.0361 H   0  0  0  0  0  0  0  0  0  0  0  0
    4.0864    0.4650   -3.9726 H   0  0  0  0  0  0  0  0  0  0  0  0
    1.8716    0.0721   -2.8874 H   0  0  0  0  0  0  0  0  0  0  0  0
    0.9486   -1.5841   -0.4694 H   0  0  0  0  0  0  0  0  0  0  0  0
   -0.9666    2.1999    0.6322 H   0  0  0  0  0  0  0  0  0  0  0  0
   -1.4435    0.4249   -1.1675 H   0  0  0  0  0  0  0  0  0  0  0  0
   -1.1689   -1.2272   -0.6228 H   0  0  0  0  0  0  0  0  0  0  0  0
   -4.2375   -0.0765    2.5145 H   0  0  0  0  0  0  0  0  0  0  0  0
   -5.6924    3.8154    1.9407 H   0  0  0  0  0  0  0  0  0  0  0  0
   -4.6987    3.8735   -0.2745 H   0  0  0  0  0  0  0  0  0  0  0  0
   -2.8967   -1.5088   -1.8666 H   0  0  0  0  0  0  0  0  0  0  0  0
   -4.1995   -0.2422   -1.7780 H   0  0  0  0  0  0  0  0  0  0  0  0
   -4.3960   -2.9593   -0.7209 H   0  0  0  0  0  0  0  0  0  0  0  0
   -5.3694   -1.4996   -0.0589 H   0  0  0  0  0  0  0  0  0  0  0  0
   -2.4912   -2.5186    0.5804 H   0  0  0  0  0  0  0  0  0  0  0  0
   -3.7675   -1.6933    1.6613 H   0  0  0  0  0  0  0  0  0  0  0  0
    3.7591   -0.9145    0.7893 H   0  0  0  0  0  0  0  0  0  0  0  0
  1  2  1  0
  2  3  2  0
  3  4  1  0
  4  5  1  0
  5  6  2  0
  5  7  1  0
  7  8  2  0
  8  9  1  0
  9 10  2  0
 10 11  1  0
 11 12  1  0
 12 13  2  0
 12 14  1  0
 14 15  1  0
 14 16  1  0
 16 17  1  0
 17 18  1  0
 18 19  2  0
 19 20  1  0
 20 21  1  0
 20 22  2  0
 22 23  1  0
 23 24  2  0
 24 25  1  0
 17 26  1  0
 26 27  1  0
 27 28  1  0
 14 29  1  0
 29 30  1  0
 29 31  1  0
 29 32  1  0
 10 33  1  0
 33 34  2  0
 34  2  1  0
 34  7  1  0
 28 17  1  0
 24 18  1  0
  1 35  1  0
  1 36  1  0
  1 37  1  0
  8 38  1  0
  9 39  1  0
 11 40  1  0
 15 41  1  0
 16 42  1  0
 16 43  1  0
 19 44  1  0
 22 45  1  0
 23 46  1  0
 26 47  1  0
 26 48  1  0
 27 49  1  0
 27 50  1  0
 28 51  1  0
 28 52  1  0
 33 53  1  0
M  END
$$$$
