@<TRIPOS>MOLECULE
*****
 50 50 0 0 0
SMALL
GASTEIGER

@<TRIPOS>ATOM
      1 C          -0.4144   -1.4537   -2.9019 C.3     1  UNL1       -0.0605
      2 C           0.6522   -0.5247   -2.3364 C.3     1  UNL1       -0.0196
      3 C           0.4119    0.8556   -2.9008 C.3     1  UNL1       -0.0605
      4 C           0.5806   -0.5211   -0.8209 C.3     1  UNL1        0.1048
      5 N          -0.7240   -0.0612   -0.4094 N.am    1  UNL1       -0.2696
      6 C          -1.5762   -0.8876    0.3506 C.2     1  UNL1        0.4012
      7 O          -1.1444   -2.0481    0.6538 O.2     1  UNL1       -0.2265
      8 O          -2.8375   -0.5151    0.7802 O.3     1  UNL1       -0.4456
      9 C          -3.6126   -1.4409    1.5505 C.3     1  UNL1        0.1191
     10 C          -4.8938   -0.7724    1.8591 C.ar    1  UNL1       -0.0103
     11 C          -5.0106   -0.0179    3.0015 C.ar    1  UNL1       -0.0554
     12 C          -6.2121    0.6116    3.2946 C.ar    1  UNL1       -0.0614
     13 C          -7.2569    0.4586    2.4244 C.ar    1  UNL1       -0.0617
     14 C          -7.1348   -0.3019    1.2755 C.ar    1  UNL1       -0.0614
     15 C          -5.9472   -0.9175    0.9963 C.ar    1  UNL1       -0.0554
     16 C           1.6238    0.3359   -0.2480 C.2     1  UNL1        0.2343
     17 O           1.2975    1.3014    0.4828 O.2     1  UNL1       -0.2738
     18 N           2.9918    0.0526   -0.5341 N.am    1  UNL1       -0.3035
     19 C           4.0167    0.9199    0.0505 C.3     1  UNL1        0.0941
     20 C           4.7068    1.5961   -1.0877 C.3     1  UNL1        0.0701
     21 C           5.7707    2.5307   -0.7399 C.2     1  UNL1        0.3069
     22 O           6.4270    3.0643   -1.6687 O.2     1  UNL1       -0.2509
     23 O           6.0902    2.8574    0.5593 O.3     1  UNL1       -0.4806
     24 C           4.8612    0.0972    0.9172 C.2     1  UNL1        0.1843
     25 O           5.8116    0.4892    1.5742 O.2     1  UNL1       -0.2927
     26 C           4.5685   -1.3640    1.0389 C.3     1  UNL1        0.1498
     27 F           5.4312   -2.0224    1.8780 F       1  UNL1       -0.2409
     28 H          -0.4122   -1.3505   -4.0007 H       1  UNL1        0.0233
     29 H          -1.3960   -1.0674   -2.5548 H       1  UNL1        0.0233
     30 H          -0.2599   -2.5009   -2.6213 H       1  UNL1        0.0233
     31 H           1.6311   -0.9130   -2.6740 H       1  UNL1        0.0318
     32 H           1.1687    1.5761   -2.5156 H       1  UNL1        0.0233
     33 H           0.5386    0.8012   -3.9955 H       1  UNL1        0.0233
     34 H          -0.6315    1.1646   -2.6414 H       1  UNL1        0.0233
     35 H           0.7123   -1.5764   -0.4659 H       1  UNL1        0.0598
     36 H          -1.0826    0.8948   -0.6576 H       1  UNL1        0.1528
     37 H          -3.0748   -1.6293    2.5117 H       1  UNL1        0.0749
     38 H          -3.7492   -2.3854    1.0062 H       1  UNL1        0.0749
     39 H          -4.1688    0.0919    3.6816 H       1  UNL1        0.0621
     40 H          -6.3126    1.2085    4.1928 H       1  UNL1        0.0618
     41 H          -8.1915    0.9530    2.6596 H       1  UNL1        0.0618
     42 H          -8.0005   -0.3950    0.6093 H       1  UNL1        0.0618
     43 H          -5.8459   -1.5064    0.1097 H       1  UNL1        0.0621
     44 H           3.2791   -0.7394   -1.1361 H       1  UNL1        0.1495
     45 H           3.5321    1.7058    0.6727 H       1  UNL1        0.0583
     46 H           3.9096    2.1912   -1.6235 H       1  UNL1        0.0400
     47 H           5.0926    0.8929   -1.8525 H       1  UNL1        0.0400
     48 H           6.6369    3.6658    0.8232 H       1  UNL1        0.2951
     49 H           4.6329   -1.8714    0.0459 H       1  UNL1        0.0696
     50 H           3.5141   -1.5327    1.3864 H       1  UNL1        0.0696
@<TRIPOS>BOND
     1     1     2    1
     2     2     3    1
     3     2     4    1
     4     4     5    1
     5     5     6   am
     6     6     7    2
     7     6     8    1
     8     8     9    1
     9     9    10    1
    10    10    11   ar
    11    11    12   ar
    12    12    13   ar
    13    13    14   ar
    14    14    15   ar
    15     4    16    1
    16    16    17    2
    17    16    18   am
    18    18    19    1
    19    19    20    1
    20    20    21    1
    21    21    22    2
    22    21    23    1
    23    19    24    1
    24    24    25    2
    25    24    26    1
    26    26    27    1
    27    15    10   ar
    28     1    28    1
    29     1    29    1
    30     1    30    1
    31     2    31    1
    32     3    32    1
    33     3    33    1
    34     3    34    1
    35     4    35    1
    36     5    36    1
    37     9    37    1
    38     9    38    1
    39    11    39    1
    40    12    40    1
    41    13    41    1
    42    14    42    1
    43    15    43    1
    44    18    44    1
    45    19    45    1
    46    20    46    1
    47    20    47    1
    48    23    48    1
    49    26    49    1
    50    26    50    1
