
     RDKit          3D

 50 50  0  0  0  0  0  0  0  0999 V2000
   -0.4144   -1.4537   -2.9019 C   0  0  0  0  0  0  0  0  0  0  0  0
    0.6522   -0.5247   -2.3364 C   0  0  0  0  0  0  0  0  0  0  0  0
    0.4119    0.8556   -2.9008 C   0  0  0  0  0  0  0  0  0  0  0  0
    0.5806   -0.5211   -0.8209 C   0  0  2  0  0  0  0  0  0  0  0  0
   -0.7240   -0.0612   -0.4094 N   0  0  0  0  0  0  0  0  0  0  0  0
   -1.5762   -0.8876    0.3506 C   0  0  0  0  0  0  0  0  0  0  0  0
   -1.1444   -2.0481    0.6538 O   0  0  0  0  0  0  0  0  0  0  0  0
   -2.8375   -0.5151    0.7802 O   0  0  0  0  0  0  0  0  0  0  0  0
   -3.6126   -1.4409    1.5505 C   0  0  0  0  0  0  0  0  0  0  0  0
   -4.8938   -0.7724    1.8591 C   0  0  0  0  0  0  0  0  0  0  0  0
   -5.0106   -0.0179    3.0015 C   0  0  0  0  0  0  0  0  0  0  0  0
   -6.2121    0.6116    3.2946 C   0  0  0  0  0  0  0  0  0  0  0  0
   -7.2569    0.4586    2.4244 C   0  0  0  0  0  0  0  0  0  0  0  0
   -7.1348   -0.3019    1.2755 C   0  0  0  0  0  0  0  0  0  0  0  0
   -5.9472   -0.9175    0.9963 C   0  0  0  0  0  0  0  0  0  0  0  0
    1.6238    0.3359   -0.2480 C   0  0  0  0  0  0  0  0  0  0  0  0
    1.2975    1.3014    0.4828 O   0  0  0  0  0  0  0  0  0  0  0  0
    2.9918    0.0526   -0.5341 N   0  0  0  0  0  0  0  0  0  0  0  0
    4.0167    0.9199    0.0505 C   0  0  0  0  0  0  0  0  0  0  0  0
    4.7068    1.5961   -1.0877 C   0  0  0  0  0  0  0  0  0  0  0  0
    5.7707    2.5307   -0.7399 C   0  0  0  0  0  0  0  0  0  0  0  0
    6.4270    3.0643   -1.6687 O   0  0  0  0  0  0  0  0  0  0  0  0
    6.0902    2.8574    0.5593 O   0  0  0  0  0  0  0  0  0  0  0  0
    4.8612    0.0972    0.9172 C   0  0  0  0  0  0  0  0  0  0  0  0
    5.8116    0.4892    1.5742 O   0  0  0  0  0  0  0  0  0  0  0  0
    4.5685   -1.3640    1.0389 C   0  0  0  0  0  0  0  0  0  0  0  0
    5.4312   -2.0224    1.8780 F   0  0  0  0  0  0  0  0  0  0  0  0
   -0.4122   -1.3505   -4.0007 H   0  0  0  0  0  0  0  0  0  0  0  0
   -1.3960   -1.0674   -2.5548 H   0  0  0  0  0  0  0  0  0  0  0  0
   -0.2599   -2.5009   -2.6213 H   0  0  0  0  0  0  0  0  0  0  0  0
    1.6311   -0.9130   -2.6740 H   0  0  0  0  0  0  0  0  0  0  0  0
    1.1687    1.5761   -2.5156 H   0  0  0  0  0  0  0  0  0  0  0  0
    0.5386    0.8012   -3.9955 H   0  0  0  0  0  0  0  0  0  0  0  0
   -0.6315    1.1646   -2.6414 H   0  0  0  0  0  0  0  0  0  0  0  0
    0.7123   -1.5764   -0.4659 H   0  0  0  0  0  0  0  0  0  0  0  0
   -1.0826    0.8948   -0.6576 H   0  0  0  0  0  0  0  0  0  0  0  0
   -3.0748   -1.6293    2.5117 H   0  0  0  0  0  0  0  0  0  0  0  0
   -3.7492   -2.3854    1.0062 H   0  0  0  0  0  0  0  0  0  0  0  0
   -4.1688    0.0919    3.6816 H   0  0  0  0  0  0  0  0  0  0  0  0
   -6.3126    1.2085    4.1928 H   0  0  0  0  0  0  0  0  0  0  0  0
   -8.1915    0.9530    2.6596 H   0  0  0  0  0  0  0  0  0  0  0  0
   -8.0005   -0.3950    0.6093 H   0  0  0  0  0  0  0  0  0  0  0  0
   -5.8459   -1.5064    0.1097 H   0  0  0  0  0  0  0  0  0  0  0  0
    3.2791   -0.7394   -1.1361 H   0  0  0  0  0  0  0  0  0  0  0  0
    3.5321    1.7058    0.6727 H   0  0  0  0  0  0  0  0  0  0  0  0
    3.9096    2.1912   -1.6235 H   0  0  0  0  0  0  0  0  0  0  0  0
    5.0926    0.8929   -1.8525 H   0  0  0  0  0  0  0  0  0  0  0  0
    6.6369    3.6658    0.8232 H   0  0  0  0  0  0  0  0  0  0  0  0
    4.6329   -1.8714    0.0459 H   0  0  0  0  0  0  0  0  0  0  0  0
    3.5141   -1.5327    1.3864 H   0  0  0  0  0  0  0  0  0  0  0  0
  1  2  1  0
  2  3  1  0
  2  4  1  0
  4  5  1  0
  5  6  1  0
  6  7  2  0
  6  8  1  0
  8  9  1  0
  9 10  1  0
 10 11  2  0
 11 12  1  0
 12 13  2  0
 13 14  1  0
 14 15  2  0
  4 16  1  0
 16 17  2  0
 16 18  1  0
 18 19  1  0
 19 20  1  0
 20 21  1  0
 21 22  2  0
 21 23  1  0
 19 24  1  0
 24 25  2  0
 24 26  1  0
 26 27  1  0
 15 10  1  0
  1 28  1  0
  1 29  1  0
  1 30  1  0
  2 31  1  0
  3 32  1  0
  3 33  1  0
  3 34  1  0
  4 35  1  1
  5 36  1  0
  9 37  1  0
  9 38  1  0
 11 39  1  0
 12 40  1  0
 13 41  1  0
 14 42  1  0
 15 43  1  0
 18 44  1  0
 19 45  1  0
 20 46  1  0
 20 47  1  0
 23 48  1  0
 26 49  1  0
 26 50  1  0
M  END
$$$$
