@<TRIPOS>MOLECULE
*****
 35 38 0 0 0
SMALL
GASTEIGER

@<TRIPOS>ATOM
      1 O          -2.8598    1.8676    0.6230 O.3     1  UNL1       -0.4258
      2 N          -1.5287    1.6004    0.3598 N.ar    1  UNL1       -0.1824
      3 C          -0.5178    2.4794    0.2717 C.ar    1  UNL1        0.1066
      4 C          -0.5246    3.8636    0.4160 C.ar    1  UNL1       -0.0314
      5 C           0.6739    4.5410    0.2742 C.ar    1  UNL1       -0.0415
      6 C           1.8525    3.8710   -0.0034 C.ar    1  UNL1        0.0284
      7 N           1.8197    2.5221   -0.1369 N.ar    1  UNL1       -0.2527
      8 C           0.6762    1.8212   -0.0073 C.ar    1  UNL1        0.1003
      9 C           0.3633    0.4616   -0.0919 C.ar    1  UNL1        0.0369
     10 C          -0.9931    0.3717    0.1387 C.ar    1  UNL1        0.0977
     11 C          -1.7714   -0.8487    0.1503 C.ar    1  UNL1        0.0053
     12 C          -2.8359   -1.0673   -0.7236 C.ar    1  UNL1       -0.0343
     13 C          -3.5068   -2.2881   -0.6104 C.ar    1  UNL1        0.0282
     14 N          -3.1787   -3.2523    0.2911 N.ar    1  UNL1       -0.2632
     15 C          -2.1413   -3.0618    1.1564 C.ar    1  UNL1        0.0282
     16 C          -1.4652   -1.8648    1.0630 C.ar    1  UNL1       -0.0343
     17 C           1.3078   -0.6222   -0.3697 C.ar    1  UNL1       -0.0135
     18 C           1.3507   -1.4956   -1.4377 C.ar    1  UNL1       -0.0512
     19 C           2.3487   -2.4474   -1.4792 C.ar    1  UNL1       -0.0259
     20 C           3.3027   -2.5497   -0.4852 C.ar    1  UNL1        0.1234
     21 F           4.2616   -3.5085   -0.5832 F       1  UNL1       -0.2055
     22 C           3.2596   -1.6656    0.5957 C.ar    1  UNL1       -0.0259
     23 C           2.2427   -0.7026    0.6300 C.ar    1  UNL1       -0.0512
     24 H          -3.4735    2.1193   -0.1657 H       1  UNL1        0.3257
     25 H          -1.4529    4.3772    0.6329 H       1  UNL1        0.0640
     26 H           0.7011    5.6290    0.3814 H       1  UNL1        0.0633
     27 H           2.7754    4.4127   -0.1100 H       1  UNL1        0.0830
     28 H          -3.1158   -0.3308   -1.4398 H       1  UNL1        0.0639
     29 H          -4.3426   -2.4356   -1.3114 H       1  UNL1        0.0830
     30 H          -1.8601   -3.8131    1.8817 H       1  UNL1        0.0830
     31 H          -0.6234   -1.6586    1.7333 H       1  UNL1        0.0639
     32 H           0.5595   -1.3220   -2.1489 H       1  UNL1        0.0624
     33 H           2.3232   -3.1020   -2.3473 H       1  UNL1        0.0646
     34 H           4.0372   -1.8047    1.3348 H       1  UNL1        0.0646
     35 H           2.3358   -0.0968    1.5178 H       1  UNL1        0.0624
@<TRIPOS>BOND
     1     1     2    1
     2     2     3   ar
     3     3     4   ar
     4     4     5   ar
     5     5     6   ar
     6     6     7   ar
     7     7     8   ar
     8     8     9   ar
     9     9    10   ar
    10    10    11    1
    11    11    12   ar
    12    12    13   ar
    13    13    14   ar
    14    14    15   ar
    15    15    16   ar
    16     9    17    1
    17    17    18   ar
    18    18    19   ar
    19    19    20   ar
    20    20    21    1
    21    20    22   ar
    22    22    23   ar
    23    10     2   ar
    24    16    11   ar
    25    23    17   ar
    26     8     3   ar
    27     1    24    1
    28     4    25    1
    29     5    26    1
    30     6    27    1
    31    12    28    1
    32    13    29    1
    33    15    30    1
    34    16    31    1
    35    18    32    1
    36    19    33    1
    37    22    34    1
    38    23    35    1
