
     RDKit          3D

 35 38  0  0  0  0  0  0  0  0999 V2000
   -2.8598    1.8676    0.6230 O   0  0  0  0  0  0  0  0  0  0  0  0
   -1.5287    1.6004    0.3598 N   0  0  0  0  0  0  0  0  0  0  0  0
   -0.5178    2.4794    0.2717 C   0  0  0  0  0  0  0  0  0  0  0  0
   -0.5246    3.8636    0.4160 C   0  0  0  0  0  0  0  0  0  0  0  0
    0.6739    4.5410    0.2742 C   0  0  0  0  0  0  0  0  0  0  0  0
    1.8525    3.8710   -0.0034 C   0  0  0  0  0  0  0  0  0  0  0  0
    1.8197    2.5221   -0.1369 N   0  0  0  0  0  0  0  0  0  0  0  0
    0.6762    1.8212   -0.0073 C   0  0  0  0  0  0  0  0  0  0  0  0
    0.3633    0.4616   -0.0919 C   0  0  0  0  0  0  0  0  0  0  0  0
   -0.9931    0.3717    0.1387 C   0  0  0  0  0  0  0  0  0  0  0  0
   -1.7714   -0.8487    0.1503 C   0  0  0  0  0  0  0  0  0  0  0  0
   -2.8359   -1.0673   -0.7236 C   0  0  0  0  0  0  0  0  0  0  0  0
   -3.5068   -2.2881   -0.6104 C   0  0  0  0  0  0  0  0  0  0  0  0
   -3.1787   -3.2523    0.2911 N   0  0  0  0  0  0  0  0  0  0  0  0
   -2.1413   -3.0618    1.1564 C   0  0  0  0  0  0  0  0  0  0  0  0
   -1.4652   -1.8648    1.0630 C   0  0  0  0  0  0  0  0  0  0  0  0
    1.3078   -0.6222   -0.3697 C   0  0  0  0  0  0  0  0  0  0  0  0
    1.3507   -1.4956   -1.4377 C   0  0  0  0  0  0  0  0  0  0  0  0
    2.3487   -2.4474   -1.4792 C   0  0  0  0  0  0  0  0  0  0  0  0
    3.3027   -2.5497   -0.4852 C   0  0  0  0  0  0  0  0  0  0  0  0
    4.2616   -3.5085   -0.5832 F   0  0  0  0  0  0  0  0  0  0  0  0
    3.2596   -1.6656    0.5957 C   0  0  0  0  0  0  0  0  0  0  0  0
    2.2427   -0.7026    0.6300 C   0  0  0  0  0  0  0  0  0  0  0  0
   -3.4735    2.1193   -0.1657 H   0  0  0  0  0  0  0  0  0  0  0  0
   -1.4529    4.3772    0.6329 H   0  0  0  0  0  0  0  0  0  0  0  0
    0.7011    5.6290    0.3814 H   0  0  0  0  0  0  0  0  0  0  0  0
    2.7754    4.4127   -0.1100 H   0  0  0  0  0  0  0  0  0  0  0  0
   -3.1158   -0.3308   -1.4398 H   0  0  0  0  0  0  0  0  0  0  0  0
   -4.3426   -2.4356   -1.3114 H   0  0  0  0  0  0  0  0  0  0  0  0
   -1.8601   -3.8131    1.8817 H   0  0  0  0  0  0  0  0  0  0  0  0
   -0.6234   -1.6586    1.7333 H   0  0  0  0  0  0  0  0  0  0  0  0
    0.5595   -1.3220   -2.1489 H   0  0  0  0  0  0  0  0  0  0  0  0
    2.3232   -3.1020   -2.3473 H   0  0  0  0  0  0  0  0  0  0  0  0
    4.0372   -1.8047    1.3348 H   0  0  0  0  0  0  0  0  0  0  0  0
    2.3358   -0.0968    1.5178 H   0  0  0  0  0  0  0  0  0  0  0  0
  1  2  1  0
  2  3  1  0
  3  4  2  0
  4  5  1  0
  5  6  2  0
  6  7  1  0
  7  8  2  0
  8  9  1  0
  9 10  2  0
 10 11  1  0
 11 12  2  0
 12 13  1  0
 13 14  2  0
 14 15  1  0
 15 16  2  0
  9 17  1  0
 17 18  2  0
 18 19  1  0
 19 20  2  0
 20 21  1  0
 20 22  1  0
 22 23  2  0
 10  2  1  0
 16 11  1  0
 23 17  1  0
  8  3  1  0
  1 24  1  0
  4 25  1  0
  5 26  1  0
  6 27  1  0
 12 28  1  0
 13 29  1  0
 15 30  1  0
 16 31  1  0
 18 32  1  0
 19 33  1  0
 22 34  1  0
 23 35  1  0
M  END
$$$$
