
     RDKit          3D

 54 56  0  0  0  0  0  0  0  0999 V2000
    0.2467   -2.1579   -2.9217 C   0  0  0  0  0  0  0  0  0  0  0  0
   -0.2079   -1.2544   -1.8655 C   0  0  0  0  0  0  0  0  0  0  0  0
   -1.5274   -0.7559   -1.9726 C   0  0  0  0  0  0  0  0  0  0  0  0
   -2.1126    0.1150   -1.0765 C   0  0  0  0  0  0  0  0  0  0  0  0
   -1.3426    0.5168   -0.0070 C   0  0  0  0  0  0  0  0  0  0  0  0
   -0.0640    0.0099    0.0636 C   0  0  0  0  0  0  0  0  0  0  0  0
    0.5531   -0.8562   -0.8074 C   0  0  0  0  0  0  0  0  0  0  0  0
    1.8710   -1.3477   -0.5698 C   0  0  0  0  0  0  0  0  0  0  0  0
    2.0472   -2.3973   -1.3442 C   0  0  0  0  0  0  0  0  0  0  0  0
    3.0050   -1.0155    0.2528 C   0  0  0  0  0  0  0  0  0  0  0  0
    3.2134    0.1122    1.0075 C   0  0  0  0  0  0  0  0  0  0  0  0
    4.2680    0.3794    1.8175 C   0  0  0  0  0  0  0  0  0  0  0  0
    5.2457   -0.5859    1.8953 C   0  0  0  0  0  0  0  0  0  0  0  0
    5.1379   -1.7493    1.1820 C   0  0  0  0  0  0  0  0  0  0  0  0
    4.0300   -1.9257    0.3898 C   0  0  0  0  0  0  0  0  0  0  0  0
    6.4115   -0.3735    2.7453 C   0  0  0  0  0  0  0  0  0  0  0  0
    6.5381    0.7989    3.4760 O   0  0  0  0  0  0  0  0  0  0  0  0
    7.3241   -1.2531    2.8298 O   0  0  0  0  0  0  0  0  0  0  0  0
   -1.9221    1.4491    0.9857 C   0  0  0  0  0  0  0  0  0  0  0  0
   -1.8249    2.8924    0.6109 C   0  0  0  0  0  0  0  0  0  0  0  0
   -1.2889    1.2209    2.3558 C   0  0  0  0  0  0  0  0  0  0  0  0
   -3.3830    1.0139    1.1652 C   0  0  0  0  0  0  0  0  0  0  0  0
   -4.1460    1.1406   -0.1182 C   0  0  0  0  0  0  0  0  0  0  0  0
   -3.4957    0.5510   -1.3184 C   0  0  0  0  0  0  0  0  0  0  0  0
   -3.4261    1.6395   -2.3892 C   0  0  0  0  0  0  0  0  0  0  0  0
   -4.3342   -0.5699   -1.9069 C   0  0  0  0  0  0  0  0  0  0  0  0
    1.1752   -1.8282   -3.4608 H   0  0  0  0  0  0  0  0  0  0  0  0
   -0.5153   -2.1218   -3.7690 H   0  0  0  0  0  0  0  0  0  0  0  0
    0.2488   -3.2392   -2.6601 H   0  0  0  0  0  0  0  0  0  0  0  0
   -2.1373   -1.0712   -2.8126 H   0  0  0  0  0  0  0  0  0  0  0  0
    0.4468    0.3483    0.9438 H   0  0  0  0  0  0  0  0  0  0  0  0
    2.7426   -3.1645   -1.6350 H   0  0  0  0  0  0  0  0  0  0  0  0
    2.7417   -3.1646   -1.6355 H   0  0  0  0  0  0  0  0  0  0  0  0
    2.5164    0.9275    0.9795 H   0  0  0  0  0  0  0  0  0  0  0  0
    4.3964    1.2803    2.3980 H   0  0  0  0  0  0  0  0  0  0  0  0
    5.9264   -2.4687    1.2771 H   0  0  0  0  0  0  0  0  0  0  0  0
    4.0500   -2.8854   -0.1276 H   0  0  0  0  0  0  0  0  0  0  0  0
    7.0946    0.8492    4.3026 H   0  0  0  0  0  0  0  0  0  0  0  0
   -2.8377    3.3396    0.7026 H   0  0  0  0  0  0  0  0  0  0  0  0
   -1.2039    3.4375    1.3765 H   0  0  0  0  0  0  0  0  0  0  0  0
   -1.4213    3.0547   -0.4014 H   0  0  0  0  0  0  0  0  0  0  0  0
   -1.0413    0.1401    2.4050 H   0  0  0  0  0  0  0  0  0  0  0  0
   -0.3414    1.7665    2.3900 H   0  0  0  0  0  0  0  0  0  0  0  0
   -2.0091    1.5028    3.1308 H   0  0  0  0  0  0  0  0  0  0  0  0
   -3.8559    1.7144    1.8974 H   0  0  0  0  0  0  0  0  0  0  0  0
   -3.3811   -0.0258    1.5543 H   0  0  0  0  0  0  0  0  0  0  0  0
   -4.4060    2.2141   -0.2529 H   0  0  0  0  0  0  0  0  0  0  0  0
   -5.1171    0.6070    0.0549 H   0  0  0  0  0  0  0  0  0  0  0  0
   -4.4102    1.6342   -2.9028 H   0  0  0  0  0  0  0  0  0  0  0  0
   -3.1930    2.6264   -1.9624 H   0  0  0  0  0  0  0  0  0  0  0  0
   -2.6532    1.3013   -3.1139 H   0  0  0  0  0  0  0  0  0  0  0  0
   -5.3876   -0.2403   -1.7993 H   0  0  0  0  0  0  0  0  0  0  0  0
   -4.1303   -1.5314   -1.3913 H   0  0  0  0  0  0  0  0  0  0  0  0
   -4.1135   -0.5999   -2.9922 H   0  0  0  0  0  0  0  0  0  0  0  0
  1  2  1  0
  2  3  2  0
  3  4  1  0
  4  5  2  0
  5  6  1  0
  6  7  2  0
  7  8  1  0
  8  9  2  0
  8 10  1  0
 10 11  2  0
 11 12  1  0
 12 13  2  0
 13 14  1  0
 14 15  2  0
 13 16  1  0
 16 17  1  0
 16 18  2  0
  5 19  1  0
 19 20  1  0
 19 21  1  0
 19 22  1  0
 22 23  1  0
 23 24  1  0
 24 25  1  0
 24 26  1  0
  7  2  1  0
 15 10  1  0
 24  4  1  0
  1 27  1  0
  1 28  1  0
  1 29  1  0
  3 30  1  0
  6 31  1  0
  9 32  1  0
  9 33  1  0
 11 34  1  0
 12 35  1  0
 14 36  1  0
 15 37  1  0
 17 38  1  0
 20 39  1  0
 20 40  1  0
 20 41  1  0
 21 42  1  0
 21 43  1  0
 21 44  1  0
 22 45  1  0
 22 46  1  0
 23 47  1  0
 23 48  1  0
 25 49  1  0
 25 50  1  0
 25 51  1  0
 26 52  1  0
 26 53  1  0
 26 54  1  0
M  END
$$$$
