@<TRIPOS>MOLECULE
*****
 54 56 0 0 0
SMALL
GASTEIGER

@<TRIPOS>ATOM
      1 C           0.2467   -2.1579   -2.9217 C.3     1  UNL1       -0.0391
      2 C          -0.2079   -1.2544   -1.8655 C.ar    1  UNL1       -0.0425
      3 C          -1.5274   -0.7559   -1.9726 C.ar    1  UNL1       -0.0543
      4 C          -2.1126    0.1150   -1.0765 C.ar    1  UNL1       -0.0377
      5 C          -1.3426    0.5168   -0.0070 C.ar    1  UNL1       -0.0374
      6 C          -0.0640    0.0099    0.0636 C.ar    1  UNL1       -0.0498
      7 C           0.5531   -0.8562   -0.8074 C.ar    1  UNL1       -0.0147
      8 C           1.8710   -1.3477   -0.5698 C.2     1  UNL1       -0.0176
      9 C           2.0472   -2.3973   -1.3442 C.2     1  UNL1       -0.0904
     10 C           3.0050   -1.0155    0.2528 C.ar    1  UNL1       -0.0178
     11 C           3.2134    0.1122    1.0075 C.ar    1  UNL1       -0.0533
     12 C           4.2680    0.3794    1.8175 C.ar    1  UNL1       -0.0472
     13 C           5.2457   -0.5859    1.8953 C.ar    1  UNL1        0.0589
     14 C           5.1379   -1.7493    1.1820 C.ar    1  UNL1       -0.0472
     15 C           4.0300   -1.9257    0.3898 C.ar    1  UNL1       -0.0533
     16 C           6.4115   -0.3735    2.7453 C.2     1  UNL1        0.3368
     17 O           6.5381    0.7989    3.4760 O.3     1  UNL1       -0.4771
     18 O           7.3241   -1.2531    2.8298 O.2     1  UNL1       -0.2451
     19 C          -1.9221    1.4491    0.9857 C.3     1  UNL1       -0.0095
     20 C          -1.8249    2.8924    0.6109 C.3     1  UNL1       -0.0558
     21 C          -1.2889    1.2209    2.3558 C.3     1  UNL1       -0.0558
     22 C          -3.3830    1.0139    1.1652 C.3     1  UNL1       -0.0431
     23 C          -4.1460    1.1406   -0.1182 C.3     1  UNL1       -0.0431
     24 C          -3.4957    0.5510   -1.3184 C.3     1  UNL1       -0.0095
     25 C          -3.4261    1.6395   -2.3892 C.3     1  UNL1       -0.0558
     26 C          -4.3342   -0.5699   -1.9069 C.3     1  UNL1       -0.0558
     27 H           1.1752   -1.8282   -3.4608 H       1  UNL1        0.0278
     28 H          -0.5153   -2.1218   -3.7690 H       1  UNL1        0.0278
     29 H           0.2488   -3.2392   -2.6601 H       1  UNL1        0.0278
     30 H          -2.1373   -1.0712   -2.8126 H       1  UNL1        0.0623
     31 H           0.4468    0.3483    0.9438 H       1  UNL1        0.0627
     32 H           2.7426   -3.1645   -1.6350 H       1  UNL1        0.0541
     33 H           2.7417   -3.1646   -1.6355 H       1  UNL1        0.0541
     34 H           2.5164    0.9275    0.9795 H       1  UNL1        0.0624
     35 H           4.3964    1.2803    2.3980 H       1  UNL1        0.0626
     36 H           5.9264   -2.4687    1.2771 H       1  UNL1        0.0626
     37 H           4.0500   -2.8854   -0.1276 H       1  UNL1        0.0624
     38 H           7.0946    0.8492    4.3026 H       1  UNL1        0.2954
     39 H          -2.8377    3.3396    0.7026 H       1  UNL1        0.0238
     40 H          -1.2039    3.4375    1.3765 H       1  UNL1        0.0238
     41 H          -1.4213    3.0547   -0.4014 H       1  UNL1        0.0238
     42 H          -1.0413    0.1401    2.4050 H       1  UNL1        0.0238
     43 H          -0.3414    1.7665    2.3900 H       1  UNL1        0.0238
     44 H          -2.0091    1.5028    3.1308 H       1  UNL1        0.0238
     45 H          -3.8559    1.7144    1.8974 H       1  UNL1        0.0274
     46 H          -3.3811   -0.0258    1.5543 H       1  UNL1        0.0274
     47 H          -4.4060    2.2141   -0.2529 H       1  UNL1        0.0274
     48 H          -5.1171    0.6070    0.0549 H       1  UNL1        0.0274
     49 H          -4.4102    1.6342   -2.9028 H       1  UNL1        0.0238
     50 H          -3.1930    2.6264   -1.9624 H       1  UNL1        0.0238
     51 H          -2.6532    1.3013   -3.1139 H       1  UNL1        0.0238
     52 H          -5.3876   -0.2403   -1.7993 H       1  UNL1        0.0238
     53 H          -4.1303   -1.5314   -1.3913 H       1  UNL1        0.0238
     54 H          -4.1135   -0.5999   -2.9922 H       1  UNL1        0.0238
@<TRIPOS>BOND
     1     1     2    1
     2     2     3   ar
     3     3     4   ar
     4     4     5   ar
     5     5     6   ar
     6     6     7   ar
     7     7     8    1
     8     8     9    2
     9     8    10    1
    10    10    11   ar
    11    11    12   ar
    12    12    13   ar
    13    13    14   ar
    14    14    15   ar
    15    13    16    1
    16    16    17    1
    17    16    18    2
    18     5    19    1
    19    19    20    1
    20    19    21    1
    21    19    22    1
    22    22    23    1
    23    23    24    1
    24    24    25    1
    25    24    26    1
    26     7     2   ar
    27    15    10   ar
    28    24     4    1
    29     1    27    1
    30     1    28    1
    31     1    29    1
    32     3    30    1
    33     6    31    1
    34     9    32    1
    35     9    33    1
    36    11    34    1
    37    12    35    1
    38    14    36    1
    39    15    37    1
    40    17    38    1
    41    20    39    1
    42    20    40    1
    43    20    41    1
    44    21    42    1
    45    21    43    1
    46    21    44    1
    47    22    45    1
    48    22    46    1
    49    23    47    1
    50    23    48    1
    51    25    49    1
    52    25    50    1
    53    25    51    1
    54    26    52    1
    55    26    53    1
    56    26    54    1
