
     RDKit          3D

 84 89  0  0  0  0  0  0  0  0999 V2000
   -3.1165    2.9356    1.6479 C   0  0  0  0  0  0  0  0  0  0  0  0
   -2.1771    1.9138    1.7545 O   0  0  0  0  0  0  0  0  0  0  0  0
   -1.3801    1.4078    0.7284 C   0  0  0  0  0  0  0  0  0  0  0  0
   -1.5217    1.9210   -0.4063 O   0  0  0  0  0  0  0  0  0  0  0  0
   -0.4584    0.3301    1.0923 C   0  0  1  0  0  0  0  0  0  0  0  0
   -1.0388   -0.9529    1.5624 C   0  0  1  0  0  0  0  0  0  0  0  0
   -2.5473   -1.0290    1.3348 C   0  0  0  0  0  0  0  0  0  0  0  0
   -2.8629   -1.3396   -0.0856 C   0  0  2  0  0  0  0  0  0  0  0  0
   -4.3037   -1.1622   -0.3284 C   0  0  0  0  0  0  0  0  0  0  0  0
   -5.3603   -0.6253    0.2940 N   0  0  0  0  0  0  0  0  0  0  0  0
   -6.4674   -0.7554   -0.4773 C   0  0  0  0  0  0  0  0  0  0  0  0
   -7.7704   -0.3575   -0.2851 C   0  0  0  0  0  0  0  0  0  0  0  0
   -8.7848   -0.5759   -1.2264 C   0  0  0  0  0  0  0  0  0  0  0  0
  -10.0940   -0.1664   -1.0191 O   0  0  0  0  0  0  0  0  0  0  0  0
  -10.4071    0.4963    0.1839 C   0  0  0  0  0  0  0  0  0  0  0  0
   -8.4040   -1.2325   -2.3979 C   0  0  0  0  0  0  0  0  0  0  0  0
   -7.0986   -1.6282   -2.5835 C   0  0  0  0  0  0  0  0  0  0  0  0
   -6.1157   -1.4018   -1.6430 C   0  0  0  0  0  0  0  0  0  0  0  0
   -4.7765   -1.6474   -1.5371 C   0  0  0  0  0  0  0  0  0  0  0  0
   -3.8107   -2.3023   -2.4184 C   0  0  0  0  0  0  0  0  0  0  0  0
   -2.7787   -3.1225   -1.6907 C   0  0  0  0  0  0  0  0  0  0  0  0
   -2.3708   -2.6365   -0.4391 N   0  0  0  0  0  0  0  0  0  0  0  0
   -1.0368   -2.8989   -0.0961 C   0  0  0  0  0  0  0  0  0  0  0  0
   -0.4188   -2.2036    1.0628 C   0  0  1  0  0  0  0  0  0  0  0  0
    1.1030   -2.1483    0.9203 C   0  0  0  0  0  0  0  0  0  0  0  0
    1.6216   -0.7919    1.0048 C   0  0  1  0  0  0  0  0  0  0  0  0
    2.9413   -0.4983    0.6828 O   0  0  0  0  0  0  0  0  0  0  0  0
    3.7593    0.2770    1.4734 C   0  0  0  0  0  0  0  0  0  0  0  0
    3.1961    0.7136    2.5464 O   0  0  0  0  0  0  0  0  0  0  0  0
    5.1273    0.6114    1.1741 C   0  0  0  0  0  0  0  0  0  0  0  0
    5.8579    0.1075    0.1172 C   0  0  0  0  0  0  0  0  0  0  0  0
    7.1517    0.4803   -0.1288 C   0  0  0  0  0  0  0  0  0  0  0  0
    7.9214    0.0174   -1.1541 O   0  0  0  0  0  0  0  0  0  0  0  0
    7.5266   -0.9103   -2.1164 C   0  0  0  0  0  0  0  0  0  0  0  0
    7.7917    1.4045    0.7000 C   0  0  0  0  0  0  0  0  0  0  0  0
    9.0948    1.8208    0.5071 O   0  0  0  0  0  0  0  0  0  0  0  0
    9.5354    2.8943   -0.2547 C   0  0  0  0  0  0  0  0  0  0  0  0
    7.1020    1.9354    1.7672 C   0  0  0  0  0  0  0  0  0  0  0  0
    7.6596    2.8153    2.5815 O   0  0  0  0  0  0  0  0  0  0  0  0
    7.8283    3.6459    3.5431 C   0  0  0  0  0  0  0  0  0  0  0  0
    5.7598    1.5230    1.9903 C   0  0  0  0  0  0  0  0  0  0  0  0
    0.6697    0.0898    0.1123 C   0  0  2  0  0  0  0  0  0  0  0  0
    1.3445    1.2356   -0.2510 O   0  0  0  0  0  0  0  0  0  0  0  0
    1.5072    1.3017   -1.6380 C   0  0  0  0  0  0  0  0  0  0  0  0
   -3.6212    2.9890    2.6618 H   0  0  0  0  0  0  0  0  0  0  0  0
   -3.8814    2.8073    0.8852 H   0  0  0  0  0  0  0  0  0  0  0  0
   -2.5543    3.8928    1.5679 H   0  0  0  0  0  0  0  0  0  0  0  0
    0.1213    0.7950    1.9835 H   0  0  0  0  0  0  0  0  0  0  0  0
   -0.9684   -0.9612    2.6981 H   0  0  0  0  0  0  0  0  0  0  0  0
   -3.1020   -0.1811    1.7194 H   0  0  0  0  0  0  0  0  0  0  0  0
   -2.8822   -1.9153    1.9544 H   0  0  0  0  0  0  0  0  0  0  0  0
   -2.3530   -0.6336   -0.8076 H   0  0  0  0  0  0  0  0  0  0  0  0
   -5.3028   -0.1760    1.2429 H   0  0  0  0  0  0  0  0  0  0  0  0
   -8.0303    0.1508    0.6438 H   0  0  0  0  0  0  0  0  0  0  0  0
  -11.4856    0.8305    0.1277 H   0  0  0  0  0  0  0  0  0  0  0  0
   -9.8258    1.3984    0.3838 H   0  0  0  0  0  0  0  0  0  0  0  0
  -10.3392   -0.1717    1.0707 H   0  0  0  0  0  0  0  0  0  0  0  0
   -9.1800   -1.4079   -3.1375 H   0  0  0  0  0  0  0  0  0  0  0  0
   -6.8356   -2.1304   -3.4969 H   0  0  0  0  0  0  0  0  0  0  0  0
   -3.2427   -1.4737   -2.9284 H   0  0  0  0  0  0  0  0  0  0  0  0
   -4.2800   -2.8944   -3.2270 H   0  0  0  0  0  0  0  0  0  0  0  0
   -3.1940   -4.1501   -1.5846 H   0  0  0  0  0  0  0  0  0  0  0  0
   -1.8695   -3.2415   -2.3521 H   0  0  0  0  0  0  0  0  0  0  0  0
   -0.9401   -4.0278   -0.0165 H   0  0  0  0  0  0  0  0  0  0  0  0
   -0.4082   -2.6853   -1.0121 H   0  0  0  0  0  0  0  0  0  0  0  0
   -0.5590   -2.9577    1.9209 H   0  0  0  0  0  0  0  0  0  0  0  0
    1.3452   -2.6806   -0.0462 H   0  0  0  0  0  0  0  0  0  0  0  0
    1.6246   -2.7786    1.6880 H   0  0  0  0  0  0  0  0  0  0  0  0
    1.4821   -0.3919    2.0572 H   0  0  0  0  0  0  0  0  0  0  0  0
    5.3779   -0.6064   -0.5328 H   0  0  0  0  0  0  0  0  0  0  0  0
    8.0200   -0.6929   -3.1166 H   0  0  0  0  0  0  0  0  0  0  0  0
    7.8818   -1.9581   -1.8981 H   0  0  0  0  0  0  0  0  0  0  0  0
    6.4210   -0.9181   -2.2565 H   0  0  0  0  0  0  0  0  0  0  0  0
    9.9176    3.7646    0.3260 H   0  0  0  0  0  0  0  0  0  0  0  0
    8.7821    3.2075   -1.0352 H   0  0  0  0  0  0  0  0  0  0  0  0
   10.4179    2.5340   -0.8627 H   0  0  0  0  0  0  0  0  0  0  0  0
    8.3022    4.6600    3.3226 H   0  0  0  0  0  0  0  0  0  0  0  0
    6.8503    3.8601    4.1033 H   0  0  0  0  0  0  0  0  0  0  0  0
    8.5379    3.2354    4.3400 H   0  0  0  0  0  0  0  0  0  0  0  0
    5.2603    1.9711    2.8415 H   0  0  0  0  0  0  0  0  0  0  0  0
    0.3854   -0.4919   -0.7506 H   0  0  0  0  0  0  0  0  0  0  0  0
    2.1111    0.4028   -1.9436 H   0  0  0  0  0  0  0  0  0  0  0  0
    0.5456    1.3443   -2.1918 H   0  0  0  0  0  0  0  0  0  0  0  0
    2.0731    2.1911   -1.9500 H   0  0  0  0  0  0  0  0  0  0  0  0
  1  2  1  0
  2  3  1  0
  3  4  2  0
  3  5  1  0
  5  6  1  0
  6  7  1  0
  7  8  1  0
  8  9  1  0
  9 10  1  0
 10 11  1  0
 11 12  2  0
 12 13  1  0
 13 14  1  0
 14 15  1  0
 13 16  2  0
 16 17  1  0
 17 18  2  0
 18 19  1  0
 19 20  1  0
 20 21  1  0
 21 22  1  0
 22 23  1  0
 23 24  1  0
 24 25  1  0
 25 26  1  0
 26 27  1  0
 27 28  1  0
 28 29  2  0
 28 30  1  0
 30 31  2  0
 31 32  1  0
 32 33  1  0
 33 34  1  0
 32 35  2  0
 35 36  1  0
 36 37  1  0
 35 38  1  0
 38 39  1  0
 39 40  1  0
 38 41  2  0
 26 42  1  0
 42 43  1  0
 43 44  1  0
 42  5  1  0
 24  6  1  0
 41 30  1  0
 22  8  1  0
 19  9  2  0
 18 11  1  0
  1 45  1  0
  1 46  1  0
  1 47  1  0
  5 48  1  1
  6 49  1  1
  7 50  1  0
  7 51  1  0
  8 52  1  6
 10 53  1  0
 12 54  1  0
 15 55  1  0
 15 56  1  0
 15 57  1  0
 16 58  1  0
 17 59  1  0
 20 60  1  0
 20 61  1  0
 21 62  1  0
 21 63  1  0
 23 64  1  0
 23 65  1  0
 24 66  1  1
 25 67  1  0
 25 68  1  0
 26 69  1  1
 31 70  1  0
 34 71  1  0
 34 72  1  0
 34 73  1  0
 37 74  1  0
 37 75  1  0
 37 76  1  0
 40 77  1  0
 40 78  1  0
 40 79  1  0
 41 80  1  0
 42 81  1  6
 44 82  1  0
 44 83  1  0
 44 84  1  0
M  END
$$$$
