@<TRIPOS>MOLECULE
*****
 84 89 0 0 0
SMALL
GASTEIGER

@<TRIPOS>ATOM
      1 C          -3.1165    2.9356    1.6479 C.3     1  UNL1        0.0817
      2 O          -2.1771    1.9138    1.7545 O.3     1  UNL1       -0.4677
      3 C          -1.3801    1.4078    0.7284 C.2     1  UNL1        0.3128
      4 O          -1.5217    1.9210   -0.4063 O.2     1  UNL1       -0.2504
      5 C          -0.4584    0.3301    1.0923 C.3     1  UNL1        0.0891
      6 C          -1.0388   -0.9529    1.5624 C.3     1  UNL1       -0.0197
      7 C          -2.5473   -1.0290    1.3348 C.3     1  UNL1       -0.0278
      8 C          -2.8629   -1.3396   -0.0856 C.3     1  UNL1        0.0512
      9 C          -4.3037   -1.1622   -0.3284 C.ar    1  UNL1        0.0376
     10 N          -5.3603   -0.6253    0.2940 N.ar    1  UNL1       -0.3564
     11 C          -6.4674   -0.7554   -0.4773 C.ar    1  UNL1        0.0505
     12 C          -7.7704   -0.3575   -0.2851 C.ar    1  UNL1        0.0040
     13 C          -8.7848   -0.5759   -1.2264 C.ar    1  UNL1        0.1221
     14 O         -10.0940   -0.1664   -1.0191 O.3     1  UNL1       -0.4950
     15 C         -10.4071    0.4963    0.1839 C.3     1  UNL1        0.0788
     16 C          -8.4040   -1.2325   -2.3979 C.ar    1  UNL1       -0.0193
     17 C          -7.0986   -1.6282   -2.5835 C.ar    1  UNL1       -0.0489
     18 C          -6.1157   -1.4018   -1.6430 C.ar    1  UNL1        0.0034
     19 C          -4.7765   -1.6474   -1.5371 C.ar    1  UNL1       -0.0164
     20 C          -3.8107   -2.3023   -2.4184 C.3     1  UNL1       -0.0125
     21 C          -2.7787   -3.1225   -1.6907 C.3     1  UNL1        0.0036
     22 N          -2.3708   -2.6365   -0.4391 N.3     1  UNL1       -0.2934
     23 C          -1.0368   -2.8989   -0.0961 C.3     1  UNL1        0.0028
     24 C          -0.4188   -2.2036    1.0628 C.3     1  UNL1       -0.0211
     25 C           1.1030   -2.1483    0.9203 C.3     1  UNL1       -0.0089
     26 C           1.6216   -0.7919    1.0048 C.3     1  UNL1        0.1304
     27 O           2.9413   -0.4983    0.6828 O.3     1  UNL1       -0.4552
     28 C           3.7593    0.2770    1.4734 C.2     1  UNL1        0.3398
     29 O           3.1961    0.7136    2.5464 O.2     1  UNL1       -0.2449
     30 C           5.1273    0.6114    1.1741 C.ar    1  UNL1        0.0661
     31 C           5.8579    0.1075    0.1172 C.ar    1  UNL1       -0.0021
     32 C           7.1517    0.4803   -0.1288 C.ar    1  UNL1        0.1660
     33 O           7.9214    0.0174   -1.1541 O.3     1  UNL1       -0.4913
     34 C           7.5266   -0.9103   -2.1164 C.3     1  UNL1        0.0790
     35 C           7.7917    1.4045    0.7000 C.ar    1  UNL1        0.2035
     36 O           9.0948    1.8208    0.5071 O.3     1  UNL1       -0.4885
     37 C           9.5354    2.8943   -0.2547 C.3     1  UNL1        0.0791
     38 C           7.1020    1.9354    1.7672 C.ar    1  UNL1        0.1660
     39 O           7.6596    2.8153    2.5815 O.3     1  UNL1       -0.4913
     40 C           7.8283    3.6459    3.5431 C.3     1  UNL1        0.0790
     41 C           5.7598    1.5230    1.9903 C.ar    1  UNL1       -0.0021
     42 C           0.6697    0.0898    0.1123 C.3     1  UNL1        0.1083
     43 O           1.3445    1.2356   -0.2510 O.3     1  UNL1       -0.3753
     44 C           1.5072    1.3017   -1.6380 C.3     1  UNL1        0.0370
     45 H          -3.6212    2.9890    2.6618 H       1  UNL1        0.0661
     46 H          -3.8814    2.8073    0.8852 H       1  UNL1        0.0661
     47 H          -2.5543    3.8928    1.5679 H       1  UNL1        0.0661
     48 H           0.1213    0.7950    1.9835 H       1  UNL1        0.0443
     49 H          -0.9684   -0.9612    2.6981 H       1  UNL1        0.0313
     50 H          -3.1020   -0.1811    1.7194 H       1  UNL1        0.0287
     51 H          -2.8822   -1.9153    1.9544 H       1  UNL1        0.0287
     52 H          -2.3530   -0.6336   -0.8076 H       1  UNL1        0.0527
     53 H          -5.3028   -0.1760    1.2429 H       1  UNL1        0.1656
     54 H          -8.0303    0.1508    0.6438 H       1  UNL1        0.0675
     55 H         -11.4856    0.8305    0.1277 H       1  UNL1        0.0660
     56 H          -9.8258    1.3984    0.3838 H       1  UNL1        0.0660
     57 H         -10.3392   -0.1717    1.0707 H       1  UNL1        0.0660
     58 H          -9.1800   -1.4079   -3.1375 H       1  UNL1        0.0654
     59 H          -6.8356   -2.1304   -3.4969 H       1  UNL1        0.0625
     60 H          -3.2427   -1.4737   -2.9284 H       1  UNL1        0.0326
     61 H          -4.2800   -2.8944   -3.2270 H       1  UNL1        0.0326
     62 H          -3.1940   -4.1501   -1.5846 H       1  UNL1        0.0430
     63 H          -1.8695   -3.2415   -2.3521 H       1  UNL1        0.0430
     64 H          -0.9401   -4.0278   -0.0165 H       1  UNL1        0.0429
     65 H          -0.4082   -2.6853   -1.0121 H       1  UNL1        0.0429
     66 H          -0.5590   -2.9577    1.9209 H       1  UNL1        0.0317
     67 H           1.3452   -2.6806   -0.0462 H       1  UNL1        0.0305
     68 H           1.6246   -2.7786    1.6880 H       1  UNL1        0.0305
     69 H           1.4821   -0.3919    2.0572 H       1  UNL1        0.0760
     70 H           5.3779   -0.6064   -0.5328 H       1  UNL1        0.0663
     71 H           8.0200   -0.6929   -3.1166 H       1  UNL1        0.0660
     72 H           7.8818   -1.9581   -1.8981 H       1  UNL1        0.0660
     73 H           6.4210   -0.9181   -2.2565 H       1  UNL1        0.0660
     74 H           9.9176    3.7646    0.3260 H       1  UNL1        0.0660
     75 H           8.7821    3.2075   -1.0352 H       1  UNL1        0.0660
     76 H          10.4179    2.5340   -0.8627 H       1  UNL1        0.0660
     77 H           8.3022    4.6600    3.3226 H       1  UNL1        0.0660
     78 H           6.8503    3.8601    4.1033 H       1  UNL1        0.0660
     79 H           8.5379    3.2354    4.3400 H       1  UNL1        0.0660
     80 H           5.2603    1.9711    2.8415 H       1  UNL1        0.0663
     81 H           0.3854   -0.4919   -0.7506 H       1  UNL1        0.0641
     82 H           2.1111    0.4028   -1.9436 H       1  UNL1        0.0524
     83 H           0.5456    1.3443   -2.1918 H       1  UNL1        0.0524
     84 H           2.0731    2.1911   -1.9500 H       1  UNL1        0.0524
@<TRIPOS>BOND
     1     1     2    1
     2     2     3    1
     3     3     4    2
     4     3     5    1
     5     5     6    1
     6     6     7    1
     7     7     8    1
     8     8     9    1
     9     9    10   ar
    10    10    11   ar
    11    11    12   ar
    12    12    13   ar
    13    13    14    1
    14    14    15    1
    15    13    16   ar
    16    16    17   ar
    17    17    18   ar
    18    18    19   ar
    19    19    20    1
    20    20    21    1
    21    21    22    1
    22    22    23    1
    23    23    24    1
    24    24    25    1
    25    25    26    1
    26    26    27    1
    27    27    28    1
    28    28    29    2
    29    28    30    1
    30    30    31   ar
    31    31    32   ar
    32    32    33    1
    33    33    34    1
    34    32    35   ar
    35    35    36    1
    36    36    37    1
    37    35    38   ar
    38    38    39    1
    39    39    40    1
    40    38    41   ar
    41    26    42    1
    42    42    43    1
    43    43    44    1
    44    42     5    1
    45    24     6    1
    46    41    30   ar
    47    22     8    1
    48    19     9   ar
    49    18    11   ar
    50     1    45    1
    51     1    46    1
    52     1    47    1
    53     5    48    1
    54     6    49    1
    55     7    50    1
    56     7    51    1
    57     8    52    1
    58    10    53    1
    59    12    54    1
    60    15    55    1
    61    15    56    1
    62    15    57    1
    63    16    58    1
    64    17    59    1
    65    20    60    1
    66    20    61    1
    67    21    62    1
    68    21    63    1
    69    23    64    1
    70    23    65    1
    71    24    66    1
    72    25    67    1
    73    25    68    1
    74    26    69    1
    75    31    70    1
    76    34    71    1
    77    34    72    1
    78    34    73    1
    79    37    74    1
    80    37    75    1
    81    37    76    1
    82    40    77    1
    83    40    78    1
    84    40    79    1
    85    41    80    1
    86    42    81    1
    87    44    82    1
    88    44    83    1
    89    44    84    1
