
     RDKit          3D

 49 51  0  0  0  0  0  0  0  0999 V2000
   -5.4200   -0.4110   -0.9305 C   0  0  0  0  0  0  0  0  0  0  0  0
   -4.2862    0.4844   -0.5437 C   0  0  0  0  0  0  0  0  0  0  0  0
   -4.1170    1.4998   -1.6643 C   0  0  0  0  0  0  0  0  0  0  0  0
   -4.6238    1.4507    0.9665 S   0  0  0  0  0  0  0  0  0  0  0  0
   -3.0989    1.6265    1.9302 C   0  0  0  0  0  0  0  0  0  0  0  0
   -1.8637    1.2353    1.2181 C   0  0  0  0  0  0  0  0  0  0  0  0
   -1.9172    0.5798    0.0035 N   0  0  0  0  0  0  0  0  0  0  0  0
   -0.7642    0.8916   -1.1608 S   0  0  0  0  0  6  0  0  0  0  0  0
   -0.6860    2.3772   -1.4419 O   0  0  0  0  0  0  0  0  0  0  0  0
   -0.9696    0.1356   -2.4107 O   0  0  0  0  0  0  0  0  0  0  0  0
    0.8264    0.4430   -0.5264 C   0  0  0  0  0  0  0  0  0  0  0  0
    1.3001   -0.8380   -0.7160 C   0  0  0  0  0  0  0  0  0  0  0  0
    2.5330   -1.2338   -0.2400 C   0  0  0  0  0  0  0  0  0  0  0  0
    3.3249   -0.3386    0.4449 C   0  0  0  0  0  0  0  0  0  0  0  0
    4.5874   -0.7112    0.9431 O   0  0  0  0  0  0  0  0  0  0  0  0
    5.6816   -0.5334    0.1155 C   0  0  0  0  0  0  0  0  0  0  0  0
    6.3685    0.6427    0.1429 C   0  0  0  0  0  0  0  0  0  0  0  0
    7.4598    0.7766   -0.7048 C   0  0  0  0  0  0  0  0  0  0  0  0
    7.8077   -0.2439   -1.5211 N   0  0  0  0  0  0  0  0  0  0  0  0
    7.1247   -1.3931   -1.5379 C   0  0  0  0  0  0  0  0  0  0  0  0
    6.0425   -1.5738   -0.7220 C   0  0  0  0  0  0  0  0  0  0  0  0
    2.8352    0.9397    0.6258 C   0  0  0  0  0  0  0  0  0  0  0  0
    1.6043    1.3335    0.1501 C   0  0  0  0  0  0  0  0  0  0  0  0
   -2.9967   -0.2761   -0.3459 C   0  0  1  0  0  0  0  0  0  0  0  0
   -3.0684   -1.3781    0.6186 C   0  0  0  0  0  0  0  0  0  0  0  0
   -2.4088   -1.2989    1.6818 O   0  0  0  0  0  0  0  0  0  0  0  0
   -3.8300   -2.5593    0.4615 N   0  0  0  0  0  0  0  0  0  0  0  0
   -3.8405   -3.5399    1.4208 O   0  0  0  0  0  0  0  0  0  0  0  0
   -5.8652   -0.9433   -0.0627 H   0  0  0  0  0  0  0  0  0  0  0  0
   -5.1698   -1.0592   -1.7884 H   0  0  0  0  0  0  0  0  0  0  0  0
   -6.3003    0.2007   -1.3222 H   0  0  0  0  0  0  0  0  0  0  0  0
   -3.6781    2.4410   -1.2584 H   0  0  0  0  0  0  0  0  0  0  0  0
   -3.5936    1.1039   -2.5325 H   0  0  0  0  0  0  0  0  0  0  0  0
   -5.1508    1.7701   -1.9951 H   0  0  0  0  0  0  0  0  0  0  0  0
   -3.1871    1.0342    2.8705 H   0  0  0  0  0  0  0  0  0  0  0  0
   -2.9982    2.6900    2.2915 H   0  0  0  0  0  0  0  0  0  0  0  0
   -1.1956    0.6552    1.9284 H   0  0  0  0  0  0  0  0  0  0  0  0
   -1.2374    2.1801    1.0609 H   0  0  0  0  0  0  0  0  0  0  0  0
    0.6572   -1.5344   -1.2621 H   0  0  0  0  0  0  0  0  0  0  0  0
    2.8553   -2.2416   -0.4140 H   0  0  0  0  0  0  0  0  0  0  0  0
    6.0545    1.4282    0.8101 H   0  0  0  0  0  0  0  0  0  0  0  0
    7.9929    1.7097   -0.6731 H   0  0  0  0  0  0  0  0  0  0  0  0
    7.4193   -2.1930   -2.1963 H   0  0  0  0  0  0  0  0  0  0  0  0
    5.4579   -2.4839   -0.6986 H   0  0  0  0  0  0  0  0  0  0  0  0
    3.4148    1.6839    1.1565 H   0  0  0  0  0  0  0  0  0  0  0  0
    1.2132    2.3355    0.2883 H   0  0  0  0  0  0  0  0  0  0  0  0
   -2.7497   -0.7289   -1.3418 H   0  0  0  0  0  0  0  0  0  0  0  0
   -4.3945   -2.7491   -0.3640 H   0  0  0  0  0  0  0  0  0  0  0  0
   -3.1502   -3.3863    2.1001 H   0  0  0  0  0  0  0  0  0  0  0  0
  1  2  1  0
  2  3  1  0
  2  4  1  0
  4  5  1  0
  5  6  1  0
  6  7  1  0
  7  8  1  0
  8  9  2  0
  8 10  2  0
  8 11  1  0
 11 12  2  0
 12 13  1  0
 13 14  2  0
 14 15  1  0
 15 16  1  0
 16 17  2  0
 17 18  1  0
 18 19  2  0
 19 20  1  0
 20 21  2  0
 14 22  1  0
 22 23  2  0
  7 24  1  0
 24 25  1  0
 25 26  2  0
 25 27  1  0
 27 28  1  0
 24  2  1  0
 23 11  1  0
 21 16  1  0
  1 29  1  0
  1 30  1  0
  1 31  1  0
  3 32  1  0
  3 33  1  0
  3 34  1  0
  5 35  1  0
  5 36  1  0
  6 37  1  0
  6 38  1  0
 12 39  1  0
 13 40  1  0
 17 41  1  0
 18 42  1  0
 20 43  1  0
 21 44  1  0
 22 45  1  0
 23 46  1  0
 24 47  1  6
 27 48  1  0
 28 49  1  0
M  END
$$$$
