@<TRIPOS>MOLECULE
*****
 49 51 0 0 0
SMALL
GASTEIGER

@<TRIPOS>ATOM
      1 C          -5.4200   -0.4110   -0.9305 C.3     1  UNL1       -0.0487
      2 C          -4.2862    0.4844   -0.5437 C.3     1  UNL1        0.0367
      3 C          -4.1170    1.4998   -1.6643 C.3     1  UNL1       -0.0487
      4 S          -4.6238    1.4507    0.9665 S.3     1  UNL1       -0.1511
      5 C          -3.0989    1.6265    1.9302 C.3     1  UNL1        0.0087
      6 C          -1.8637    1.2353    1.2181 C.3     1  UNL1        0.0304
      7 N          -1.9172    0.5798    0.0035 N.3     1  UNL1       -0.1626
      8 S          -0.7642    0.8916   -1.1608 S.O2    1  UNL1        0.0616
      9 O          -0.6860    2.3772   -1.4419 O.2     1  UNL1       -0.1528
     10 O          -0.9696    0.1356   -2.4107 O.2     1  UNL1       -0.1528
     11 C           0.8264    0.4430   -0.5264 C.ar    1  UNL1        0.1057
     12 C           1.3001   -0.8380   -0.7160 C.ar    1  UNL1       -0.0319
     13 C           2.5330   -1.2338   -0.2400 C.ar    1  UNL1       -0.0175
     14 C           3.3249   -0.3386    0.4449 C.ar    1  UNL1        0.1286
     15 O           4.5874   -0.7112    0.9431 O.3     1  UNL1       -0.4559
     16 C           5.6816   -0.5334    0.1155 C.ar    1  UNL1        0.1313
     17 C           6.3685    0.6427    0.1429 C.ar    1  UNL1       -0.0012
     18 C           7.4598    0.7766   -0.7048 C.ar    1  UNL1        0.0310
     19 N           7.8077   -0.2439   -1.5211 N.ar    1  UNL1       -0.2630
     20 C           7.1247   -1.3931   -1.5379 C.ar    1  UNL1        0.0310
     21 C           6.0425   -1.5738   -0.7220 C.ar    1  UNL1       -0.0012
     22 C           2.8352    0.9397    0.6258 C.ar    1  UNL1       -0.0175
     23 C           1.6043    1.3335    0.1501 C.ar    1  UNL1       -0.0319
     24 C          -2.9967   -0.2761   -0.3459 C.3     1  UNL1        0.1237
     25 C          -3.0684   -1.3781    0.6186 C.2     1  UNL1        0.2557
     26 O          -2.4088   -1.2989    1.6818 O.2     1  UNL1       -0.2719
     27 N          -3.8300   -2.5593    0.4615 N.am    1  UNL1       -0.1961
     28 O          -3.8405   -3.5399    1.4208 O.3     1  UNL1       -0.2951
     29 H          -5.8652   -0.9433   -0.0627 H       1  UNL1        0.0244
     30 H          -5.1698   -1.0592   -1.7884 H       1  UNL1        0.0244
     31 H          -6.3003    0.2007   -1.3222 H       1  UNL1        0.0244
     32 H          -3.6781    2.4410   -1.2584 H       1  UNL1        0.0244
     33 H          -3.5936    1.1039   -2.5325 H       1  UNL1        0.0244
     34 H          -5.1508    1.7701   -1.9951 H       1  UNL1        0.0244
     35 H          -3.1871    1.0342    2.8705 H       1  UNL1        0.0389
     36 H          -2.9982    2.6900    2.2915 H       1  UNL1        0.0389
     37 H          -1.1956    0.6552    1.9284 H       1  UNL1        0.0452
     38 H          -1.2374    2.1801    1.0609 H       1  UNL1        0.0452
     39 H           0.6572   -1.5344   -1.2621 H       1  UNL1        0.0638
     40 H           2.8553   -2.2416   -0.4140 H       1  UNL1        0.0655
     41 H           6.0545    1.4282    0.8101 H       1  UNL1        0.0669
     42 H           7.9929    1.7097   -0.6731 H       1  UNL1        0.0830
     43 H           7.4193   -2.1930   -2.1963 H       1  UNL1        0.0830
     44 H           5.4579   -2.4839   -0.6986 H       1  UNL1        0.0669
     45 H           3.4148    1.6839    1.1565 H       1  UNL1        0.0655
     46 H           1.2132    2.3355    0.2883 H       1  UNL1        0.0638
     47 H          -2.7497   -0.7289   -1.3418 H       1  UNL1        0.0590
     48 H          -4.3945   -2.7491   -0.3640 H       1  UNL1        0.1822
     49 H          -3.1502   -3.3863    2.1001 H       1  UNL1        0.2414
@<TRIPOS>BOND
     1     1     2    1
     2     2     3    1
     3     2     4    1
     4     4     5    1
     5     5     6    1
     6     6     7    1
     7     7     8    1
     8     8     9    2
     9     8    10    2
    10     8    11    1
    11    11    12   ar
    12    12    13   ar
    13    13    14   ar
    14    14    15    1
    15    15    16    1
    16    16    17   ar
    17    17    18   ar
    18    18    19   ar
    19    19    20   ar
    20    20    21   ar
    21    14    22   ar
    22    22    23   ar
    23     7    24    1
    24    24    25    1
    25    25    26    2
    26    25    27   am
    27    27    28    1
    28    24     2    1
    29    23    11   ar
    30    21    16   ar
    31     1    29    1
    32     1    30    1
    33     1    31    1
    34     3    32    1
    35     3    33    1
    36     3    34    1
    37     5    35    1
    38     5    36    1
    39     6    37    1
    40     6    38    1
    41    12    39    1
    42    13    40    1
    43    17    41    1
    44    18    42    1
    45    20    43    1
    46    21    44    1
    47    22    45    1
    48    23    46    1
    49    24    47    1
    50    27    48    1
    51    28    49    1
