
     RDKit          3D

 46 49  0  0  0  0  0  0  0  0999 V2000
   -3.2190    2.6657   -0.7710 C   0  0  0  0  0  0  0  0  0  0  0  0
   -2.6042    1.9818    0.4114 C   0  0  0  0  0  0  0  0  0  0  0  0
   -1.2169    2.4964    0.5885 C   0  0  0  0  0  0  0  0  0  0  0  0
   -0.1979    1.5664    0.3078 O   0  0  0  0  0  0  0  0  0  0  0  0
   -0.4372    0.1865    0.2352 C   0  0  0  0  0  0  0  0  0  0  0  0
   -1.6964   -0.3246    0.2468 C   0  0  0  0  0  0  0  0  0  0  0  0
   -2.7018    0.5380    0.3303 N   0  0  0  0  0  0  0  0  0  0  0  0
   -3.9653    0.0451    0.3432 C   0  0  0  0  0  0  0  0  0  0  0  0
   -4.1984   -1.3003    0.2723 C   0  0  0  0  0  0  0  0  0  0  0  0
   -5.5745   -1.8017    0.2884 C   0  0  0  0  0  0  0  0  0  0  0  0
   -5.8454   -3.1581    0.2182 O   0  0  0  0  0  0  0  0  0  0  0  0
   -6.6032   -1.1187    0.3622 O   0  0  0  0  0  0  0  0  0  0  0  0
   -3.1662   -2.2112    0.1851 C   0  0  0  0  0  0  0  0  0  0  0  0
   -3.3426   -3.4444    0.1190 O   0  0  0  0  0  0  0  0  0  0  0  0
   -1.8832   -1.6904    0.1733 C   0  0  0  0  0  0  0  0  0  0  0  0
   -0.7610   -2.5166    0.0880 C   0  0  0  0  0  0  0  0  0  0  0  0
    0.5134   -1.9638    0.0783 C   0  0  0  0  0  0  0  0  0  0  0  0
    1.5450   -2.8668   -0.0084 F   0  0  0  0  0  0  0  0  0  0  0  0
    0.6795   -0.5992    0.1525 C   0  0  0  0  0  0  0  0  0  0  0  0
    2.0421   -0.1765    0.1323 N   0  0  0  0  0  0  0  0  0  0  0  0
    2.6899   -0.0645    1.4205 C   0  0  0  0  0  0  0  0  0  0  0  0
    4.1176    0.4106    1.3084 C   0  0  0  0  0  0  0  0  0  0  0  0
    4.6446   -0.1096    0.0670 N   0  0  0  0  0  0  0  0  0  0  0  0
    6.0785   -0.1677    0.0455 C   0  0  0  0  0  0  0  0  0  0  0  0
    4.0427    0.5931   -1.0238 C   0  0  0  0  0  0  0  0  0  0  0  0
    2.6253    0.0930   -1.1673 C   0  0  0  0  0  0  0  0  0  0  0  0
   -2.4293    3.1230   -1.4336 H   0  0  0  0  0  0  0  0  0  0  0  0
   -3.8409    1.9888   -1.3931 H   0  0  0  0  0  0  0  0  0  0  0  0
   -3.8782    3.4922   -0.4317 H   0  0  0  0  0  0  0  0  0  0  0  0
   -3.1964    2.2528    1.3323 H   0  0  0  0  0  0  0  0  0  0  0  0
   -0.9909    3.3934   -0.0381 H   0  0  0  0  0  0  0  0  0  0  0  0
   -1.0412    2.8428    1.6402 H   0  0  0  0  0  0  0  0  0  0  0  0
   -4.8404    0.6995    0.4102 H   0  0  0  0  0  0  0  0  0  0  0  0
   -6.6598   -3.5940    0.6030 H   0  0  0  0  0  0  0  0  0  0  0  0
   -0.9003   -3.5851    0.0302 H   0  0  0  0  0  0  0  0  0  0  0  0
    2.1362    0.6526    2.0576 H   0  0  0  0  0  0  0  0  0  0  0  0
    2.6632   -1.0649    1.8962 H   0  0  0  0  0  0  0  0  0  0  0  0
    4.6766   -0.0340    2.1570 H   0  0  0  0  0  0  0  0  0  0  0  0
    4.1284    1.5052    1.3634 H   0  0  0  0  0  0  0  0  0  0  0  0
    6.3729   -0.9541    0.7786 H   0  0  0  0  0  0  0  0  0  0  0  0
    6.5472    0.7884    0.3198 H   0  0  0  0  0  0  0  0  0  0  0  0
    6.3811   -0.5474   -0.9496 H   0  0  0  0  0  0  0  0  0  0  0  0
    4.0146    1.7008   -0.9073 H   0  0  0  0  0  0  0  0  0  0  0  0
    4.6081    0.3826   -1.9566 H   0  0  0  0  0  0  0  0  0  0  0  0
    1.9918    0.7817   -1.7601 H   0  0  0  0  0  0  0  0  0  0  0  0
    2.6917   -0.8869   -1.6992 H   0  0  0  0  0  0  0  0  0  0  0  0
  1  2  1  0
  2  3  1  0
  3  4  1  0
  4  5  1  0
  5  6  2  0
  6  7  1  0
  7  8  1  0
  8  9  2  0
  9 10  1  0
 10 11  1  0
 10 12  2  0
  9 13  1  0
 13 14  2  0
 13 15  1  0
 15 16  2  0
 16 17  1  0
 17 18  1  0
 17 19  2  0
 19 20  1  0
 20 21  1  0
 21 22  1  0
 22 23  1  0
 23 24  1  0
 23 25  1  0
 25 26  1  0
  7  2  1  0
 26 20  1  0
 19  5  1  0
 15  6  1  0
  1 27  1  0
  1 28  1  0
  1 29  1  0
  2 30  1  0
  3 31  1  0
  3 32  1  0
  8 33  1  0
 11 34  1  0
 16 35  1  0
 21 36  1  0
 21 37  1  0
 22 38  1  0
 22 39  1  0
 24 40  1  0
 24 41  1  0
 24 42  1  0
 25 43  1  0
 25 44  1  0
 26 45  1  0
 26 46  1  0
M  END
$$$$
