@<TRIPOS>MOLECULE
*****
 46 49 0 0 0
SMALL
GASTEIGER

@<TRIPOS>ATOM
      1 C          -3.2190    2.6657   -0.7710 C.3     1  UNL1       -0.0410
      2 C          -2.6042    1.9818    0.4114 C.3     1  UNL1        0.0658
      3 C          -1.2169    2.4964    0.5885 C.3     1  UNL1        0.1101
      4 O          -0.1979    1.5664    0.3078 O.3     1  UNL1       -0.4859
      5 C          -0.4372    0.1865    0.2352 C.ar    1  UNL1        0.1684
      6 C          -1.6964   -0.3246    0.2468 C.ar    1  UNL1        0.0974
      7 N          -2.7018    0.5380    0.3303 N.ar    1  UNL1       -0.3367
      8 C          -3.9653    0.0451    0.3432 C.ar    1  UNL1        0.0233
      9 C          -4.1984   -1.3003    0.2723 C.ar    1  UNL1        0.1220
     10 C          -5.5745   -1.8017    0.2884 C.2     1  UNL1        0.3420
     11 O          -5.8454   -3.1581    0.2182 O.3     1  UNL1       -0.4770
     12 O          -6.6032   -1.1187    0.3622 O.2     1  UNL1       -0.2449
     13 C          -3.1662   -2.2112    0.1851 C.ar    1  UNL1        0.2036
     14 O          -3.3426   -3.4444    0.1190 O.2     1  UNL1       -0.2863
     15 C          -1.8832   -1.6904    0.1733 C.ar    1  UNL1        0.0524
     16 C          -0.7610   -2.5166    0.0880 C.ar    1  UNL1       -0.0116
     17 C           0.5134   -1.9638    0.0783 C.ar    1  UNL1        0.1487
     18 F           1.5450   -2.8668   -0.0084 F       1  UNL1       -0.2034
     19 C           0.6795   -0.5992    0.1525 C.ar    1  UNL1        0.1098
     20 N           2.0421   -0.1765    0.1323 N.pl3   1  UNL1       -0.3224
     21 C           2.6899   -0.0645    1.4205 C.3     1  UNL1        0.0252
     22 C           4.1176    0.4106    1.3084 C.3     1  UNL1        0.0144
     23 N           4.6446   -0.1096    0.0670 N.3     1  UNL1       -0.3024
     24 C           6.0785   -0.1677    0.0455 C.3     1  UNL1       -0.0126
     25 C           4.0427    0.5931   -1.0238 C.3     1  UNL1        0.0144
     26 C           2.6253    0.0930   -1.1673 C.3     1  UNL1        0.0252
     27 H          -2.4293    3.1230   -1.4336 H       1  UNL1        0.0251
     28 H          -3.8409    1.9888   -1.3931 H       1  UNL1        0.0251
     29 H          -3.8782    3.4922   -0.4317 H       1  UNL1        0.0251
     30 H          -3.1964    2.2528    1.3323 H       1  UNL1        0.0559
     31 H          -0.9909    3.3934   -0.0381 H       1  UNL1        0.0717
     32 H          -1.0412    2.8428    1.6402 H       1  UNL1        0.0717
     33 H          -4.8404    0.6995    0.4102 H       1  UNL1        0.0819
     34 H          -6.6598   -3.5940    0.6030 H       1  UNL1        0.2954
     35 H          -0.9003   -3.5851    0.0302 H       1  UNL1        0.0654
     36 H           2.1362    0.6526    2.0576 H       1  UNL1        0.0476
     37 H           2.6632   -1.0649    1.8962 H       1  UNL1        0.0476
     38 H           4.6766   -0.0340    2.1570 H       1  UNL1        0.0442
     39 H           4.1284    1.5052    1.3634 H       1  UNL1        0.0442
     40 H           6.3729   -0.9541    0.7786 H       1  UNL1        0.0391
     41 H           6.5472    0.7884    0.3198 H       1  UNL1        0.0391
     42 H           6.3811   -0.5474   -0.9496 H       1  UNL1        0.0391
     43 H           4.0146    1.7008   -0.9073 H       1  UNL1        0.0442
     44 H           4.6081    0.3826   -1.9566 H       1  UNL1        0.0442
     45 H           1.9918    0.7817   -1.7601 H       1  UNL1        0.0476
     46 H           2.6917   -0.8869   -1.6992 H       1  UNL1        0.0476
@<TRIPOS>BOND
     1     1     2    1
     2     2     3    1
     3     3     4    1
     4     4     5    1
     5     5     6   ar
     6     6     7   ar
     7     7     8   ar
     8     8     9   ar
     9     9    10    1
    10    10    11    1
    11    10    12    2
    12     9    13   ar
    13    13    14    2
    14    13    15   ar
    15    15    16   ar
    16    16    17   ar
    17    17    18    1
    18    17    19   ar
    19    19    20    1
    20    20    21    1
    21    21    22    1
    22    22    23    1
    23    23    24    1
    24    23    25    1
    25    25    26    1
    26     7     2    1
    27    26    20    1
    28    19     5   ar
    29    15     6   ar
    30     1    27    1
    31     1    28    1
    32     1    29    1
    33     2    30    1
    34     3    31    1
    35     3    32    1
    36     8    33    1
    37    11    34    1
    38    16    35    1
    39    21    36    1
    40    21    37    1
    41    22    38    1
    42    22    39    1
    43    24    40    1
    44    24    41    1
    45    24    42    1
    46    25    43    1
    47    25    44    1
    48    26    45    1
    49    26    46    1
