@<TRIPOS>MOLECULE
*****
 63 66 0 0 0
SMALL
GASTEIGER

@<TRIPOS>ATOM
      1 N          -6.9867    4.0102    0.6148 N.2     1  UNL1       -0.0994
      2 C          -5.7901    3.5892    0.4000 C.2     1  UNL1        0.3081
      3 N          -4.6522    4.4341    0.5068 N.pl3   1  UNL1       -0.2466
      4 C          -5.5476    2.1985    0.0311 C.ar    1  UNL1        0.0651
      5 C          -6.4882    1.5022   -0.6742 C.ar    1  UNL1       -0.0469
      6 C          -6.2361    0.1916   -1.0099 C.ar    1  UNL1       -0.0606
      7 C          -5.0433   -0.4175   -0.6383 C.ar    1  UNL1       -0.0546
      8 C          -4.0824    0.2823    0.0779 C.ar    1  UNL1        0.0024
      9 C          -2.7893   -0.3537    0.4895 C.3     1  UNL1        0.2010
     10 O          -3.0836   -1.6278    1.0062 O.3     1  UNL1       -0.4731
     11 C          -2.3500   -2.7692    0.7344 C.ar    1  UNL1        0.1434
     12 C          -2.5721   -3.9043    1.4824 C.ar    1  UNL1       -0.0180
     13 C          -1.8575   -5.0498    1.2332 C.ar    1  UNL1       -0.0582
     14 C          -0.9325   -5.0259    0.2331 C.ar    1  UNL1       -0.0598
     15 C          -0.7118   -3.8921   -0.5128 C.ar    1  UNL1       -0.0367
     16 C          -1.4048   -2.7426   -0.2889 C.ar    1  UNL1        0.0783
     17 N          -1.1631   -1.5792   -1.0710 N.am    1  UNL1       -0.2649
     18 C          -0.1847   -1.5372   -2.1338 C.3     1  UNL1        0.0200
     19 C           1.1938   -1.1175   -1.6530 C.3     1  UNL1       -0.0367
     20 C           1.1616    0.2585   -1.0328 C.3     1  UNL1       -0.0505
     21 C           2.5426    0.6437   -0.5851 C.3     1  UNL1       -0.0402
     22 C           3.1447   -0.2698    0.4330 C.3     1  UNL1       -0.0011
     23 N           4.4732    0.1572    0.8322 N.3     1  UNL1       -0.3023
     24 C           4.5147    1.3655    1.5703 C.3     1  UNL1       -0.0011
     25 C           5.9402    1.5815    2.0384 C.3     1  UNL1       -0.0402
     26 C           6.7639    1.8911    0.8143 C.3     1  UNL1       -0.0507
     27 C           6.4778    0.9928   -0.3427 C.3     1  UNL1       -0.0402
     28 C           5.4892   -0.0743   -0.1105 C.3     1  UNL1       -0.0011
     29 C          -1.9580   -0.4250   -0.7389 C.2     1  UNL1        0.2653
     30 O          -1.9524    0.5660   -1.5166 O.2     1  UNL1       -0.2708
     31 C          -4.3678    1.5891    0.3959 C.ar    1  UNL1       -0.0397
     32 H          -7.0989    5.0230    0.8781 H       1  UNL1        0.3633
     33 H          -4.0443    4.5748   -0.3359 H       1  UNL1        0.2884
     34 H          -4.4712    4.8811    1.4276 H       1  UNL1        0.2884
     35 H          -7.4265    1.9697   -0.9707 H       1  UNL1        0.0626
     36 H          -6.9556   -0.3832   -1.5642 H       1  UNL1        0.0618
     37 H          -4.8762   -1.4473   -0.9160 H       1  UNL1        0.0622
     38 H          -2.3333    0.2630    1.2879 H       1  UNL1        0.0884
     39 H          -3.3041   -3.9162    2.2706 H       1  UNL1        0.0655
     40 H          -2.0158   -5.9682    1.8153 H       1  UNL1        0.0619
     41 H          -0.3479   -5.8967    0.0006 H       1  UNL1        0.0618
     42 H           0.0312   -3.9054   -1.3000 H       1  UNL1        0.0637
     43 H          -0.5108   -0.7534   -2.8799 H       1  UNL1        0.0469
     44 H          -0.1168   -2.4700   -2.7248 H       1  UNL1        0.0469
     45 H           1.8756   -1.0719   -2.5225 H       1  UNL1        0.0280
     46 H           1.5579   -1.8258   -0.8575 H       1  UNL1        0.0280
     47 H           0.7961    1.0026   -1.7817 H       1  UNL1        0.0266
     48 H           0.4311    0.2733   -0.1933 H       1  UNL1        0.0266
     49 H           2.5363    1.7028   -0.1907 H       1  UNL1        0.0278
     50 H           3.2592    0.6853   -1.4454 H       1  UNL1        0.0278
     51 H           2.4854   -0.3191    1.3164 H       1  UNL1        0.0426
     52 H           3.2636   -1.3091    0.0485 H       1  UNL1        0.0426
     53 H           3.8889    1.2395    2.4951 H       1  UNL1        0.0426
     54 H           4.1818    2.2634    1.0370 H       1  UNL1        0.0426
     55 H           5.9267    2.4708    2.6995 H       1  UNL1        0.0278
     56 H           6.3210    0.6967    2.5702 H       1  UNL1        0.0278
     57 H           7.8329    1.9058    1.1234 H       1  UNL1        0.0266
     58 H           6.5227    2.9409    0.5155 H       1  UNL1        0.0266
     59 H           7.4593    0.5017   -0.6199 H       1  UNL1        0.0278
     60 H           6.2181    1.5841   -1.2707 H       1  UNL1        0.0278
     61 H           5.0054   -0.3199   -1.1023 H       1  UNL1        0.0426
     62 H           6.0102   -1.0379    0.1657 H       1  UNL1        0.0426
     63 H          -3.6496    2.1780    0.9534 H       1  UNL1        0.0630
@<TRIPOS>BOND
     1     1     2    2
     2     2     3    1
     3     2     4    1
     4     4     5   ar
     5     5     6   ar
     6     6     7   ar
     7     7     8   ar
     8     8     9    1
     9     9    10    1
    10    10    11    1
    11    11    12   ar
    12    12    13   ar
    13    13    14   ar
    14    14    15   ar
    15    15    16   ar
    16    16    17    1
    17    17    18    1
    18    18    19    1
    19    19    20    1
    20    20    21    1
    21    21    22    1
    22    22    23    1
    23    23    24    1
    24    24    25    1
    25    25    26    1
    26    26    27    1
    27    27    28    1
    28    17    29   am
    29    29    30    2
    30     8    31   ar
    31    31     4   ar
    32    29     9    1
    33    16    11   ar
    34    28    23    1
    35     1    32    1
    36     3    33    1
    37     3    34    1
    38     5    35    1
    39     6    36    1
    40     7    37    1
    41     9    38    1
    42    12    39    1
    43    13    40    1
    44    14    41    1
    45    15    42    1
    46    18    43    1
    47    18    44    1
    48    19    45    1
    49    19    46    1
    50    20    47    1
    51    20    48    1
    52    21    49    1
    53    21    50    1
    54    22    51    1
    55    22    52    1
    56    24    53    1
    57    24    54    1
    58    25    55    1
    59    25    56    1
    60    26    57    1
    61    26    58    1
    62    27    59    1
    63    27    60    1
    64    28    61    1
    65    28    62    1
    66    31    63    1
