@<TRIPOS>MOLECULE
*****
 38 41 0 0 0
SMALL
GASTEIGER

@<TRIPOS>ATOM
      1 N          -6.1161    3.3619    1.1089 N.1     1  UNL1       -0.1908
      2 C          -5.1297    2.9645    0.6100 C.1     1  UNL1        0.1005
      3 C          -3.8684    2.4842   -0.0262 C.ar    1  UNL1        0.0713
      4 C          -3.3175    3.2917   -0.9777 C.ar    1  UNL1       -0.0044
      5 S          -1.8522    2.3624   -1.5680 S.2     1  UNL1       -0.0799
      6 C          -2.1593    0.9726   -0.4415 C.ar    1  UNL1        0.0837
      7 N          -1.3545   -0.1854   -0.4179 N.am    1  UNL1       -0.2791
      8 C          -0.0877   -0.1418    0.2233 C.2     1  UNL1        0.2219
      9 O           0.2663    0.9427    0.7205 O.2     1  UNL1       -0.2751
     10 C           0.7885   -1.3291    0.3032 C.3     1  UNL1        0.0500
     11 C           1.9157   -1.3170   -0.6297 C.ar    1  UNL1       -0.0295
     12 C           1.7883   -1.9835   -1.8685 C.ar    1  UNL1       -0.0574
     13 C           2.7780   -1.9679   -2.8028 C.ar    1  UNL1       -0.0594
     14 C           3.9782   -1.2814   -2.5719 C.ar    1  UNL1       -0.0357
     15 C           4.0998   -0.6328   -1.3623 C.ar    1  UNL1        0.0712
     16 N           5.2775    0.0095   -1.1688 N.ar    1  UNL1       -0.2550
     17 C           5.4948    0.6533   -0.0251 C.ar    1  UNL1        0.0283
     18 C           4.5219    0.6599    0.9536 C.ar    1  UNL1       -0.0430
     19 C           3.3071    0.0123    0.7835 C.ar    1  UNL1       -0.0509
     20 C           3.0866   -0.6513   -0.4067 C.ar    1  UNL1        0.0040
     21 C          -3.2783    1.3122    0.2428 C.ar    1  UNL1        0.0648
     22 C          -3.8330    0.3738    1.2752 C.ar    1  UNL1        0.1650
     23 N          -4.9391    0.5707    2.0317 N.ar    1  UNL1       -0.1295
     24 N          -5.1657   -0.4187    2.8382 N.ar    1  UNL1       -0.1377
     25 C          -4.1900   -1.3156    2.6298 C.ar    1  UNL1        0.1175
     26 N          -3.3643   -0.8147    1.6553 N.ar    1  UNL1       -0.3276
     27 H          -3.5935    4.2716   -1.3706 H       1  UNL1        0.0707
     28 H          -1.6614   -1.0578   -0.8682 H       1  UNL1        0.1553
     29 H           0.1330   -2.2202    0.0954 H       1  UNL1        0.0407
     30 H           1.0823   -1.4137    1.3782 H       1  UNL1        0.0407
     31 H           0.8608   -2.5025   -2.0297 H       1  UNL1        0.0621
     32 H           2.6352   -2.5031   -3.7505 H       1  UNL1        0.0618
     33 H           4.7649   -1.2688   -3.3303 H       1  UNL1        0.0639
     34 H           6.4295    1.1698    0.1339 H       1  UNL1        0.0830
     35 H           4.6795    1.1800    1.9092 H       1  UNL1        0.0633
     36 H           2.5527   -0.0078    1.5387 H       1  UNL1        0.0625
     37 H          -4.0200   -2.2859    3.1099 H       1  UNL1        0.1046
     38 H          -2.5099   -1.2942    1.2842 H       1  UNL1        0.1683
@<TRIPOS>BOND
     1     1     2    3
     2     2     3    1
     3     3     4   ar
     4     4     5   ar
     5     5     6   ar
     6     6     7    1
     7     7     8   am
     8     8     9    2
     9     8    10    1
    10    10    11    1
    11    11    12   ar
    12    12    13   ar
    13    13    14   ar
    14    14    15   ar
    15    15    16   ar
    16    16    17   ar
    17    17    18   ar
    18    18    19   ar
    19    19    20   ar
    20     6    21   ar
    21    21    22    1
    22    22    23   ar
    23    23    24   ar
    24    24    25   ar
    25    25    26   ar
    26    21     3   ar
    27    26    22   ar
    28    20    11   ar
    29    20    15   ar
    30     4    27    1
    31     7    28    1
    32    10    29    1
    33    10    30    1
    34    12    31    1
    35    13    32    1
    36    14    33    1
    37    17    34    1
    38    18    35    1
    39    19    36    1
    40    25    37    1
    41    26    38    1
