
     RDKit          3D

 53 55  0  0  0  0  0  0  0  0999 V2000
   -6.3234    0.2451    2.7302 C   0  0  0  0  0  0  0  0  0  0  0  0
   -5.5342   -0.1197    1.5339 C   0  0  0  0  0  0  0  0  0  0  0  0
   -5.1597    0.7617    0.6787 N   0  0  0  0  0  0  0  0  0  0  0  0
   -5.1858   -1.4679    1.3300 N   0  0  0  0  0  0  0  0  0  0  0  0
   -6.2242   -2.3301    0.7757 C   0  0  0  0  0  0  0  0  0  0  0  0
   -3.8810   -2.0107    1.6396 C   0  0  0  0  0  0  0  0  0  0  0  0
   -2.8299   -1.3174    0.8627 C   0  0  0  0  0  0  0  0  0  0  0  0
   -2.1695   -0.1907    1.3077 C   0  0  0  0  0  0  0  0  0  0  0  0
   -1.1903    0.4521    0.5794 C   0  0  0  0  0  0  0  0  0  0  0  0
   -0.8307   -0.0311   -0.6596 C   0  0  0  0  0  0  0  0  0  0  0  0
    0.1857    0.5811   -1.4911 C   0  0  0  0  0  0  0  0  0  0  0  0
    0.4421    0.0655   -2.6062 O   0  0  0  0  0  0  0  0  0  0  0  0
    0.9343    1.7381   -1.1492 N   0  0  0  0  0  0  0  0  0  0  0  0
    1.9222    2.2949   -2.0096 C   0  0  0  0  0  0  0  0  0  0  0  0
    1.5969    3.2637   -2.9558 C   0  0  0  0  0  0  0  0  0  0  0  0
    2.5949    3.7607   -3.7551 C   0  0  0  0  0  0  0  0  0  0  0  0
    3.9152    3.3239   -3.6447 C   0  0  0  0  0  0  0  0  0  0  0  0
    5.1826    3.9520   -4.6568 Cl  0  0  0  0  0  0  0  0  0  0  0  0
    4.1989    2.3559   -2.6882 C   0  0  0  0  0  0  0  0  0  0  0  0
    3.2141    1.8386   -1.8708 C   0  0  0  0  0  0  0  0  0  0  0  0
    3.5033    0.8255   -0.8675 C   0  0  0  0  0  0  0  0  0  0  0  0
    2.5882    0.3701   -0.1333 O   0  0  0  0  0  0  0  0  0  0  0  0
    4.7927    0.2741   -0.6284 N   0  0  0  0  0  0  0  0  0  0  0  0
    5.0394   -0.7104    0.3558 C   0  0  0  0  0  0  0  0  0  0  0  0
    4.9337   -2.0359    0.0008 C   0  0  0  0  0  0  0  0  0  0  0  0
    5.1678   -3.0497    0.9391 C   0  0  0  0  0  0  0  0  0  0  0  0
    5.5063   -2.6965    2.2258 C   0  0  0  0  0  0  0  0  0  0  0  0
    5.8185   -3.8853    3.4712 Cl  0  0  0  0  0  0  0  0  0  0  0  0
    5.6051   -1.3531    2.5535 C   0  0  0  0  0  0  0  0  0  0  0  0
    5.3706   -0.4027    1.6160 N   0  0  0  0  0  0  0  0  0  0  0  0
   -1.4833   -1.1558   -1.1145 C   0  0  0  0  0  0  0  0  0  0  0  0
   -2.4610   -1.7922   -0.3799 C   0  0  0  0  0  0  0  0  0  0  0  0
   -6.1079   -0.4997    3.5342 H   0  0  0  0  0  0  0  0  0  0  0  0
   -5.9666    1.2231    3.0876 H   0  0  0  0  0  0  0  0  0  0  0  0
   -7.3940    0.2370    2.4487 H   0  0  0  0  0  0  0  0  0  0  0  0
   -5.4204    1.7541    0.8361 H   0  0  0  0  0  0  0  0  0  0  0  0
   -6.7765   -2.7459    1.6454 H   0  0  0  0  0  0  0  0  0  0  0  0
   -5.7964   -3.1094    0.1196 H   0  0  0  0  0  0  0  0  0  0  0  0
   -6.9620   -1.7354    0.1910 H   0  0  0  0  0  0  0  0  0  0  0  0
   -3.8915   -3.0825    1.3655 H   0  0  0  0  0  0  0  0  0  0  0  0
   -3.7021   -1.9639    2.7326 H   0  0  0  0  0  0  0  0  0  0  0  0
   -2.4492    0.1895    2.2774 H   0  0  0  0  0  0  0  0  0  0  0  0
   -0.6801    1.3348    0.9398 H   0  0  0  0  0  0  0  0  0  0  0  0
    0.7416    2.1860   -0.2294 H   0  0  0  0  0  0  0  0  0  0  0  0
    0.5616    3.5884   -3.0234 H   0  0  0  0  0  0  0  0  0  0  0  0
    2.3582    4.5127   -4.4939 H   0  0  0  0  0  0  0  0  0  0  0  0
    5.2135    2.0407   -2.6250 H   0  0  0  0  0  0  0  0  0  0  0  0
    5.5964    0.6305   -1.2268 H   0  0  0  0  0  0  0  0  0  0  0  0
    4.6712   -2.3676   -0.9948 H   0  0  0  0  0  0  0  0  0  0  0  0
    5.0971   -4.0987    0.7084 H   0  0  0  0  0  0  0  0  0  0  0  0
    5.8722   -1.0934    3.5693 H   0  0  0  0  0  0  0  0  0  0  0  0
   -1.2326   -1.5795   -2.0951 H   0  0  0  0  0  0  0  0  0  0  0  0
   -2.9721   -2.6887   -0.7568 H   0  0  0  0  0  0  0  0  0  0  0  0
  1  2  1  0
  2  3  2  3
  2  4  1  0
  4  5  1  0
  4  6  1  0
  6  7  1  0
  7  8  2  0
  8  9  1  0
  9 10  2  0
 10 11  1  0
 11 12  2  0
 11 13  1  0
 13 14  1  0
 14 15  2  0
 15 16  1  0
 16 17  2  0
 17 18  1  0
 17 19  1  0
 19 20  2  0
 20 21  1  0
 21 22  2  0
 21 23  1  0
 23 24  1  0
 24 25  2  0
 25 26  1  0
 26 27  2  0
 27 28  1  0
 27 29  1  0
 29 30  2  0
 10 31  1  0
 31 32  2  0
 32  7  1  0
 20 14  1  0
 30 24  1  0
  1 33  1  0
  1 34  1  0
  1 35  1  0
  3 36  1  0
  5 37  1  0
  5 38  1  0
  5 39  1  0
  6 40  1  0
  6 41  1  0
  8 42  1  0
  9 43  1  0
 13 44  1  0
 15 45  1  0
 16 46  1  0
 19 47  1  0
 23 48  1  0
 25 49  1  0
 26 50  1  0
 29 51  1  0
 31 52  1  0
 32 53  1  0
M  END
$$$$
