@<TRIPOS>MOLECULE
*****
 53 55 0 0 0
SMALL
GASTEIGER

@<TRIPOS>ATOM
      1 C          -6.3234    0.2451    2.7302 C.3     1  UNL1        0.0386
      2 C          -5.5342   -0.1197    1.5339 C.2     1  UNL1        0.2771
      3 N          -5.1597    0.7617    0.6787 N.2     1  UNL1       -0.1041
      4 N          -5.1858   -1.4679    1.3300 N.pl3   1  UNL1       -0.2236
      5 C          -6.2242   -2.3301    0.7757 C.3     1  UNL1        0.0696
      6 C          -3.8810   -2.0107    1.6396 C.3     1  UNL1        0.1053
      7 C          -2.8299   -1.3174    0.8627 C.ar    1  UNL1       -0.0081
      8 C          -2.1695   -0.1907    1.3077 C.ar    1  UNL1       -0.0543
      9 C          -1.1903    0.4521    0.5794 C.ar    1  UNL1       -0.0492
     10 C          -0.8307   -0.0311   -0.6596 C.ar    1  UNL1        0.0370
     11 C           0.1857    0.5811   -1.4911 C.2     1  UNL1        0.2483
     12 O           0.4421    0.0655   -2.6062 O.2     1  UNL1       -0.2699
     13 N           0.9343    1.7381   -1.1492 N.am    1  UNL1       -0.2808
     14 C           1.9222    2.2949   -2.0096 C.ar    1  UNL1        0.0459
     15 C           1.5969    3.2637   -2.9558 C.ar    1  UNL1       -0.0384
     16 C           2.5949    3.7607   -3.7551 C.ar    1  UNL1       -0.0416
     17 C           3.9152    3.3239   -3.6447 C.ar    1  UNL1        0.0418
     18 CL          5.1826    3.9520   -4.6568 Cl      1  UNL1       -0.0835
     19 C           4.1989    2.3559   -2.6882 C.ar    1  UNL1       -0.0295
     20 C           3.2141    1.8386   -1.8708 C.ar    1  UNL1        0.0596
     21 C           3.5033    0.8255   -0.8675 C.2     1  UNL1        0.2511
     22 O           2.5882    0.3701   -0.1333 O.2     1  UNL1       -0.2697
     23 N           4.7927    0.2741   -0.6284 N.am    1  UNL1       -0.2663
     24 C           5.0394   -0.7104    0.3558 C.ar    1  UNL1        0.1252
     25 C           4.9337   -2.0359    0.0008 C.ar    1  UNL1       -0.0201
     26 C           5.1678   -3.0497    0.9391 C.ar    1  UNL1       -0.0387
     27 C           5.5063   -2.6965    2.2258 C.ar    1  UNL1        0.0592
     28 CL          5.8185   -3.8853    3.4712 Cl      1  UNL1       -0.0820
     29 C           5.6051   -1.3531    2.5535 C.ar    1  UNL1        0.0480
     30 N           5.3706   -0.4027    1.6160 N.ar    1  UNL1       -0.2387
     31 C          -1.4833   -1.1558   -1.1145 C.ar    1  UNL1       -0.0492
     32 C          -2.4610   -1.7922   -0.3799 C.ar    1  UNL1       -0.0543
     33 H          -6.1079   -0.4997    3.5342 H       1  UNL1        0.0351
     34 H          -5.9666    1.2231    3.0876 H       1  UNL1        0.0351
     35 H          -7.3940    0.2370    2.4487 H       1  UNL1        0.0351
     36 H          -5.4204    1.7541    0.8361 H       1  UNL1        0.3629
     37 H          -6.7765   -2.7459    1.6454 H       1  UNL1        0.0689
     38 H          -5.7964   -3.1094    0.1196 H       1  UNL1        0.0689
     39 H          -6.9620   -1.7354    0.1910 H       1  UNL1        0.0689
     40 H          -3.8915   -3.0825    1.3655 H       1  UNL1        0.0778
     41 H          -3.7021   -1.9639    2.7326 H       1  UNL1        0.0778
     42 H          -2.4492    0.1895    2.2774 H       1  UNL1        0.0622
     43 H          -0.6801    1.3348    0.9398 H       1  UNL1        0.0625
     44 H           0.7416    2.1860   -0.2294 H       1  UNL1        0.1552
     45 H           0.5616    3.5884   -3.0234 H       1  UNL1        0.0637
     46 H           2.3582    4.5127   -4.4939 H       1  UNL1        0.0633
     47 H           5.2135    2.0407   -2.6250 H       1  UNL1        0.0640
     48 H           5.5964    0.6305   -1.2268 H       1  UNL1        0.1566
     49 H           4.6712   -2.3676   -0.9948 H       1  UNL1        0.0652
     50 H           5.0971   -4.0987    0.7084 H       1  UNL1        0.0634
     51 H           5.8722   -1.0934    3.5693 H       1  UNL1        0.0845
     52 H          -1.2326   -1.5795   -2.0951 H       1  UNL1        0.0625
     53 H          -2.9721   -2.6887   -0.7568 H       1  UNL1        0.0622
@<TRIPOS>BOND
     1     1     2    1
     2     2     3    2
     3     2     4    1
     4     4     5    1
     5     4     6    1
     6     6     7    1
     7     7     8   ar
     8     8     9   ar
     9     9    10   ar
    10    10    11    1
    11    11    12    2
    12    11    13   am
    13    13    14    1
    14    14    15   ar
    15    15    16   ar
    16    16    17   ar
    17    17    18    1
    18    17    19   ar
    19    19    20   ar
    20    20    21    1
    21    21    22    2
    22    21    23   am
    23    23    24    1
    24    24    25   ar
    25    25    26   ar
    26    26    27   ar
    27    27    28    1
    28    27    29   ar
    29    29    30   ar
    30    10    31   ar
    31    31    32   ar
    32    32     7   ar
    33    20    14   ar
    34    30    24   ar
    35     1    33    1
    36     1    34    1
    37     1    35    1
    38     3    36    1
    39     5    37    1
    40     5    38    1
    41     5    39    1
    42     6    40    1
    43     6    41    1
    44     8    42    1
    45     9    43    1
    46    13    44    1
    47    15    45    1
    48    16    46    1
    49    19    47    1
    50    23    48    1
    51    25    49    1
    52    26    50    1
    53    29    51    1
    54    31    52    1
    55    32    53    1
