
     RDKit          3D

 40 42  0  0  0  0  0  0  0  0999 V2000
    5.3619   -0.0094    1.2028 C   0  0  0  0  0  0  0  0  0  0  0  0
    4.7010    0.6495    0.0918 N   0  0  0  0  0  0  0  0  0  0  0  0
    5.1846    1.9464   -0.3814 C   0  0  0  0  0  0  0  0  0  0  0  0
    3.5778    0.0421   -0.5474 C   0  0  0  0  0  0  0  0  0  0  0  0
    3.0284    0.6357   -1.5044 O   0  0  0  0  0  0  0  0  0  0  0  0
    3.0892   -1.2101   -0.1107 N   0  0  0  0  0  0  0  0  0  0  0  0
    3.5830   -1.9518    0.8834 N   0  0  0  0  0  0  0  0  0  0  0  0
    2.9027   -3.0608    1.0287 N   0  0  0  0  0  0  0  0  0  0  0  0
    1.9518   -3.0337    0.1110 N   0  0  0  0  0  0  0  0  0  0  0  0
    2.0604   -1.8769   -0.6083 C   0  0  0  0  0  0  0  0  0  0  0  0
    1.1227   -1.5454   -1.7053 C   0  0  0  0  0  0  0  0  0  0  0  0
   -0.1427   -0.9870   -1.1840 C   0  0  0  0  0  0  0  0  0  0  0  0
   -1.1396   -1.8619   -0.8124 C   0  0  0  0  0  0  0  0  0  0  0  0
   -2.3536   -1.3938   -0.3188 C   0  0  0  0  0  0  0  0  0  0  0  0
   -2.5944   -0.0453   -0.1872 C   0  0  0  0  0  0  0  0  0  0  0  0
   -3.8497    0.4913    0.3250 C   0  0  0  0  0  0  0  0  0  0  0  0
   -4.3712    1.7034   -0.0789 C   0  0  0  0  0  0  0  0  0  0  0  0
   -5.5623    2.2137    0.4071 C   0  0  0  0  0  0  0  0  0  0  0  0
   -6.2452    1.4586    1.3391 C   0  0  0  0  0  0  0  0  0  0  0  0
   -5.7738    0.2546    1.7717 C   0  0  0  0  0  0  0  0  0  0  0  0
   -4.5813   -0.2212    1.2634 C   0  0  0  0  0  0  0  0  0  0  0  0
   -1.5832    0.8171   -0.5649 C   0  0  0  0  0  0  0  0  0  0  0  0
   -0.3602    0.3610   -1.0619 C   0  0  0  0  0  0  0  0  0  0  0  0
    5.7523   -0.9843    0.8419 H   0  0  0  0  0  0  0  0  0  0  0  0
    6.1906    0.6499    1.5585 H   0  0  0  0  0  0  0  0  0  0  0  0
    4.6560   -0.1839    2.0489 H   0  0  0  0  0  0  0  0  0  0  0  0
    6.2045    2.1193    0.0481 H   0  0  0  0  0  0  0  0  0  0  0  0
    5.1892    1.9694   -1.4778 H   0  0  0  0  0  0  0  0  0  0  0  0
    4.5020    2.7182    0.0412 H   0  0  0  0  0  0  0  0  0  0  0  0
    0.8619   -2.4968   -2.2336 H   0  0  0  0  0  0  0  0  0  0  0  0
    1.5759   -0.8885   -2.4794 H   0  0  0  0  0  0  0  0  0  0  0  0
   -1.0047   -2.9371   -0.8947 H   0  0  0  0  0  0  0  0  0  0  0  0
   -3.1062   -2.1109   -0.0398 H   0  0  0  0  0  0  0  0  0  0  0  0
   -3.8003    2.2599   -0.8116 H   0  0  0  0  0  0  0  0  0  0  0  0
   -5.9283    3.1662    0.0602 H   0  0  0  0  0  0  0  0  0  0  0  0
   -7.1789    1.8438    1.7294 H   0  0  0  0  0  0  0  0  0  0  0  0
   -6.3328   -0.3150    2.5045 H   0  0  0  0  0  0  0  0  0  0  0  0
   -4.1701   -1.1751    1.5808 H   0  0  0  0  0  0  0  0  0  0  0  0
   -1.7843    1.8802   -0.4568 H   0  0  0  0  0  0  0  0  0  0  0  0
    0.3670    1.1086   -1.3328 H   0  0  0  0  0  0  0  0  0  0  0  0
  1  2  1  0
  2  3  1  0
  2  4  1  0
  4  5  2  0
  4  6  1  0
  6  7  1  0
  7  8  2  0
  8  9  1  0
  9 10  2  0
 10 11  1  0
 11 12  1  0
 12 13  2  0
 13 14  1  0
 14 15  2  0
 15 16  1  0
 16 17  2  0
 17 18  1  0
 18 19  2  0
 19 20  1  0
 20 21  2  0
 15 22  1  0
 22 23  2  0
 10  6  1  0
 23 12  1  0
 21 16  1  0
  1 24  1  0
  1 25  1  0
  1 26  1  0
  3 27  1  0
  3 28  1  0
  3 29  1  0
 11 30  1  0
 11 31  1  0
 13 32  1  0
 14 33  1  0
 17 34  1  0
 18 35  1  0
 19 36  1  0
 20 37  1  0
 21 38  1  0
 22 39  1  0
 23 40  1  0
M  END
$$$$
