@<TRIPOS>MOLECULE
*****
 40 42 0 0 0
SMALL
GASTEIGER

@<TRIPOS>ATOM
      1 C           5.3619   -0.0094    1.2028 C.3     1  UNL1        0.0046
      2 N           4.7010    0.6495    0.0918 N.am    1  UNL1       -0.2880
      3 C           5.1846    1.9464   -0.3814 C.3     1  UNL1        0.0046
      4 C           3.5778    0.0421   -0.5474 C.2     1  UNL1        0.3398
      5 O           3.0284    0.6357   -1.5044 O.2     1  UNL1       -0.2474
      6 N           3.0892   -1.2101   -0.1107 N.ar    1  UNL1       -0.1475
      7 N           3.5830   -1.9518    0.8834 N.ar    1  UNL1       -0.0352
      8 N           2.9027   -3.0608    1.0287 N.ar    1  UNL1       -0.0226
      9 N           1.9518   -3.0337    0.1110 N.ar    1  UNL1       -0.1125
     10 C           2.0604   -1.8769   -0.6083 C.ar    1  UNL1        0.1654
     11 C           1.1227   -1.5454   -1.7053 C.3     1  UNL1        0.0346
     12 C          -0.1427   -0.9870   -1.1840 C.ar    1  UNL1       -0.0400
     13 C          -1.1396   -1.8619   -0.8124 C.ar    1  UNL1       -0.0576
     14 C          -2.3536   -1.3938   -0.3188 C.ar    1  UNL1       -0.0538
     15 C          -2.5944   -0.0453   -0.1872 C.ar    1  UNL1       -0.0179
     16 C          -3.8497    0.4913    0.3250 C.ar    1  UNL1       -0.0179
     17 C          -4.3712    1.7034   -0.0789 C.ar    1  UNL1       -0.0540
     18 C          -5.5623    2.2137    0.4071 C.ar    1  UNL1       -0.0612
     19 C          -6.2452    1.4586    1.3391 C.ar    1  UNL1       -0.0617
     20 C          -5.7738    0.2546    1.7717 C.ar    1  UNL1       -0.0612
     21 C          -4.5813   -0.2212    1.2634 C.ar    1  UNL1       -0.0540
     22 C          -1.5832    0.8171   -0.5649 C.ar    1  UNL1       -0.0538
     23 C          -0.3602    0.3610   -1.0619 C.ar    1  UNL1       -0.0576
     24 H           5.7523   -0.9843    0.8419 H       1  UNL1        0.0429
     25 H           6.1906    0.6499    1.5585 H       1  UNL1        0.0429
     26 H           4.6560   -0.1839    2.0489 H       1  UNL1        0.0429
     27 H           6.2045    2.1193    0.0481 H       1  UNL1        0.0429
     28 H           5.1892    1.9694   -1.4778 H       1  UNL1        0.0429
     29 H           4.5020    2.7182    0.0412 H       1  UNL1        0.0429
     30 H           0.8619   -2.4968   -2.2336 H       1  UNL1        0.0393
     31 H           1.5759   -0.8885   -2.4794 H       1  UNL1        0.0393
     32 H          -1.0047   -2.9371   -0.8947 H       1  UNL1        0.0621
     33 H          -3.1062   -2.1109   -0.0398 H       1  UNL1        0.0624
     34 H          -3.8003    2.2599   -0.8116 H       1  UNL1        0.0624
     35 H          -5.9283    3.1662    0.0602 H       1  UNL1        0.0618
     36 H          -7.1789    1.8438    1.7294 H       1  UNL1        0.0618
     37 H          -6.3328   -0.3150    2.5045 H       1  UNL1        0.0618
     38 H          -4.1701   -1.1751    1.5808 H       1  UNL1        0.0624
     39 H          -1.7843    1.8802   -0.4568 H       1  UNL1        0.0624
     40 H           0.3670    1.1086   -1.3328 H       1  UNL1        0.0621
@<TRIPOS>BOND
     1     1     2    1
     2     2     3    1
     3     2     4   am
     4     4     5    2
     5     4     6   am
     6     6     7   ar
     7     7     8   ar
     8     8     9   ar
     9     9    10   ar
    10    10    11    1
    11    11    12    1
    12    12    13   ar
    13    13    14   ar
    14    14    15   ar
    15    15    16    1
    16    16    17   ar
    17    17    18   ar
    18    18    19   ar
    19    19    20   ar
    20    20    21   ar
    21    15    22   ar
    22    22    23   ar
    23    10     6   ar
    24    23    12   ar
    25    21    16   ar
    26     1    24    1
    27     1    25    1
    28     1    26    1
    29     3    27    1
    30     3    28    1
    31     3    29    1
    32    11    30    1
    33    11    31    1
    34    13    32    1
    35    14    33    1
    36    17    34    1
    37    18    35    1
    38    19    36    1
    39    20    37    1
    40    21    38    1
    41    22    39    1
    42    23    40    1
