
     RDKit          3D

 33 34  0  0  0  0  0  0  0  0999 V2000
    0.6910    0.0000    0.0000 Cl  0  0  0  0  0  0  0  0  0  0  0  0
   -1.7628   -2.3492   -1.1364 N   0  0  0  0  0  0  0  0  0  0  0  0
   -0.8559   -1.6095   -0.2332 C   0  0  1  0  0  0  0  0  0  0  0  0
   -1.3653   -0.2849    0.1030 C   0  0  0  0  0  0  0  0  0  0  0  0
   -1.2801    0.3404    1.3151 C   0  0  0  0  0  0  0  0  0  0  0  0
   -1.8024    1.6188    1.4743 C   0  0  0  0  0  0  0  0  0  0  0  0
   -2.4147    2.3010    0.4499 C   0  0  0  0  0  0  0  0  0  0  0  0
   -2.5030    1.6741   -0.7735 C   0  0  0  0  0  0  0  0  0  0  0  0
   -1.9926    0.4250   -0.9292 C   0  0  0  0  0  0  0  0  0  0  0  0
   -0.0015   -2.4214    0.6368 C   0  0  0  0  0  0  0  0  0  0  0  0
    0.6276   -1.7140   -0.4794 C   0  0  2  0  0  0  0  0  0  0  0  0
    1.5119   -0.5461   -0.2795 C   0  0  0  0  0  0  0  0  0  0  0  0
    2.0286    0.1223   -1.3801 C   0  0  0  0  0  0  0  0  0  0  0  0
    2.8714    1.2073   -1.2256 C   0  0  0  0  0  0  0  0  0  0  0  0
    3.1940    1.6193    0.0609 C   0  0  0  0  0  0  0  0  0  0  0  0
    2.6983    0.9776    1.1763 C   0  0  0  0  0  0  0  0  0  0  0  0
    1.8484   -0.1168    0.9783 C   0  0  0  0  0  0  0  0  0  0  0  0
   -0.6910    0.0000    0.0000 H   0  0  0  0  0  0  0  0  0  0  0  0
   -1.9145   -3.2916   -0.7003 H   0  0  0  0  0  0  0  0  0  0  0  0
   -2.6841   -1.9077   -1.2160 H   0  0  0  0  0  0  0  0  0  0  0  0
   -0.8115   -0.1869    2.1300 H   0  0  0  0  0  0  0  0  0  0  0  0
   -1.7195    2.0900    2.4484 H   0  0  0  0  0  0  0  0  0  0  0  0
   -2.8243    3.3049    0.5760 H   0  0  0  0  0  0  0  0  0  0  0  0
   -2.9738    2.1570   -1.6220 H   0  0  0  0  0  0  0  0  0  0  0  0
   -2.0826   -0.0428   -1.9221 H   0  0  0  0  0  0  0  0  0  0  0  0
   -0.0718   -3.5411    0.4955 H   0  0  0  0  0  0  0  0  0  0  0  0
    0.1520   -2.1734    1.6868 H   0  0  0  0  0  0  0  0  0  0  0  0
    0.8431   -2.2730   -1.4521 H   0  0  0  0  0  0  0  0  0  0  0  0
    1.7467   -0.2380   -2.3677 H   0  0  0  0  0  0  0  0  0  0  0  0
    3.2818    1.7381   -2.0741 H   0  0  0  0  0  0  0  0  0  0  0  0
    3.8497    2.4635    0.2441 H   0  0  0  0  0  0  0  0  0  0  0  0
    2.9430    1.2899    2.1898 H   0  0  0  0  0  0  0  0  0  0  0  0
    1.4638   -0.6330    1.8258 H   0  0  0  0  0  0  0  0  0  0  0  0
  3  2  1  6
  3  4  1  0
  4  5  2  0
  5  6  1  0
  6  7  2  0
  7  8  1  0
  8  9  2  0
  3 10  1  0
 10 11  1  0
 11 12  1  0
 12 13  2  0
 13 14  1  0
 14 15  2  0
 15 16  1  0
 16 17  2  0
 11  3  1  0
 17 12  1  0
  9  4  1  0
  1 18  1  0
  2 19  1  0
  2 20  1  0
  5 21  1  0
  6 22  1  0
  7 23  1  0
  8 24  1  0
  9 25  1  0
 10 26  1  0
 10 27  1  0
 11 28  1  6
 13 29  1  0
 14 30  1  0
 15 31  1  0
 16 32  1  0
 17 33  1  0
M  END
$$$$
