@<TRIPOS>MOLECULE
*****
 33 34 0 0 0
SMALL
GASTEIGER

@<TRIPOS>ATOM
      1 CL          0.6910    0.0000    0.0000 Cl      1  UNL1       -0.1454
      2 N          -1.7628   -2.3492   -1.1364 N.3     2  UNL2       -0.3206
      3 C          -0.8559   -1.6095   -0.2332 C.3     2  UNL2        0.0495
      4 C          -1.3653   -0.2849    0.1030 C.ar    2  UNL2       -0.0270
      5 C          -1.2801    0.3404    1.3151 C.ar    2  UNL2       -0.0568
      6 C          -1.8024    1.6188    1.4743 C.ar    2  UNL2       -0.0614
      7 C          -2.4147    2.3010    0.4499 C.ar    2  UNL2       -0.0617
      8 C          -2.5030    1.6741   -0.7735 C.ar    2  UNL2       -0.0614
      9 C          -1.9926    0.4250   -0.9292 C.ar    2  UNL2       -0.0568
     10 C          -0.0015   -2.4214    0.6368 C.3     2  UNL2       -0.0213
     11 C           0.6276   -1.7140   -0.4794 C.3     2  UNL2        0.0083
     12 C           1.5119   -0.5461   -0.2795 C.ar    2  UNL2       -0.0421
     13 C           2.0286    0.1223   -1.3801 C.ar    2  UNL2       -0.0582
     14 C           2.8714    1.2073   -1.2256 C.ar    2  UNL2       -0.0615
     15 C           3.1940    1.6193    0.0609 C.ar    2  UNL2       -0.0617
     16 C           2.6983    0.9776    1.1763 C.ar    2  UNL2       -0.0615
     17 C           1.8484   -0.1168    0.9783 C.ar    2  UNL2       -0.0582
     18 H          -0.6910    0.0000    0.0000 H       1  UNL1        0.1454
     19 H          -1.9145   -3.2916   -0.7003 H       2  UNL2        0.1190
     20 H          -2.6841   -1.9077   -1.2160 H       2  UNL2        0.1190
     21 H          -0.8115   -0.1869    2.1300 H       2  UNL2        0.0621
     22 H          -1.7195    2.0900    2.4484 H       2  UNL2        0.0618
     23 H          -2.8243    3.3049    0.5760 H       2  UNL2        0.0618
     24 H          -2.9738    2.1570   -1.6220 H       2  UNL2        0.0618
     25 H          -2.0826   -0.0428   -1.9221 H       2  UNL2        0.0621
     26 H          -0.0718   -3.5411    0.4955 H       2  UNL2        0.0293
     27 H           0.1520   -2.1734    1.6868 H       2  UNL2        0.0293
     28 H           0.8431   -2.2730   -1.4521 H       2  UNL2        0.0371
     29 H           1.7467   -0.2380   -2.3677 H       2  UNL2        0.0620
     30 H           3.2818    1.7381   -2.0741 H       2  UNL2        0.0618
     31 H           3.8497    2.4635    0.2441 H       2  UNL2        0.0618
     32 H           2.9430    1.2899    2.1898 H       2  UNL2        0.0618
     33 H           1.4638   -0.6330    1.8258 H       2  UNL2        0.0620
@<TRIPOS>BOND
     1     3     2    1
     2     3     4    1
     3     4     5   ar
     4     5     6   ar
     5     6     7   ar
     6     7     8   ar
     7     8     9   ar
     8     3    10    1
     9    10    11    1
    10    11    12    1
    11    12    13   ar
    12    13    14   ar
    13    14    15   ar
    14    15    16   ar
    15    16    17   ar
    16    11     3    1
    17    17    12   ar
    18     9     4   ar
    19     1    18    1
    20     2    19    1
    21     2    20    1
    22     5    21    1
    23     6    22    1
    24     7    23    1
    25     8    24    1
    26     9    25    1
    27    10    26    1
    28    10    27    1
    29    11    28    1
    30    13    29    1
    31    14    30    1
    32    15    31    1
    33    16    32    1
    34    17    33    1
