@<TRIPOS>MOLECULE
*****
 47 49 0 0 0
SMALL
GASTEIGER

@<TRIPOS>ATOM
      1 C          -4.2207   -3.9130    0.2194 C.3     1  UNL1        0.0788
      2 O          -2.9955   -3.1795    0.1896 O.3     1  UNL1       -0.4950
      3 C          -2.9984   -1.7915    0.0792 C.ar    1  UNL1        0.1219
      4 C          -1.8661   -1.0209    0.0468 C.ar    1  UNL1        0.0025
      5 C          -1.8005    0.3370   -0.0584 C.ar    1  UNL1        0.0514
      6 C          -3.0440    0.9057   -0.1365 C.ar    1  UNL1        0.0343
      7 S          -3.2928    2.6442   -0.2887 S.3     1  UNL1       -0.0857
      8 C          -1.6788    3.2869   -0.3692 C.ar    1  UNL1        0.0341
      9 C          -0.5947    2.5081   -0.2697 C.ar    1  UNL1        0.0479
     10 C           0.6207    3.1942   -0.3416 C.ar    1  UNL1       -0.0393
     11 C           0.7274    4.5558   -0.5012 C.ar    1  UNL1       -0.0599
     12 C          -0.4111    5.3045   -0.5977 C.ar    1  UNL1       -0.0606
     13 C          -1.6204    4.6421   -0.5285 C.ar    1  UNL1       -0.0462
     14 N          -0.6086    1.0707   -0.1158 N.pl3   1  UNL1       -0.2979
     15 C           0.6290    0.4622   -0.0223 C.3     1  UNL1        0.0211
     16 C           1.2530   -0.7270    0.3084 C.3     1  UNL1       -0.0150
     17 C           1.1483   -1.2951    1.7324 C.3     1  UNL1       -0.0598
     18 C           2.7724   -0.4334    0.2770 C.3     1  UNL1        0.0023
     19 N           3.5335   -1.5803    0.5960 N.3     1  UNL1       -0.3080
     20 C           3.4123   -2.5493   -0.4753 C.3     1  UNL1       -0.0130
     21 C           4.9298   -1.1912    0.6706 C.3     1  UNL1       -0.0130
     22 C          -4.2385    0.2407   -0.1146 C.ar    1  UNL1       -0.0427
     23 C          -4.2439   -1.1548   -0.0036 C.ar    1  UNL1       -0.0188
     24 H          -4.8634   -3.5404    1.0663 H       1  UNL1        0.0660
     25 H          -4.0542   -4.9718    0.4210 H       1  UNL1        0.0660
     26 H          -4.8343   -3.7192   -0.6846 H       1  UNL1        0.0660
     27 H          -0.9950   -1.6030    0.0860 H       1  UNL1        0.0673
     28 H           1.5781    2.6956   -0.2815 H       1  UNL1        0.0636
     29 H           1.6937    5.0669   -0.5532 H       1  UNL1        0.0618
     30 H          -0.3217    6.3833   -0.7236 H       1  UNL1        0.0618
     31 H          -2.4762    5.2927   -0.6119 H       1  UNL1        0.0629
     32 H           1.1757    0.8343   -0.9529 H       1  UNL1        0.0471
     33 H           1.1175    1.1278    0.8133 H       1  UNL1        0.0471
     34 H           1.3283   -1.5826   -0.4320 H       1  UNL1        0.0326
     35 H           0.1516   -1.3017    2.1484 H       1  UNL1        0.0233
     36 H           1.6501   -2.2620    1.7615 H       1  UNL1        0.0233
     37 H           1.7403   -0.6389    2.4399 H       1  UNL1        0.0233
     38 H           3.0610    0.0619   -0.6831 H       1  UNL1        0.0429
     39 H           2.9896    0.3602    1.0530 H       1  UNL1        0.0429
     40 H           3.1639   -1.9743   -1.4159 H       1  UNL1        0.0391
     41 H           4.3475   -3.1414   -0.5916 H       1  UNL1        0.0391
     42 H           2.5390   -3.1897   -0.2495 H       1  UNL1        0.0391
     43 H           5.0101   -0.0787    0.8441 H       1  UNL1        0.0391
     44 H           5.4835   -1.6632    1.5052 H       1  UNL1        0.0391
     45 H           5.4860   -1.3570   -0.2807 H       1  UNL1        0.0391
     46 H          -5.2406    0.6377   -0.1730 H       1  UNL1        0.0630
     47 H          -5.1427   -1.7526    0.0213 H       1  UNL1        0.0654
@<TRIPOS>BOND
     1     1     2    1
     2     2     3    1
     3     3     4   ar
     4     4     5   ar
     5     5     6   ar
     6     6     7    1
     7     7     8    1
     8     8     9   ar
     9     9    10   ar
    10    10    11   ar
    11    11    12   ar
    12    12    13   ar
    13     9    14    1
    14    14    15    1
    15    15    16    1
    16    16    17    1
    17    16    18    1
    18    18    19    1
    19    19    20    1
    20    19    21    1
    21     6    22   ar
    22    22    23   ar
    23    23     3   ar
    24    14     5    1
    25    13     8   ar
    26     1    24    1
    27     1    25    1
    28     1    26    1
    29     4    27    1
    30    10    28    1
    31    11    29    1
    32    12    30    1
    33    13    31    1
    34    15    32    1
    35    15    33    1
    36    16    34    1
    37    17    35    1
    38    17    36    1
    39    17    37    1
    40    18    38    1
    41    18    39    1
    42    20    40    1
    43    20    41    1
    44    20    42    1
    45    21    43    1
    46    21    44    1
    47    21    45    1
    48    22    46    1
    49    23    47    1
