
     RDKit          3D

 47 49  0  0  0  0  0  0  0  0999 V2000
   -4.2207   -3.9130    0.2194 C   0  0  0  0  0  0  0  0  0  0  0  0
   -2.9955   -3.1795    0.1896 O   0  0  0  0  0  0  0  0  0  0  0  0
   -2.9984   -1.7915    0.0792 C   0  0  0  0  0  0  0  0  0  0  0  0
   -1.8661   -1.0209    0.0468 C   0  0  0  0  0  0  0  0  0  0  0  0
   -1.8005    0.3370   -0.0584 C   0  0  0  0  0  0  0  0  0  0  0  0
   -3.0440    0.9057   -0.1365 C   0  0  0  0  0  0  0  0  0  0  0  0
   -3.2928    2.6442   -0.2887 S   0  0  0  0  0  0  0  0  0  0  0  0
   -1.6788    3.2869   -0.3692 C   0  0  0  0  0  0  0  0  0  0  0  0
   -0.5947    2.5081   -0.2697 C   0  0  0  0  0  0  0  0  0  0  0  0
    0.6207    3.1942   -0.3416 C   0  0  0  0  0  0  0  0  0  0  0  0
    0.7274    4.5558   -0.5012 C   0  0  0  0  0  0  0  0  0  0  0  0
   -0.4111    5.3045   -0.5977 C   0  0  0  0  0  0  0  0  0  0  0  0
   -1.6204    4.6421   -0.5285 C   0  0  0  0  0  0  0  0  0  0  0  0
   -0.6086    1.0707   -0.1158 N   0  0  0  0  0  0  0  0  0  0  0  0
    0.6290    0.4622   -0.0223 C   0  0  0  0  0  0  0  0  0  0  0  0
    1.2530   -0.7270    0.3084 C   0  0  2  0  0  0  0  0  0  0  0  0
    1.1483   -1.2951    1.7324 C   0  0  0  0  0  0  0  0  0  0  0  0
    2.7724   -0.4334    0.2770 C   0  0  0  0  0  0  0  0  0  0  0  0
    3.5335   -1.5803    0.5960 N   0  0  0  0  0  0  0  0  0  0  0  0
    3.4123   -2.5493   -0.4753 C   0  0  0  0  0  0  0  0  0  0  0  0
    4.9298   -1.1912    0.6706 C   0  0  0  0  0  0  0  0  0  0  0  0
   -4.2385    0.2407   -0.1146 C   0  0  0  0  0  0  0  0  0  0  0  0
   -4.2439   -1.1548   -0.0036 C   0  0  0  0  0  0  0  0  0  0  0  0
   -4.8634   -3.5404    1.0663 H   0  0  0  0  0  0  0  0  0  0  0  0
   -4.0542   -4.9718    0.4210 H   0  0  0  0  0  0  0  0  0  0  0  0
   -4.8343   -3.7192   -0.6846 H   0  0  0  0  0  0  0  0  0  0  0  0
   -0.9950   -1.6030    0.0860 H   0  0  0  0  0  0  0  0  0  0  0  0
    1.5781    2.6956   -0.2815 H   0  0  0  0  0  0  0  0  0  0  0  0
    1.6937    5.0669   -0.5532 H   0  0  0  0  0  0  0  0  0  0  0  0
   -0.3217    6.3833   -0.7236 H   0  0  0  0  0  0  0  0  0  0  0  0
   -2.4762    5.2927   -0.6119 H   0  0  0  0  0  0  0  0  0  0  0  0
    1.1757    0.8343   -0.9529 H   0  0  0  0  0  0  0  0  0  0  0  0
    1.1175    1.1278    0.8133 H   0  0  0  0  0  0  0  0  0  0  0  0
    1.3283   -1.5826   -0.4320 H   0  0  0  0  0  0  0  0  0  0  0  0
    0.1516   -1.3017    2.1484 H   0  0  0  0  0  0  0  0  0  0  0  0
    1.6501   -2.2620    1.7615 H   0  0  0  0  0  0  0  0  0  0  0  0
    1.7403   -0.6389    2.4399 H   0  0  0  0  0  0  0  0  0  0  0  0
    3.0610    0.0619   -0.6831 H   0  0  0  0  0  0  0  0  0  0  0  0
    2.9896    0.3602    1.0530 H   0  0  0  0  0  0  0  0  0  0  0  0
    3.1639   -1.9743   -1.4159 H   0  0  0  0  0  0  0  0  0  0  0  0
    4.3475   -3.1414   -0.5916 H   0  0  0  0  0  0  0  0  0  0  0  0
    2.5390   -3.1897   -0.2495 H   0  0  0  0  0  0  0  0  0  0  0  0
    5.0101   -0.0787    0.8441 H   0  0  0  0  0  0  0  0  0  0  0  0
    5.4835   -1.6632    1.5052 H   0  0  0  0  0  0  0  0  0  0  0  0
    5.4860   -1.3570   -0.2807 H   0  0  0  0  0  0  0  0  0  0  0  0
   -5.2406    0.6377   -0.1730 H   0  0  0  0  0  0  0  0  0  0  0  0
   -5.1427   -1.7526    0.0213 H   0  0  0  0  0  0  0  0  0  0  0  0
  1  2  1  0
  2  3  1  0
  3  4  2  0
  4  5  1  0
  5  6  2  0
  6  7  1  0
  7  8  1  0
  8  9  2  0
  9 10  1  0
 10 11  2  0
 11 12  1  0
 12 13  2  0
  9 14  1  0
 14 15  1  0
 15 16  1  0
 16 17  1  0
 16 18  1  0
 18 19  1  0
 19 20  1  0
 19 21  1  0
  6 22  1  0
 22 23  2  0
 23  3  1  0
 14  5  1  0
 13  8  1  0
  1 24  1  0
  1 25  1  0
  1 26  1  0
  4 27  1  0
 10 28  1  0
 11 29  1  0
 12 30  1  0
 13 31  1  0
 15 32  1  0
 15 33  1  0
 16 34  1  6
 17 35  1  0
 17 36  1  0
 17 37  1  0
 18 38  1  0
 18 39  1  0
 20 40  1  0
 20 41  1  0
 20 42  1  0
 21 43  1  0
 21 44  1  0
 21 45  1  0
 22 46  1  0
 23 47  1  0
M  END
$$$$
