@<TRIPOS>MOLECULE
*****
 54 57 0 0 0
SMALL
GASTEIGER

@<TRIPOS>ATOM
      1 C          -2.3808    5.4612   -1.6352 C.3     1  UNL1       -0.0307
      2 C          -1.0651    4.8897   -1.1913 C.3     1  UNL1        0.0868
      3 O          -1.2056    3.5217   -0.9181 O.3     1  UNL1       -0.4915
      4 C          -0.1506    2.7250   -0.4877 C.ar    1  UNL1        0.1311
      5 C           1.1060    3.3313   -0.3238 C.ar    1  UNL1       -0.0187
      6 C           2.1669    2.6105    0.0912 C.ar    1  UNL1       -0.0505
      7 C           1.9844    1.2724    0.3477 C.ar    1  UNL1       -0.0155
      8 C           3.0990    0.4193    0.8013 C.ar    1  UNL1        0.0003
      9 C           4.1274    0.8972    1.5821 C.ar    1  UNL1       -0.0504
     10 C           5.1537    0.0302    1.9752 C.ar    1  UNL1       -0.0305
     11 C           5.1660   -1.2972    1.6016 C.ar    1  UNL1        0.1273
     12 C           6.2339   -2.2074    2.0080 C.2     1  UNL1        0.2848
     13 O           7.1929   -1.8069    2.7244 O.2     1  UNL1       -0.2664
     14 N           6.1819   -3.5638    1.5839 N.am    1  UNL1       -0.1922
     15 O           7.1398   -4.4486    1.9286 O.3     1  UNL1       -0.2949
     16 N           4.1490   -1.7335    0.8399 N.ar    1  UNL1       -0.2497
     17 C           3.1402   -0.9122    0.4445 C.ar    1  UNL1        0.0361
     18 C           0.7568    0.6784    0.1882 C.ar    1  UNL1       -0.0398
     19 C          -0.3740    1.4047   -0.2446 C.ar    1  UNL1        0.0595
     20 C          -1.6167    0.6880   -0.3856 C.ar    1  UNL1        0.1451
     21 N          -1.6641   -0.6297   -0.0696 N.ar    1  UNL1       -0.2254
     22 C          -2.7982   -1.3338   -0.1810 C.ar    1  UNL1        0.1192
     23 C          -3.1176   -2.6738    0.0722 C.ar    1  UNL1        0.0889
     24 C          -2.1536   -3.6732    0.5668 C.3     1  UNL1       -0.0094
     25 C          -1.1953   -4.1773   -0.4603 C.3     1  UNL1       -0.0597
     26 N          -4.4156   -2.8357   -0.2152 N.ar    1  UNL1       -0.1736
     27 N          -4.9473   -1.7033   -0.6316 N.ar    1  UNL1       -0.2598
     28 C          -6.3201   -1.4401   -1.0439 C.3     1  UNL1        0.0311
     29 C          -3.9740   -0.7627   -0.6200 C.ar    1  UNL1        0.1513
     30 C          -3.9268    0.5714   -0.9401 C.ar    1  UNL1        0.2775
     31 O          -4.9770    1.1148   -1.3407 O.2     1  UNL1       -0.2655
     32 N          -2.7473    1.2330   -0.8068 N.ar    1  UNL1       -0.3051
     33 H          -2.5162    5.3906   -2.7456 H       1  UNL1        0.0262
     34 H          -2.4662    6.5340   -1.3477 H       1  UNL1        0.0262
     35 H          -3.2264    4.9474   -1.1368 H       1  UNL1        0.0262
     36 H          -0.2644    5.0947   -1.9542 H       1  UNL1        0.0694
     37 H          -0.7477    5.4617   -0.2754 H       1  UNL1        0.0694
     38 H           1.1924    4.3857   -0.5398 H       1  UNL1        0.0654
     39 H           3.1730    3.0213    0.2393 H       1  UNL1        0.0625
     40 H           4.1077    1.9363    1.8677 H       1  UNL1        0.0625
     41 H           5.9481    0.4068    2.5811 H       1  UNL1        0.0641
     42 H           5.3622   -3.8517    0.9866 H       1  UNL1        0.1826
     43 H           7.7047   -4.6511    1.1602 H       1  UNL1        0.2414
     44 H           2.3437   -1.3241   -0.1724 H       1  UNL1        0.0836
     45 H           0.6242   -0.3898    0.3966 H       1  UNL1        0.0632
     46 H          -2.7367   -4.5448    0.9487 H       1  UNL1        0.0327
     47 H          -1.6189   -3.2520    1.4434 H       1  UNL1        0.0327
     48 H          -1.0694   -5.2944   -0.3712 H       1  UNL1        0.0233
     49 H          -1.4486   -3.9460   -1.4967 H       1  UNL1        0.0233
     50 H          -0.1620   -3.7758   -0.2599 H       1  UNL1        0.0233
     51 H          -6.6353   -0.4583   -0.6406 H       1  UNL1        0.0473
     52 H          -7.0034   -2.2448   -0.7087 H       1  UNL1        0.0473
     53 H          -6.3043   -1.3378   -2.1555 H       1  UNL1        0.0473
     54 H          -2.8244    2.2425   -1.0793 H       1  UNL1        0.1704
@<TRIPOS>BOND
     1     1     2    1
     2     2     3    1
     3     3     4    1
     4     4     5   ar
     5     5     6   ar
     6     6     7   ar
     7     7     8    1
     8     8     9   ar
     9     9    10   ar
    10    10    11   ar
    11    11    12    1
    12    12    13    2
    13    12    14   am
    14    14    15    1
    15    11    16   ar
    16    16    17   ar
    17     7    18   ar
    18    18    19   ar
    19    19    20    1
    20    20    21   ar
    21    21    22   ar
    22    22    23   ar
    23    23    24    1
    24    24    25    1
    25    23    26   ar
    26    26    27   ar
    27    27    28    1
    28    27    29   ar
    29    29    30   ar
    30    30    31    2
    31    30    32   ar
    32    19     4   ar
    33    32    20   ar
    34    17     8   ar
    35    29    22   ar
    36     1    33    1
    37     1    34    1
    38     1    35    1
    39     2    36    1
    40     2    37    1
    41     5    38    1
    42     6    39    1
    43     9    40    1
    44    10    41    1
    45    14    42    1
    46    15    43    1
    47    17    44    1
    48    18    45    1
    49    24    46    1
    50    24    47    1
    51    25    48    1
    52    25    49    1
    53    25    50    1
    54    28    51    1
    55    28    52    1
    56    28    53    1
    57    32    54    1
