
     RDKit          3D

 56 58  0  0  0  0  0  0  0  0999 V2000
   -3.5781    1.2279   -1.3066 C   0  0  0  0  0  0  0  0  0  0  0  0
   -3.5560   -0.2720   -1.1388 C   0  0  0  0  0  0  0  0  0  0  0  0
   -4.5015   -0.7896   -0.2469 N   0  0  0  0  0  0  0  0  0  0  0  0
   -5.8782   -0.6825   -0.6893 C   0  0  0  0  0  0  0  0  0  0  0  0
   -6.1781   -1.5566   -1.8637 C   0  0  0  0  0  0  0  0  0  0  0  0
   -4.3989   -0.5892    1.1368 C   0  0  0  0  0  0  0  0  0  0  0  0
   -3.2674   -1.2950    1.7876 C   0  0  0  0  0  0  0  0  0  0  0  0
   -1.9433   -0.8921    1.3513 N   0  0  0  0  0  0  0  0  0  0  0  0
   -1.4730    0.4180    1.5207 C   0  0  0  0  0  0  0  0  0  0  0  0
   -2.3127    1.2153    2.0941 O   0  0  0  0  0  0  0  0  0  0  0  0
   -0.1840    0.9597    1.1354 C   0  0  0  0  0  0  0  0  0  0  0  0
    0.2563    2.2642    1.4292 C   0  0  0  0  0  0  0  0  0  0  0  0
   -0.5358    3.2899    2.1916 C   0  0  0  0  0  0  0  0  0  0  0  0
    1.4754    2.3909    0.9086 N   0  0  0  0  0  0  0  0  0  0  0  0
    1.8891    1.2757    0.2893 C   0  0  0  0  0  0  0  0  0  0  0  0
    3.1403    1.0640   -0.4374 C   0  0  0  0  0  0  0  0  0  0  0  0
    4.0123    0.1795   -0.0036 C   0  0  0  0  0  0  0  0  0  0  0  0
    3.9531   -0.6850    1.1607 C   0  0  0  0  0  0  0  0  0  0  0  0
    3.0549   -0.7459    2.0167 O   0  0  0  0  0  0  0  0  0  0  0  0
    5.1510   -1.4737    1.1455 N   0  0  0  0  0  0  0  0  0  0  0  0
    5.9122   -1.0975    0.0083 C   0  0  0  0  0  0  0  0  0  0  0  0
    7.1500   -1.5939   -0.4153 C   0  0  0  0  0  0  0  0  0  0  0  0
    7.6705   -1.0467   -1.5644 C   0  0  0  0  0  0  0  0  0  0  0  0
    7.0413   -0.0593   -2.2935 C   0  0  0  0  0  0  0  0  0  0  0  0
    7.6050    0.4462   -3.4262 F   0  0  0  0  0  0  0  0  0  0  0  0
    5.8238    0.4159   -1.8603 C   0  0  0  0  0  0  0  0  0  0  0  0
    5.2700   -0.1115   -0.7081 C   0  0  0  0  0  0  0  0  0  0  0  0
    0.8261    0.3668    0.4358 C   0  0  0  0  0  0  0  0  0  0  0  0
    0.8688   -1.0050   -0.1705 C   0  0  0  0  0  0  0  0  0  0  0  0
   -2.9061    1.7404   -0.5947 H   0  0  0  0  0  0  0  0  0  0  0  0
   -3.1246    1.4353   -2.3210 H   0  0  0  0  0  0  0  0  0  0  0  0
   -4.6092    1.6375   -1.3120 H   0  0  0  0  0  0  0  0  0  0  0  0
   -2.5409   -0.5832   -0.9041 H   0  0  0  0  0  0  0  0  0  0  0  0
   -3.7747   -0.7087   -2.1518 H   0  0  0  0  0  0  0  0  0  0  0  0
   -6.5239   -0.9718    0.1758 H   0  0  0  0  0  0  0  0  0  0  0  0
   -6.1580    0.3742   -0.9129 H   0  0  0  0  0  0  0  0  0  0  0  0
   -6.9834   -2.2990   -1.5866 H   0  0  0  0  0  0  0  0  0  0  0  0
   -6.5164   -0.9358   -2.7101 H   0  0  0  0  0  0  0  0  0  0  0  0
   -5.2786   -2.1712   -2.1024 H   0  0  0  0  0  0  0  0  0  0  0  0
   -4.4393    0.4793    1.4597 H   0  0  0  0  0  0  0  0  0  0  0  0
   -5.3399   -1.0215    1.6037 H   0  0  0  0  0  0  0  0  0  0  0  0
   -3.4016   -2.3896    1.6290 H   0  0  0  0  0  0  0  0  0  0  0  0
   -3.3834   -1.1561    2.8927 H   0  0  0  0  0  0  0  0  0  0  0  0
   -1.3287   -1.5914    0.9091 H   0  0  0  0  0  0  0  0  0  0  0  0
   -1.4077    3.6292    1.5952 H   0  0  0  0  0  0  0  0  0  0  0  0
   -0.8267    2.8931    3.1898 H   0  0  0  0  0  0  0  0  0  0  0  0
    0.0927    4.1820    2.3832 H   0  0  0  0  0  0  0  0  0  0  0  0
    2.0629    3.2588    0.9659 H   0  0  0  0  0  0  0  0  0  0  0  0
    3.3415    1.6457   -1.3398 H   0  0  0  0  0  0  0  0  0  0  0  0
    5.3953   -2.1901    1.8561 H   0  0  0  0  0  0  0  0  0  0  0  0
    7.6473   -2.3596    0.1432 H   0  0  0  0  0  0  0  0  0  0  0  0
    8.6363   -1.4218   -1.9094 H   0  0  0  0  0  0  0  0  0  0  0  0
    5.2863    1.1930   -2.3978 H   0  0  0  0  0  0  0  0  0  0  0  0
    0.9306   -1.8080    0.5782 H   0  0  0  0  0  0  0  0  0  0  0  0
    1.8326   -1.1107   -0.7535 H   0  0  0  0  0  0  0  0  0  0  0  0
    0.0246   -1.1164   -0.8726 H   0  0  0  0  0  0  0  0  0  0  0  0
  1  2  1  0
  2  3  1  0
  3  4  1  0
  4  5  1  0
  3  6  1  0
  6  7  1  0
  7  8  1  0
  8  9  1  0
  9 10  2  0
  9 11  1  0
 11 12  2  0
 12 13  1  0
 12 14  1  0
 14 15  1  0
 15 16  1  0
 16 17  2  0
 17 18  1  0
 18 19  2  0
 18 20  1  0
 20 21  1  0
 21 22  2  0
 22 23  1  0
 23 24  2  0
 24 25  1  0
 24 26  1  0
 26 27  2  0
 15 28  2  0
 28 29  1  0
 28 11  1  0
 27 17  1  0
 27 21  1  0
  1 30  1  0
  1 31  1  0
  1 32  1  0
  2 33  1  0
  2 34  1  0
  4 35  1  0
  4 36  1  0
  5 37  1  0
  5 38  1  0
  5 39  1  0
  6 40  1  0
  6 41  1  0
  7 42  1  0
  7 43  1  0
  8 44  1  0
 13 45  1  0
 13 46  1  0
 13 47  1  0
 14 48  1  0
 16 49  1  0
 20 50  1  0
 22 51  1  0
 23 52  1  0
 26 53  1  0
 29 54  1  0
 29 55  1  0
 29 56  1  0
M  END
$$$$
