@<TRIPOS>MOLECULE
*****
 56 58 0 0 0
SMALL
GASTEIGER

@<TRIPOS>ATOM
      1 C          -3.5781    1.2279   -1.3066 C.3     1  UNL1       -0.0524
      2 C          -3.5560   -0.2720   -1.1388 C.3     1  UNL1       -0.0039
      3 N          -4.5015   -0.7896   -0.2469 N.3     1  UNL1       -0.3014
      4 C          -5.8782   -0.6825   -0.6893 C.3     1  UNL1       -0.0039
      5 C          -6.1781   -1.5566   -1.8637 C.3     1  UNL1       -0.0524
      6 C          -4.3989   -0.5892    1.1368 C.3     1  UNL1        0.0145
      7 C          -3.2674   -1.2950    1.7876 C.3     1  UNL1        0.0247
      8 N          -1.9433   -0.8921    1.3513 N.am    1  UNL1       -0.3101
      9 C          -1.4730    0.4180    1.5207 C.2     1  UNL1        0.2461
     10 O          -2.3127    1.2153    2.0941 O.2     1  UNL1       -0.2701
     11 C          -0.1840    0.9597    1.1354 C.ar    1  UNL1        0.0604
     12 C           0.2563    2.2642    1.4292 C.ar    1  UNL1        0.0257
     13 C          -0.5358    3.2899    2.1916 C.3     1  UNL1       -0.0237
     14 N           1.4754    2.3909    0.9086 N.ar    1  UNL1       -0.3578
     15 C           1.8891    1.2757    0.2893 C.ar    1  UNL1        0.0438
     16 C           3.1403    1.0640   -0.4374 C.2     1  UNL1       -0.0253
     17 C           4.0123    0.1795   -0.0036 C.2     1  UNL1        0.0479
     18 C           3.9531   -0.6850    1.1607 C.2     1  UNL1        0.2490
     19 O           3.0549   -0.7459    2.0167 O.2     1  UNL1       -0.2698
     20 N           5.1510   -1.4737    1.1455 N.am    1  UNL1       -0.2809
     21 C           5.9122   -1.0975    0.0083 C.ar    1  UNL1        0.0417
     22 C           7.1500   -1.5939   -0.4153 C.ar    1  UNL1       -0.0372
     23 C           7.6705   -1.0467   -1.5644 C.ar    1  UNL1       -0.0247
     24 C           7.0413   -0.0593   -2.2935 C.ar    1  UNL1        0.1241
     25 F           7.6050    0.4462   -3.4262 F       1  UNL1       -0.2055
     26 C           5.8238    0.4159   -1.8603 C.ar    1  UNL1       -0.0168
     27 C           5.2700   -0.1115   -0.7081 C.ar    1  UNL1        0.0111
     28 C           0.8261    0.3668    0.4358 C.ar    1  UNL1       -0.0134
     29 C           0.8688   -1.0050   -0.1705 C.3     1  UNL1       -0.0370
     30 H          -2.9061    1.7404   -0.5947 H       1  UNL1        0.0242
     31 H          -3.1246    1.4353   -2.3210 H       1  UNL1        0.0242
     32 H          -4.6092    1.6375   -1.3120 H       1  UNL1        0.0242
     33 H          -2.5409   -0.5832   -0.9041 H       1  UNL1        0.0424
     34 H          -3.7747   -0.7087   -2.1518 H       1  UNL1        0.0424
     35 H          -6.5239   -0.9718    0.1758 H       1  UNL1        0.0424
     36 H          -6.1580    0.3742   -0.9129 H       1  UNL1        0.0424
     37 H          -6.9834   -2.2990   -1.5866 H       1  UNL1        0.0242
     38 H          -6.5164   -0.9358   -2.7101 H       1  UNL1        0.0242
     39 H          -5.2786   -2.1712   -2.1024 H       1  UNL1        0.0242
     40 H          -4.4393    0.4793    1.4597 H       1  UNL1        0.0442
     41 H          -5.3399   -1.0215    1.6037 H       1  UNL1        0.0442
     42 H          -3.4016   -2.3896    1.6290 H       1  UNL1        0.0475
     43 H          -3.3834   -1.1561    2.8927 H       1  UNL1        0.0475
     44 H          -1.3287   -1.5914    0.9091 H       1  UNL1        0.1491
     45 H          -1.4077    3.6292    1.5952 H       1  UNL1        0.0292
     46 H          -0.8267    2.8931    3.1898 H       1  UNL1        0.0292
     47 H           0.0927    4.1820    2.3832 H       1  UNL1        0.0292
     48 H           2.0629    3.2588    0.9659 H       1  UNL1        0.1656
     49 H           3.3415    1.6457   -1.3398 H       1  UNL1        0.0646
     50 H           5.3953   -2.1901    1.8561 H       1  UNL1        0.1552
     51 H           7.6473   -2.3596    0.1432 H       1  UNL1        0.0637
     52 H           8.6363   -1.4218   -1.9094 H       1  UNL1        0.0647
     53 H           5.2863    1.1930   -2.3978 H       1  UNL1        0.0653
     54 H           0.9306   -1.8080    0.5782 H       1  UNL1        0.0278
     55 H           1.8326   -1.1107   -0.7535 H       1  UNL1        0.0278
     56 H           0.0246   -1.1164   -0.8726 H       1  UNL1        0.0278
@<TRIPOS>BOND
     1     1     2    1
     2     2     3    1
     3     3     4    1
     4     4     5    1
     5     3     6    1
     6     6     7    1
     7     7     8    1
     8     8     9   am
     9     9    10    2
    10     9    11    1
    11    11    12   ar
    12    12    13    1
    13    12    14   ar
    14    14    15   ar
    15    15    16    1
    16    16    17    2
    17    17    18    1
    18    18    19    2
    19    18    20   am
    20    20    21    1
    21    21    22   ar
    22    22    23   ar
    23    23    24   ar
    24    24    25    1
    25    24    26   ar
    26    26    27   ar
    27    15    28   ar
    28    28    29    1
    29    28    11   ar
    30    27    17    1
    31    27    21   ar
    32     1    30    1
    33     1    31    1
    34     1    32    1
    35     2    33    1
    36     2    34    1
    37     4    35    1
    38     4    36    1
    39     5    37    1
    40     5    38    1
    41     5    39    1
    42     6    40    1
    43     6    41    1
    44     7    42    1
    45     7    43    1
    46     8    44    1
    47    13    45    1
    48    13    46    1
    49    13    47    1
    50    14    48    1
    51    16    49    1
    52    20    50    1
    53    22    51    1
    54    23    52    1
    55    26    53    1
    56    29    54    1
    57    29    55    1
    58    29    56    1
