@<TRIPOS>MOLECULE
*****
 91 94 0 0 0
SMALL
GASTEIGER

@<TRIPOS>ATOM
      1 C          -0.9678   -1.8342   -2.7483 C.3     1  UNL1       -0.0494
      2 C          -1.3229   -2.7715   -1.6186 C.3     1  UNL1        0.0097
      3 N          -1.0242   -2.2092   -0.3193 N.pl3   1  UNL1       -0.3269
      4 C          -0.2793   -0.9881   -0.3691 C.ar    1  UNL1        0.0342
      5 C          -0.8933    0.2262   -0.2251 C.ar    1  UNL1       -0.0326
      6 C          -0.1911    1.4245   -0.3095 C.ar    1  UNL1       -0.0154
      7 C          -0.8771    2.6875   -0.0901 C.ar    1  UNL1       -0.0176
      8 C          -1.9119    2.7497    0.8191 C.ar    1  UNL1       -0.0506
      9 C          -2.6080    3.9087    1.0840 C.ar    1  UNL1       -0.0194
     10 C          -2.2687    5.0459    0.4264 C.ar    1  UNL1        0.1206
     11 O          -2.9655    6.2456    0.6885 O.3     1  UNL1       -0.4897
     12 C          -2.6154    7.4135   -0.0237 C.3     1  UNL1        0.1128
     13 C          -3.4437    8.5531    0.4596 C.3     1  UNL1        0.0813
     14 O          -4.7812    8.3985    0.3330 O.3     1  UNL1       -0.3796
     15 C          -5.3175    8.1963   -0.9138 C.3     1  UNL1        0.0366
     16 C          -1.2324    5.0271   -0.4995 C.ar    1  UNL1       -0.0194
     17 C          -0.5345    3.8366   -0.7563 C.ar    1  UNL1       -0.0506
     18 C           1.1483    1.3243   -0.5473 C.ar    1  UNL1       -0.0415
     19 C           1.8099    0.0892   -0.6993 C.ar    1  UNL1        0.0419
     20 C           3.2518    0.1756   -0.9003 C.2     1  UNL1        0.2447
     21 O           3.8872    0.9173   -0.1225 O.2     1  UNL1       -0.2702
     22 N           3.9255   -0.5246   -1.9046 N.am    1  UNL1       -0.3070
     23 C           5.3252   -0.5275   -2.2174 C.3     1  UNL1        0.0425
     24 C           6.2441   -0.7861   -1.1109 C.ar    1  UNL1        0.0368
     25 C           6.8678    0.1540   -0.3368 C.ar    1  UNL1       -0.0390
     26 C           6.8109    1.5928   -0.6989 C.3     1  UNL1       -0.0392
     27 C           7.6466   -0.2189    0.7727 C.ar    1  UNL1       -0.0393
     28 C           7.7936   -1.5397    1.0949 C.ar    1  UNL1        0.0162
     29 C           8.6120   -1.9489    2.2749 C.3     1  UNL1       -0.0244
     30 N           7.1755   -2.4468    0.3212 N.ar    1  UNL1       -0.3262
     31 C           6.4289   -2.1248   -0.7395 C.ar    1  UNL1        0.2539
     32 O           5.8632   -3.0276   -1.4419 O.2     1  UNL1       -0.2675
     33 C           1.0921   -1.0756   -0.6085 C.ar    1  UNL1       -0.0173
     34 C           1.7734   -2.3622   -0.7345 C.3     1  UNL1       -0.0372
     35 C          -1.3522   -2.7405    0.9566 C.3     1  UNL1        0.0236
     36 C          -2.4651   -2.0572    1.7061 C.3     1  UNL1       -0.0330
     37 C          -3.7988   -2.2020    1.1045 C.3     1  UNL1       -0.0357
     38 C          -4.1326   -3.5810    0.5987 C.3     1  UNL1        0.0100
     39 N          -5.4546   -3.9987    0.9924 N.3     1  UNL1       -0.3054
     40 C          -5.7214   -5.3308    0.5217 C.3     1  UNL1       -0.0128
     41 C          -5.8120   -3.8681    2.3452 C.3     1  UNL1       -0.0128
     42 C          -3.0691   -4.5998    0.7072 C.3     1  UNL1       -0.0357
     43 C          -1.6878   -4.2078    0.9764 C.3     1  UNL1       -0.0330
     44 H          -1.2056   -0.7651   -2.4835 H       1  UNL1        0.0245
     45 H          -1.5384   -2.0950   -3.6784 H       1  UNL1        0.0245
     46 H           0.0854   -1.8452   -3.0517 H       1  UNL1        0.0245
     47 H          -2.3254   -3.1293   -1.7750 H       1  UNL1        0.0461
     48 H          -0.6559   -3.6790   -1.7954 H       1  UNL1        0.0461
     49 H          -1.9567    0.3309   -0.0489 H       1  UNL1        0.0642
     50 H          -2.1840    1.8462    1.3387 H       1  UNL1        0.0625
     51 H          -3.4170    3.9006    1.8169 H       1  UNL1        0.0654
     52 H          -1.5561    7.6551    0.0513 H       1  UNL1        0.0720
     53 H          -2.8808    7.2116   -1.1026 H       1  UNL1        0.0720
     54 H          -3.1021    9.4903   -0.0489 H       1  UNL1        0.0593
     55 H          -3.2368    8.7129    1.5498 H       1  UNL1        0.0593
     56 H          -5.1201    9.0193   -1.6407 H       1  UNL1        0.0524
     57 H          -5.0103    7.1942   -1.2884 H       1  UNL1        0.0524
     58 H          -6.4538    8.1809   -0.8117 H       1  UNL1        0.0524
     59 H          -0.9857    5.9236   -1.0005 H       1  UNL1        0.0654
     60 H           0.2645    3.8014   -1.4650 H       1  UNL1        0.0625
     61 H           1.7191    2.2487   -0.6197 H       1  UNL1        0.0631
     62 H           3.2893   -1.1382   -2.5336 H       1  UNL1        0.1493
     63 H           5.6253    0.3606   -2.8193 H       1  UNL1        0.0513
     64 H           5.4795   -1.3929   -2.9480 H       1  UNL1        0.0513
     65 H           6.2634    2.1619    0.0554 H       1  UNL1        0.0278
     66 H           7.8931    1.9493   -0.6370 H       1  UNL1        0.0278
     67 H           6.4724    1.7662   -1.7278 H       1  UNL1        0.0278
     68 H           8.1155    0.5843    1.3463 H       1  UNL1        0.0637
     69 H           9.5558   -1.3732    2.1953 H       1  UNL1        0.0292
     70 H           8.1230   -1.6102    3.2196 H       1  UNL1        0.0292
     71 H           8.7773   -3.0336    2.2545 H       1  UNL1        0.0292
     72 H           7.2841   -3.4627    0.5645 H       1  UNL1        0.1686
     73 H           1.8013   -2.7343   -1.7739 H       1  UNL1        0.0278
     74 H           1.3305   -3.1590   -0.0867 H       1  UNL1        0.0278
     75 H           2.8274   -2.2629   -0.4046 H       1  UNL1        0.0278
     76 H          -0.4407   -2.6195    1.5924 H       1  UNL1        0.0500
     77 H          -2.4201   -2.4593    2.7704 H       1  UNL1        0.0284
     78 H          -2.2054   -0.9959    1.8266 H       1  UNL1        0.0284
     79 H          -3.9469   -1.4071    0.3461 H       1  UNL1        0.0281
     80 H          -4.5737   -1.9822    1.8984 H       1  UNL1        0.0281
     81 H          -4.2708   -3.4344   -0.5263 H       1  UNL1        0.0462
     82 H          -5.1415   -5.6112   -0.3669 H       1  UNL1        0.0391
     83 H          -5.5440   -6.1069    1.3229 H       1  UNL1        0.0391
     84 H          -6.8359   -5.3914    0.3667 H       1  UNL1        0.0391
     85 H          -6.6205   -4.6381    2.5516 H       1  UNL1        0.0391
     86 H          -5.0055   -4.1246    3.0656 H       1  UNL1        0.0391
     87 H          -6.3188   -2.9133    2.6029 H       1  UNL1        0.0391
     88 H          -3.0738   -5.2969   -0.1972 H       1  UNL1        0.0281
     89 H          -3.4105   -5.3193    1.5241 H       1  UNL1        0.0281
     90 H          -0.9978   -4.7935    0.3051 H       1  UNL1        0.0284
     91 H          -1.4005   -4.5582    2.0193 H       1  UNL1        0.0284
@<TRIPOS>BOND
     1     1     2    1
     2     2     3    1
     3     3     4    1
     4     4     5   ar
     5     5     6   ar
     6     6     7    1
     7     7     8   ar
     8     8     9   ar
     9     9    10   ar
    10    10    11    1
    11    11    12    1
    12    12    13    1
    13    13    14    1
    14    14    15    1
    15    10    16   ar
    16    16    17   ar
    17     6    18   ar
    18    18    19   ar
    19    19    20    1
    20    20    21    2
    21    20    22   am
    22    22    23    1
    23    23    24    1
    24    24    25   ar
    25    25    26    1
    26    25    27   ar
    27    27    28   ar
    28    28    29    1
    29    28    30   ar
    30    30    31   ar
    31    31    32    2
    32    19    33   ar
    33    33    34    1
    34     3    35    1
    35    35    36    1
    36    36    37    1
    37    37    38    1
    38    38    39    1
    39    39    40    1
    40    39    41    1
    41    38    42    1
    42    42    43    1
    43    33     4   ar
    44    43    35    1
    45    17     7   ar
    46    31    24   ar
    47     1    44    1
    48     1    45    1
    49     1    46    1
    50     2    47    1
    51     2    48    1
    52     5    49    1
    53     8    50    1
    54     9    51    1
    55    12    52    1
    56    12    53    1
    57    13    54    1
    58    13    55    1
    59    15    56    1
    60    15    57    1
    61    15    58    1
    62    16    59    1
    63    17    60    1
    64    18    61    1
    65    22    62    1
    66    23    63    1
    67    23    64    1
    68    26    65    1
    69    26    66    1
    70    26    67    1
    71    27    68    1
    72    29    69    1
    73    29    70    1
    74    29    71    1
    75    30    72    1
    76    34    73    1
    77    34    74    1
    78    34    75    1
    79    35    76    1
    80    36    77    1
    81    36    78    1
    82    37    79    1
    83    37    80    1
    84    38    81    1
    85    40    82    1
    86    40    83    1
    87    40    84    1
    88    41    85    1
    89    41    86    1
    90    41    87    1
    91    42    88    1
    92    42    89    1
    93    43    90    1
    94    43    91    1
