
     RDKit          3D

 91 94  0  0  0  0  0  0  0  0999 V2000
   -0.9678   -1.8342   -2.7483 C   0  0  0  0  0  0  0  0  0  0  0  0
   -1.3229   -2.7715   -1.6186 C   0  0  0  0  0  0  0  0  0  0  0  0
   -1.0242   -2.2092   -0.3193 N   0  0  0  0  0  0  0  0  0  0  0  0
   -0.2793   -0.9881   -0.3691 C   0  0  0  0  0  0  0  0  0  0  0  0
   -0.8933    0.2262   -0.2251 C   0  0  0  0  0  0  0  0  0  0  0  0
   -0.1911    1.4245   -0.3095 C   0  0  0  0  0  0  0  0  0  0  0  0
   -0.8771    2.6875   -0.0901 C   0  0  0  0  0  0  0  0  0  0  0  0
   -1.9119    2.7497    0.8191 C   0  0  0  0  0  0  0  0  0  0  0  0
   -2.6080    3.9087    1.0840 C   0  0  0  0  0  0  0  0  0  0  0  0
   -2.2687    5.0459    0.4264 C   0  0  0  0  0  0  0  0  0  0  0  0
   -2.9655    6.2456    0.6885 O   0  0  0  0  0  0  0  0  0  0  0  0
   -2.6154    7.4135   -0.0237 C   0  0  0  0  0  0  0  0  0  0  0  0
   -3.4437    8.5531    0.4596 C   0  0  0  0  0  0  0  0  0  0  0  0
   -4.7812    8.3985    0.3330 O   0  0  0  0  0  0  0  0  0  0  0  0
   -5.3175    8.1963   -0.9138 C   0  0  0  0  0  0  0  0  0  0  0  0
   -1.2324    5.0271   -0.4995 C   0  0  0  0  0  0  0  0  0  0  0  0
   -0.5345    3.8366   -0.7563 C   0  0  0  0  0  0  0  0  0  0  0  0
    1.1483    1.3243   -0.5473 C   0  0  0  0  0  0  0  0  0  0  0  0
    1.8099    0.0892   -0.6993 C   0  0  0  0  0  0  0  0  0  0  0  0
    3.2518    0.1756   -0.9003 C   0  0  0  0  0  0  0  0  0  0  0  0
    3.8872    0.9173   -0.1225 O   0  0  0  0  0  0  0  0  0  0  0  0
    3.9255   -0.5246   -1.9046 N   0  0  0  0  0  0  0  0  0  0  0  0
    5.3252   -0.5275   -2.2174 C   0  0  0  0  0  0  0  0  0  0  0  0
    6.2441   -0.7861   -1.1109 C   0  0  0  0  0  0  0  0  0  0  0  0
    6.8678    0.1540   -0.3368 C   0  0  0  0  0  0  0  0  0  0  0  0
    6.8109    1.5928   -0.6989 C   0  0  0  0  0  0  0  0  0  0  0  0
    7.6466   -0.2189    0.7727 C   0  0  0  0  0  0  0  0  0  0  0  0
    7.7936   -1.5397    1.0949 C   0  0  0  0  0  0  0  0  0  0  0  0
    8.6120   -1.9489    2.2749 C   0  0  0  0  0  0  0  0  0  0  0  0
    7.1755   -2.4468    0.3212 N   0  0  0  0  0  0  0  0  0  0  0  0
    6.4289   -2.1248   -0.7395 C   0  0  0  0  0  0  0  0  0  0  0  0
    5.8632   -3.0276   -1.4419 O   0  0  0  0  0  0  0  0  0  0  0  0
    1.0921   -1.0756   -0.6085 C   0  0  0  0  0  0  0  0  0  0  0  0
    1.7734   -2.3622   -0.7345 C   0  0  0  0  0  0  0  0  0  0  0  0
   -1.3522   -2.7405    0.9566 C   0  0  1  0  0  0  0  0  0  0  0  0
   -2.4651   -2.0572    1.7061 C   0  0  0  0  0  0  0  0  0  0  0  0
   -3.7988   -2.2020    1.1045 C   0  0  0  0  0  0  0  0  0  0  0  0
   -4.1326   -3.5810    0.5987 C   0  0  2  0  0  0  0  0  0  0  0  0
   -5.4546   -3.9987    0.9924 N   0  0  0  0  0  0  0  0  0  0  0  0
   -5.7214   -5.3308    0.5217 C   0  0  0  0  0  0  0  0  0  0  0  0
   -5.8120   -3.8681    2.3452 C   0  0  0  0  0  0  0  0  0  0  0  0
   -3.0691   -4.5998    0.7072 C   0  0  0  0  0  0  0  0  0  0  0  0
   -1.6878   -4.2078    0.9764 C   0  0  0  0  0  0  0  0  0  0  0  0
   -1.2056   -0.7651   -2.4835 H   0  0  0  0  0  0  0  0  0  0  0  0
   -1.5384   -2.0950   -3.6784 H   0  0  0  0  0  0  0  0  0  0  0  0
    0.0854   -1.8452   -3.0517 H   0  0  0  0  0  0  0  0  0  0  0  0
   -2.3254   -3.1293   -1.7750 H   0  0  0  0  0  0  0  0  0  0  0  0
   -0.6559   -3.6790   -1.7954 H   0  0  0  0  0  0  0  0  0  0  0  0
   -1.9567    0.3309   -0.0489 H   0  0  0  0  0  0  0  0  0  0  0  0
   -2.1840    1.8462    1.3387 H   0  0  0  0  0  0  0  0  0  0  0  0
   -3.4170    3.9006    1.8169 H   0  0  0  0  0  0  0  0  0  0  0  0
   -1.5561    7.6551    0.0513 H   0  0  0  0  0  0  0  0  0  0  0  0
   -2.8808    7.2116   -1.1026 H   0  0  0  0  0  0  0  0  0  0  0  0
   -3.1021    9.4903   -0.0489 H   0  0  0  0  0  0  0  0  0  0  0  0
   -3.2368    8.7129    1.5498 H   0  0  0  0  0  0  0  0  0  0  0  0
   -5.1201    9.0193   -1.6407 H   0  0  0  0  0  0  0  0  0  0  0  0
   -5.0103    7.1942   -1.2884 H   0  0  0  0  0  0  0  0  0  0  0  0
   -6.4538    8.1809   -0.8117 H   0  0  0  0  0  0  0  0  0  0  0  0
   -0.9857    5.9236   -1.0005 H   0  0  0  0  0  0  0  0  0  0  0  0
    0.2645    3.8014   -1.4650 H   0  0  0  0  0  0  0  0  0  0  0  0
    1.7191    2.2487   -0.6197 H   0  0  0  0  0  0  0  0  0  0  0  0
    3.2893   -1.1382   -2.5336 H   0  0  0  0  0  0  0  0  0  0  0  0
    5.6253    0.3606   -2.8193 H   0  0  0  0  0  0  0  0  0  0  0  0
    5.4795   -1.3929   -2.9480 H   0  0  0  0  0  0  0  0  0  0  0  0
    6.2634    2.1619    0.0554 H   0  0  0  0  0  0  0  0  0  0  0  0
    7.8931    1.9493   -0.6370 H   0  0  0  0  0  0  0  0  0  0  0  0
    6.4724    1.7662   -1.7278 H   0  0  0  0  0  0  0  0  0  0  0  0
    8.1155    0.5843    1.3463 H   0  0  0  0  0  0  0  0  0  0  0  0
    9.5558   -1.3732    2.1953 H   0  0  0  0  0  0  0  0  0  0  0  0
    8.1230   -1.6102    3.2196 H   0  0  0  0  0  0  0  0  0  0  0  0
    8.7773   -3.0336    2.2545 H   0  0  0  0  0  0  0  0  0  0  0  0
    7.2841   -3.4627    0.5645 H   0  0  0  0  0  0  0  0  0  0  0  0
    1.8013   -2.7343   -1.7739 H   0  0  0  0  0  0  0  0  0  0  0  0
    1.3305   -3.1590   -0.0867 H   0  0  0  0  0  0  0  0  0  0  0  0
    2.8274   -2.2629   -0.4046 H   0  0  0  0  0  0  0  0  0  0  0  0
   -0.4407   -2.6195    1.5924 H   0  0  0  0  0  0  0  0  0  0  0  0
   -2.4201   -2.4593    2.7704 H   0  0  0  0  0  0  0  0  0  0  0  0
   -2.2054   -0.9959    1.8266 H   0  0  0  0  0  0  0  0  0  0  0  0
   -3.9469   -1.4071    0.3461 H   0  0  0  0  0  0  0  0  0  0  0  0
   -4.5737   -1.9822    1.8984 H   0  0  0  0  0  0  0  0  0  0  0  0
   -4.2708   -3.4344   -0.5263 H   0  0  0  0  0  0  0  0  0  0  0  0
   -5.1415   -5.6112   -0.3669 H   0  0  0  0  0  0  0  0  0  0  0  0
   -5.5440   -6.1069    1.3229 H   0  0  0  0  0  0  0  0  0  0  0  0
   -6.8359   -5.3914    0.3667 H   0  0  0  0  0  0  0  0  0  0  0  0
   -6.6205   -4.6381    2.5516 H   0  0  0  0  0  0  0  0  0  0  0  0
   -5.0055   -4.1246    3.0656 H   0  0  0  0  0  0  0  0  0  0  0  0
   -6.3188   -2.9133    2.6029 H   0  0  0  0  0  0  0  0  0  0  0  0
   -3.0738   -5.2969   -0.1972 H   0  0  0  0  0  0  0  0  0  0  0  0
   -3.4105   -5.3193    1.5241 H   0  0  0  0  0  0  0  0  0  0  0  0
   -0.9978   -4.7935    0.3051 H   0  0  0  0  0  0  0  0  0  0  0  0
   -1.4005   -4.5582    2.0193 H   0  0  0  0  0  0  0  0  0  0  0  0
  1  2  1  0
  2  3  1  0
  3  4  1  0
  4  5  2  0
  5  6  1  0
  6  7  1  0
  7  8  2  0
  8  9  1  0
  9 10  2  0
 10 11  1  0
 11 12  1  0
 12 13  1  0
 13 14  1  0
 14 15  1  0
 10 16  1  0
 16 17  2  0
  6 18  2  0
 18 19  1  0
 19 20  1  0
 20 21  2  0
 20 22  1  0
 22 23  1  0
 23 24  1  0
 24 25  2  0
 25 26  1  0
 25 27  1  0
 27 28  2  0
 28 29  1  0
 28 30  1  0
 30 31  1  0
 31 32  2  0
 19 33  2  0
 33 34  1  0
  3 35  1  0
 35 36  1  0
 36 37  1  0
 37 38  1  0
 38 39  1  0
 39 40  1  0
 39 41  1  0
 38 42  1  0
 42 43  1  0
 33  4  1  0
 43 35  1  0
 17  7  1  0
 31 24  1  0
  1 44  1  0
  1 45  1  0
  1 46  1  0
  2 47  1  0
  2 48  1  0
  5 49  1  0
  8 50  1  0
  9 51  1  0
 12 52  1  0
 12 53  1  0
 13 54  1  0
 13 55  1  0
 15 56  1  0
 15 57  1  0
 15 58  1  0
 16 59  1  0
 17 60  1  0
 18 61  1  0
 22 62  1  0
 23 63  1  0
 23 64  1  0
 26 65  1  0
 26 66  1  0
 26 67  1  0
 27 68  1  0
 29 69  1  0
 29 70  1  0
 29 71  1  0
 30 72  1  0
 34 73  1  0
 34 74  1  0
 34 75  1  0
 35 76  1  1
 36 77  1  0
 36 78  1  0
 37 79  1  0
 37 80  1  0
 38 81  1  6
 40 82  1  0
 40 83  1  0
 40 84  1  0
 41 85  1  0
 41 86  1  0
 41 87  1  0
 42 88  1  0
 42 89  1  0
 43 90  1  0
 43 91  1  0
M  END
$$$$
