
     RDKit          3D

 38 40  0  0  0  0  0  0  0  0999 V2000
    5.6701   -1.9781    0.1517 C   0  0  0  0  0  0  0  0  0  0  0  0
    4.2730   -1.4561    0.2628 C   0  0  0  0  0  0  0  0  0  0  0  0
    3.3151   -1.5134   -0.7234 C   0  0  0  0  0  0  0  0  0  0  0  0
    2.1500   -0.9135   -0.2505 C   0  0  0  0  0  0  0  0  0  0  0  0
    0.9540   -0.7669   -0.9985 N   0  0  0  0  0  0  0  0  0  0  0  0
   -0.1917   -0.1071   -0.5380 C   0  0  0  0  0  0  0  0  0  0  0  0
   -1.3395   -0.7261   -0.2705 N   0  0  0  0  0  0  0  0  0  0  0  0
   -2.3938   -0.0664    0.1527 N   0  0  0  0  0  0  0  0  0  0  0  0
   -3.6187   -0.7880    0.4096 C   0  0  0  0  0  0  0  0  0  0  0  0
   -3.9800   -1.4875   -0.9015 C   0  0  0  0  0  0  0  0  0  0  0  0
   -3.4357   -1.7459    1.5414 C   0  0  0  0  0  0  0  0  0  0  0  0
   -2.3987    1.2659    0.3458 C   0  0  0  0  0  0  0  0  0  0  0  0
   -3.4256    1.8470    0.7491 O   0  0  0  0  0  0  0  0  0  0  0  0
   -1.2477    1.9588    0.0881 C   0  0  0  0  0  0  0  0  0  0  0  0
   -1.2370    3.3374    0.2877 C   0  0  0  0  0  0  0  0  0  0  0  0
   -0.0590    4.0007    0.0213 C   0  0  0  0  0  0  0  0  0  0  0  0
    1.0567    3.3295   -0.4224 C   0  0  0  0  0  0  0  0  0  0  0  0
    1.0457    1.9654   -0.6193 C   0  0  0  0  0  0  0  0  0  0  0  0
   -0.1413    1.2766   -0.3538 C   0  0  0  0  0  0  0  0  0  0  0  0
    2.4220   -0.5102    1.0047 N   0  0  0  0  0  0  0  0  0  0  0  0
    3.6880   -0.8379    1.2974 N   0  0  0  0  0  0  0  0  0  0  0  0
    6.0595   -1.8202   -0.8764 H   0  0  0  0  0  0  0  0  0  0  0  0
    6.2892   -1.4918    0.9383 H   0  0  0  0  0  0  0  0  0  0  0  0
    5.6447   -3.0555    0.3470 H   0  0  0  0  0  0  0  0  0  0  0  0
    3.4051   -1.9473   -1.7169 H   0  0  0  0  0  0  0  0  0  0  0  0
    0.8893   -1.1710   -1.9751 H   0  0  0  0  0  0  0  0  0  0  0  0
   -4.4642   -0.0810    0.6300 H   0  0  0  0  0  0  0  0  0  0  0  0
   -3.7347   -0.7347   -1.7063 H   0  0  0  0  0  0  0  0  0  0  0  0
   -3.4321   -2.4177   -1.0292 H   0  0  0  0  0  0  0  0  0  0  0  0
   -5.0802   -1.5790   -0.9266 H   0  0  0  0  0  0  0  0  0  0  0  0
   -4.4027   -2.0824    1.9803 H   0  0  0  0  0  0  0  0  0  0  0  0
   -2.8872   -2.6488    1.2106 H   0  0  0  0  0  0  0  0  0  0  0  0
   -2.8809   -1.2375    2.3560 H   0  0  0  0  0  0  0  0  0  0  0  0
   -2.1204    3.8620    0.6376 H   0  0  0  0  0  0  0  0  0  0  0  0
   -0.0161    5.0732    0.1645 H   0  0  0  0  0  0  0  0  0  0  0  0
    1.9906    3.8347   -0.6377 H   0  0  0  0  0  0  0  0  0  0  0  0
    1.9043    1.4279   -0.9653 H   0  0  0  0  0  0  0  0  0  0  0  0
    1.7298   -0.0148    1.6412 H   0  0  0  0  0  0  0  0  0  0  0  0
  1  2  1  0
  2  3  1  0
  3  4  2  0
  4  5  1  0
  5  6  1  0
  6  7  2  0
  7  8  1  0
  8  9  1  0
  9 10  1  0
  9 11  1  0
  8 12  1  0
 12 13  2  0
 12 14  1  0
 14 15  2  0
 15 16  1  0
 16 17  2  0
 17 18  1  0
 18 19  2  0
  4 20  1  0
 20 21  1  0
 21  2  2  0
 19  6  1  0
 19 14  1  0
  1 22  1  0
  1 23  1  0
  1 24  1  0
  3 25  1  0
  5 26  1  0
  9 27  1  0
 10 28  1  0
 10 29  1  0
 10 30  1  0
 11 31  1  0
 11 32  1  0
 11 33  1  0
 15 34  1  0
 16 35  1  0
 17 36  1  0
 18 37  1  0
 20 38  1  0
M  END
$$$$
