@<TRIPOS>MOLECULE
*****
 38 40 0 0 0
SMALL
GASTEIGER

@<TRIPOS>ATOM
      1 C           5.6701   -1.9781    0.1517 C.3     1  UNL1       -0.0206
      2 C           4.2730   -1.4561    0.2628 C.ar    1  UNL1        0.0616
      3 C           3.3151   -1.5134   -0.7234 C.ar    1  UNL1        0.0006
      4 C           2.1500   -0.9135   -0.2505 C.ar    1  UNL1        0.1196
      5 N           0.9540   -0.7669   -0.9985 N.pl3   1  UNL1       -0.2829
      6 C          -0.1917   -0.1071   -0.5380 C.ar    1  UNL1        0.1525
      7 N          -1.3395   -0.7261   -0.2705 N.ar    1  UNL1       -0.1521
      8 N          -2.3938   -0.0664    0.1527 N.ar    1  UNL1       -0.2247
      9 C          -3.6187   -0.7880    0.4096 C.3     1  UNL1        0.0509
     10 C          -3.9800   -1.4875   -0.9015 C.3     1  UNL1       -0.0427
     11 C          -3.4357   -1.7459    1.5414 C.3     1  UNL1       -0.0427
     12 C          -2.3987    1.2659    0.3458 C.ar    1  UNL1        0.2753
     13 O          -3.4256    1.8470    0.7491 O.2     1  UNL1       -0.2655
     14 C          -1.2477    1.9588    0.0881 C.ar    1  UNL1        0.0514
     15 C          -1.2370    3.3374    0.2877 C.ar    1  UNL1       -0.0487
     16 C          -0.0590    4.0007    0.0213 C.ar    1  UNL1       -0.0610
     17 C           1.0567    3.3295   -0.4224 C.ar    1  UNL1       -0.0611
     18 C           1.0457    1.9654   -0.6193 C.ar    1  UNL1       -0.0505
     19 C          -0.1413    1.2766   -0.3538 C.ar    1  UNL1        0.0291
     20 N           2.4220   -0.5102    1.0047 N.ar    1  UNL1       -0.2637
     21 N           3.6880   -0.8379    1.2974 N.ar    1  UNL1       -0.1775
     22 H           6.0595   -1.8202   -0.8764 H       1  UNL1        0.0293
     23 H           6.2892   -1.4918    0.9383 H       1  UNL1        0.0293
     24 H           5.6447   -3.0555    0.3470 H       1  UNL1        0.0293
     25 H           3.4051   -1.9473   -1.7169 H       1  UNL1        0.0670
     26 H           0.8893   -1.1710   -1.9751 H       1  UNL1        0.1550
     27 H          -4.4642   -0.0810    0.6300 H       1  UNL1        0.0540
     28 H          -3.7347   -0.7347   -1.7063 H       1  UNL1        0.0250
     29 H          -3.4321   -2.4177   -1.0292 H       1  UNL1        0.0250
     30 H          -5.0802   -1.5790   -0.9266 H       1  UNL1        0.0250
     31 H          -4.4027   -2.0824    1.9803 H       1  UNL1        0.0250
     32 H          -2.8872   -2.6488    1.2106 H       1  UNL1        0.0250
     33 H          -2.8809   -1.2375    2.3560 H       1  UNL1        0.0250
     34 H          -2.1204    3.8620    0.6376 H       1  UNL1        0.0625
     35 H          -0.0161    5.0732    0.1645 H       1  UNL1        0.0618
     36 H           1.9906    3.8347   -0.6377 H       1  UNL1        0.0618
     37 H           1.9043    1.4279   -0.9653 H       1  UNL1        0.0625
     38 H           1.7298   -0.0148    1.6412 H       1  UNL1        0.1903
@<TRIPOS>BOND
     1     1     2    1
     2     2     3   ar
     3     3     4   ar
     4     4     5    1
     5     5     6    1
     6     6     7   ar
     7     7     8   ar
     8     8     9    1
     9     9    10    1
    10     9    11    1
    11     8    12   ar
    12    12    13    2
    13    12    14   ar
    14    14    15   ar
    15    15    16   ar
    16    16    17   ar
    17    17    18   ar
    18    18    19   ar
    19     4    20   ar
    20    20    21   ar
    21    21     2   ar
    22    19     6   ar
    23    19    14   ar
    24     1    22    1
    25     1    23    1
    26     1    24    1
    27     3    25    1
    28     5    26    1
    29     9    27    1
    30    10    28    1
    31    10    29    1
    32    10    30    1
    33    11    31    1
    34    11    32    1
    35    11    33    1
    36    15    34    1
    37    16    35    1
    38    17    36    1
    39    18    37    1
    40    20    38    1
