
     RDKit          3D

 92 98  0  0  0  0  0  0  0  0999 V2000
    0.4019    5.6612    2.1083 C   0  0  0  0  0  0  0  0  0  0  0  0
   -0.5091    4.9730    1.1477 C   0  0  0  0  0  0  0  0  0  0  0  0
   -0.7651    3.6253    1.2707 C   0  0  0  0  0  0  0  0  0  0  0  0
   -1.6090    2.9868    0.3819 C   0  0  0  0  0  0  0  0  0  0  0  0
   -1.9028    1.5409    0.4902 C   0  0  0  0  0  0  0  0  0  0  0  0
   -0.8699    0.7602   -0.3392 C   0  0  1  0  0  0  0  0  0  0  0  0
    0.4410    1.0952    0.2535 N   0  0  0  0  0  0  0  0  0  0  0  0
    1.4630    1.7167   -0.4922 C   0  0  0  0  0  0  0  0  0  0  0  0
    1.2425    1.9951   -1.7152 O   0  0  0  0  0  0  0  0  0  0  0  0
    2.7156    2.0435    0.0516 N   0  0  0  0  0  0  0  0  0  0  0  0
    3.1298    1.8071    1.4139 C   0  0  0  0  0  0  0  0  0  0  0  0
    4.3888    0.9649    1.4562 C   0  0  0  0  0  0  0  0  0  0  0  0
    4.7600    0.6390    0.0223 C   0  0  0  0  0  0  0  0  0  0  0  0
    5.8817   -0.3083   -0.0200 N   0  0  0  0  0  0  0  0  0  0  0  0
    5.6189   -1.5784   -0.5859 C   0  0  0  0  0  0  0  0  0  0  0  0
    6.7517   -2.5155   -0.5760 C   0  0  0  0  0  0  0  0  0  0  0  0
    6.5442   -3.8196   -1.1067 C   0  0  0  0  0  0  0  0  0  0  0  0
    7.5639   -4.7289   -1.1286 C   0  0  0  0  0  0  0  0  0  0  0  0
    8.8040   -4.3825   -0.6332 C   0  0  0  0  0  0  0  0  0  0  0  0
    8.9974   -3.1163   -0.1202 C   0  0  0  0  0  0  0  0  0  0  0  0
   10.2054   -2.7303    0.3799 F   0  0  0  0  0  0  0  0  0  0  0  0
    7.9755   -2.1701   -0.0855 C   0  0  0  0  0  0  0  0  0  0  0  0
    8.2054   -0.8733    0.4592 N   0  0  0  0  0  0  0  0  0  0  0  0
    7.1428    0.0610    0.4882 C   0  0  0  0  0  0  0  0  0  0  0  0
    7.3140    1.2087    0.9602 O   0  0  0  0  0  0  0  0  0  0  0  0
    5.0314    1.9016   -0.7247 C   0  0  0  0  0  0  0  0  0  0  0  0
    3.7201    2.6768   -0.8082 C   0  0  0  0  0  0  0  0  0  0  0  0
   -1.0830   -0.7004   -0.1783 C   0  0  0  0  0  0  0  0  0  0  0  0
   -0.2429   -1.3443    0.5188 O   0  0  0  0  0  0  0  0  0  0  0  0
   -2.1638   -1.3836   -0.7621 N   0  0  0  0  0  0  0  0  0  0  0  0
   -3.1423   -0.7581   -1.5986 C   0  0  0  0  0  0  0  0  0  0  0  0
   -4.5558   -0.9542   -1.0240 C   0  0  0  0  0  0  0  0  0  0  0  0
   -4.7205   -2.4503   -0.9080 C   0  0  0  0  0  0  0  0  0  0  0  0
   -6.0322   -2.7817   -0.5184 N   0  0  0  0  0  0  0  0  0  0  0  0
   -6.3664   -4.1270   -0.3608 C   0  0  0  0  0  0  0  0  0  0  0  0
   -6.8783   -4.3316    1.0717 C   0  0  0  0  0  0  0  0  0  0  0  0
   -8.2098   -3.6122    1.1475 C   0  0  0  0  0  0  0  0  0  0  0  0
   -8.2258   -2.3641    0.3046 C   0  0  0  0  0  0  0  0  0  0  0  0
   -6.8198   -1.8037    0.1052 C   0  0  0  0  0  0  0  0  0  0  0  0
   -3.7269   -2.9525    0.1156 C   0  0  0  0  0  0  0  0  0  0  0  0
   -2.3332   -2.8062   -0.5126 C   0  0  0  0  0  0  0  0  0  0  0  0
   -2.2282    3.6682   -0.6619 C   0  0  0  0  0  0  0  0  0  0  0  0
   -1.9641    5.0159   -0.7742 C   0  0  0  0  0  0  0  0  0  0  0  0
   -2.4125    5.9620   -1.6839 C   0  0  0  0  0  0  0  0  0  0  0  0
   -1.8609    7.1215   -1.3552 N   0  0  0  0  0  0  0  0  0  0  0  0
   -1.0814    6.9586   -0.2779 N   0  0  0  0  0  0  0  0  0  0  0  0
   -1.1187    5.6656    0.1128 C   0  0  0  0  0  0  0  0  0  0  0  0
    0.0939    6.7375    2.1692 H   0  0  0  0  0  0  0  0  0  0  0  0
    1.4310    5.5505    1.7002 H   0  0  0  0  0  0  0  0  0  0  0  0
    0.2762    5.1585    3.0904 H   0  0  0  0  0  0  0  0  0  0  0  0
   -0.2872    3.0811    2.0824 H   0  0  0  0  0  0  0  0  0  0  0  0
   -2.9164    1.2542    0.1799 H   0  0  0  0  0  0  0  0  0  0  0  0
   -1.8030    1.2086    1.5629 H   0  0  0  0  0  0  0  0  0  0  0  0
   -0.8778    1.0917   -1.3755 H   0  0  0  0  0  0  0  0  0  0  0  0
    0.5660    0.8475    1.2453 H   0  0  0  0  0  0  0  0  0  0  0  0
    3.3313    2.8325    1.8452 H   0  0  0  0  0  0  0  0  0  0  0  0
    2.3154    1.3908    2.0247 H   0  0  0  0  0  0  0  0  0  0  0  0
    5.2084    1.4984    1.9666 H   0  0  0  0  0  0  0  0  0  0  0  0
    4.1503    0.0243    1.9772 H   0  0  0  0  0  0  0  0  0  0  0  0
    3.8861    0.1428   -0.4251 H   0  0  0  0  0  0  0  0  0  0  0  0
    5.2788   -1.4028   -1.6673 H   0  0  0  0  0  0  0  0  0  0  0  0
    4.7152   -2.0750   -0.1239 H   0  0  0  0  0  0  0  0  0  0  0  0
    5.5429   -4.0536   -1.4904 H   0  0  0  0  0  0  0  0  0  0  0  0
    7.3731   -5.7302   -1.5451 H   0  0  0  0  0  0  0  0  0  0  0  0
    9.5930   -5.1105   -0.6594 H   0  0  0  0  0  0  0  0  0  0  0  0
    9.1510   -0.6558    0.8188 H   0  0  0  0  0  0  0  0  0  0  0  0
    5.3591    1.7169   -1.7590 H   0  0  0  0  0  0  0  0  0  0  0  0
    5.7426    2.5300   -0.1512 H   0  0  0  0  0  0  0  0  0  0  0  0
    3.8381    3.7116   -0.3865 H   0  0  0  0  0  0  0  0  0  0  0  0
    3.3303    2.6892   -1.8286 H   0  0  0  0  0  0  0  0  0  0  0  0
   -2.9467    0.2554   -1.9231 H   0  0  0  0  0  0  0  0  0  0  0  0
   -3.1643   -1.3939   -2.5458 H   0  0  0  0  0  0  0  0  0  0  0  0
   -5.2399   -0.4870   -1.7329 H   0  0  0  0  0  0  0  0  0  0  0  0
   -4.5407   -0.4902   -0.0174 H   0  0  0  0  0  0  0  0  0  0  0  0
   -4.4505   -2.9140   -1.8833 H   0  0  0  0  0  0  0  0  0  0  0  0
   -7.2525   -4.3854   -1.0098 H   0  0  0  0  0  0  0  0  0  0  0  0
   -5.5208   -4.7834   -0.5717 H   0  0  0  0  0  0  0  0  0  0  0  0
   -6.1711   -3.7602    1.7187 H   0  0  0  0  0  0  0  0  0  0  0  0
   -6.9457   -5.3824    1.3471 H   0  0  0  0  0  0  0  0  0  0  0  0
   -8.9609   -4.3111    0.7071 H   0  0  0  0  0  0  0  0  0  0  0  0
   -8.5282   -3.4336    2.1937 H   0  0  0  0  0  0  0  0  0  0  0  0
   -8.8851   -1.6278    0.8043 H   0  0  0  0  0  0  0  0  0  0  0  0
   -8.6883   -2.5492   -0.6963 H   0  0  0  0  0  0  0  0  0  0  0  0
   -6.9437   -0.8507   -0.4346 H   0  0  0  0  0  0  0  0  0  0  0  0
   -6.4496   -1.5366    1.1263 H   0  0  0  0  0  0  0  0  0  0  0  0
   -3.7134   -2.2843    1.0071 H   0  0  0  0  0  0  0  0  0  0  0  0
   -3.9058   -3.9954    0.4037 H   0  0  0  0  0  0  0  0  0  0  0  0
   -2.4170   -3.3241   -1.5020 H   0  0  0  0  0  0  0  0  0  0  0  0
   -1.5524   -3.2323    0.1256 H   0  0  0  0  0  0  0  0  0  0  0  0
   -2.8860    3.1629   -1.3512 H   0  0  0  0  0  0  0  0  0  0  0  0
   -3.0953    5.7304   -2.5012 H   0  0  0  0  0  0  0  0  0  0  0  0
   -0.5171    7.6990    0.2100 H   0  0  0  0  0  0  0  0  0  0  0  0
  1  2  1  0
  2  3  2  0
  3  4  1  0
  4  5  1  0
  5  6  1  0
  6  7  1  0
  7  8  1  0
  8  9  2  0
  8 10  1  0
 10 11  1  0
 11 12  1  0
 12 13  1  0
 13 14  1  0
 14 15  1  0
 15 16  1  0
 16 17  2  0
 17 18  1  0
 18 19  2  0
 19 20  1  0
 20 21  1  0
 20 22  2  0
 22 23  1  0
 23 24  1  0
 24 25  2  0
 13 26  1  0
 26 27  1  0
  6 28  1  0
 28 29  2  0
 28 30  1  0
 30 31  1  0
 31 32  1  0
 32 33  1  0
 33 34  1  0
 34 35  1  0
 35 36  1  0
 36 37  1  0
 37 38  1  0
 38 39  1  0
 33 40  1  0
 40 41  1  0
  4 42  2  0
 42 43  1  0
 43 44  1  0
 44 45  2  0
 45 46  1  0
 46 47  1  0
 47  2  1  0
 27 10  1  0
 41 30  1  0
 47 43  2  0
 24 14  1  0
 39 34  1  0
 22 16  1  0
  1 48  1  0
  1 49  1  0
  1 50  1  0
  3 51  1  0
  5 52  1  0
  5 53  1  0
  6 54  1  6
  7 55  1  0
 11 56  1  0
 11 57  1  0
 12 58  1  0
 12 59  1  0
 13 60  1  0
 15 61  1  0
 15 62  1  0
 17 63  1  0
 18 64  1  0
 19 65  1  0
 23 66  1  0
 26 67  1  0
 26 68  1  0
 27 69  1  0
 27 70  1  0
 31 71  1  0
 31 72  1  0
 32 73  1  0
 32 74  1  0
 33 75  1  0
 35 76  1  0
 35 77  1  0
 36 78  1  0
 36 79  1  0
 37 80  1  0
 37 81  1  0
 38 82  1  0
 38 83  1  0
 39 84  1  0
 39 85  1  0
 40 86  1  0
 40 87  1  0
 41 88  1  0
 41 89  1  0
 42 90  1  0
 44 91  1  0
 46 92  1  0
M  END
$$$$
