@<TRIPOS>MOLECULE
*****
 92 98 0 0 0
SMALL
GASTEIGER

@<TRIPOS>ATOM
      1 C           0.4019    5.6612    2.1083 C.3     1  UNL1       -0.0377
      2 C          -0.5091    4.9730    1.1477 C.ar    1  UNL1       -0.0248
      3 C          -0.7651    3.6253    1.2707 C.ar    1  UNL1       -0.0536
      4 C          -1.6090    2.9868    0.3819 C.ar    1  UNL1       -0.0442
      5 C          -1.9028    1.5409    0.4902 C.3     1  UNL1       -0.0006
      6 C          -0.8699    0.7602   -0.3392 C.3     1  UNL1        0.1049
      7 N           0.4410    1.0952    0.2535 N.am    1  UNL1       -0.2876
      8 C           1.4630    1.7167   -0.4922 C.2     1  UNL1        0.3028
      9 O           1.2425    1.9951   -1.7152 O.2     1  UNL1       -0.2526
     10 N           2.7156    2.0435    0.0516 N.am    1  UNL1       -0.2855
     11 C           3.1298    1.8071    1.4139 C.3     1  UNL1        0.0178
     12 C           4.3888    0.9649    1.4562 C.3     1  UNL1       -0.0183
     13 C           4.7600    0.6390    0.0223 C.3     1  UNL1        0.0307
     14 N           5.8817   -0.3083   -0.0200 N.am    1  UNL1       -0.2778
     15 C           5.6189   -1.5784   -0.5859 C.3     1  UNL1        0.0433
     16 C           6.7517   -2.5155   -0.5760 C.ar    1  UNL1       -0.0060
     17 C           6.5442   -3.8196   -1.1067 C.ar    1  UNL1       -0.0551
     18 C           7.5639   -4.7289   -1.1286 C.ar    1  UNL1       -0.0586
     19 C           8.8040   -4.3825   -0.6332 C.ar    1  UNL1       -0.0246
     20 C           8.9974   -3.1163   -0.1202 C.ar    1  UNL1        0.1448
     21 F          10.2054   -2.7303    0.3799 F       1  UNL1       -0.2035
     22 C           7.9755   -2.1701   -0.0855 C.ar    1  UNL1        0.0749
     23 N           8.2054   -0.8733    0.4592 N.am    1  UNL1       -0.2665
     24 C           7.1428    0.0610    0.4882 C.2     1  UNL1        0.3071
     25 O           7.3140    1.2087    0.9602 O.2     1  UNL1       -0.2523
     26 C           5.0314    1.9016   -0.7247 C.3     1  UNL1       -0.0183
     27 C           3.7201    2.6768   -0.8082 C.3     1  UNL1        0.0178
     28 C          -1.0830   -0.7004   -0.1783 C.2     1  UNL1        0.2363
     29 O          -0.2429   -1.3443    0.5188 O.2     1  UNL1       -0.2736
     30 N          -2.1638   -1.3836   -0.7621 N.am    1  UNL1       -0.2998
     31 C          -3.1423   -0.7581   -1.5986 C.3     1  UNL1        0.0161
     32 C          -4.5558   -0.9542   -1.0240 C.3     1  UNL1       -0.0214
     33 C          -4.7205   -2.4503   -0.9080 C.3     1  UNL1        0.0133
     34 N          -6.0322   -2.7817   -0.5184 N.3     1  UNL1       -0.2993
     35 C          -6.3664   -4.1270   -0.3608 C.3     1  UNL1       -0.0008
     36 C          -6.8783   -4.3316    1.0717 C.3     1  UNL1       -0.0402
     37 C          -8.2098   -3.6122    1.1475 C.3     1  UNL1       -0.0507
     38 C          -8.2258   -2.3641    0.3046 C.3     1  UNL1       -0.0402
     39 C          -6.8198   -1.8037    0.1052 C.3     1  UNL1       -0.0008
     40 C          -3.7269   -2.9525    0.1156 C.3     1  UNL1       -0.0214
     41 C          -2.3332   -2.8062   -0.5126 C.3     1  UNL1        0.0161
     42 C          -2.2282    3.6682   -0.6619 C.ar    1  UNL1       -0.0478
     43 C          -1.9641    5.0159   -0.7742 C.ar    1  UNL1        0.0200
     44 C          -2.4125    5.9620   -1.6839 C.ar    1  UNL1        0.0569
     45 N          -1.8609    7.1215   -1.3552 N.ar    1  UNL1       -0.1812
     46 N          -1.0814    6.9586   -0.2779 N.ar    1  UNL1       -0.2767
     47 C          -1.1187    5.6656    0.1128 C.ar    1  UNL1        0.0686
     48 H           0.0939    6.7375    2.1692 H       1  UNL1        0.0278
     49 H           1.4310    5.5505    1.7002 H       1  UNL1        0.0278
     50 H           0.2762    5.1585    3.0904 H       1  UNL1        0.0278
     51 H          -0.2872    3.0811    2.0824 H       1  UNL1        0.0624
     52 H          -2.9164    1.2542    0.1799 H       1  UNL1        0.0336
     53 H          -1.8030    1.2086    1.5629 H       1  UNL1        0.0336
     54 H          -0.8778    1.0917   -1.3755 H       1  UNL1        0.0598
     55 H           0.5660    0.8475    1.2453 H       1  UNL1        0.1510
     56 H           3.3313    2.8325    1.8452 H       1  UNL1        0.0465
     57 H           2.3154    1.3908    2.0247 H       1  UNL1        0.0465
     58 H           5.2084    1.4984    1.9666 H       1  UNL1        0.0298
     59 H           4.1503    0.0243    1.9772 H       1  UNL1        0.0298
     60 H           3.8861    0.1428   -0.4251 H       1  UNL1        0.0502
     61 H           5.2788   -1.4028   -1.6673 H       1  UNL1        0.0515
     62 H           4.7152   -2.0750   -0.1239 H       1  UNL1        0.0515
     63 H           5.5429   -4.0536   -1.4904 H       1  UNL1        0.0621
     64 H           7.3731   -5.7302   -1.5451 H       1  UNL1        0.0619
     65 H           9.5930   -5.1105   -0.6594 H       1  UNL1        0.0647
     66 H           9.1510   -0.6558    0.8188 H       1  UNL1        0.1565
     67 H           5.3591    1.7169   -1.7590 H       1  UNL1        0.0298
     68 H           5.7426    2.5300   -0.1512 H       1  UNL1        0.0298
     69 H           3.8381    3.7116   -0.3865 H       1  UNL1        0.0465
     70 H           3.3303    2.6892   -1.8286 H       1  UNL1        0.0465
     71 H          -2.9467    0.2554   -1.9231 H       1  UNL1        0.0465
     72 H          -3.1643   -1.3939   -2.5458 H       1  UNL1        0.0465
     73 H          -5.2399   -0.4870   -1.7329 H       1  UNL1        0.0295
     74 H          -4.5407   -0.4902   -0.0174 H       1  UNL1        0.0295
     75 H          -4.4505   -2.9140   -1.8833 H       1  UNL1        0.0463
     76 H          -7.2525   -4.3854   -1.0098 H       1  UNL1        0.0427
     77 H          -5.5208   -4.7834   -0.5717 H       1  UNL1        0.0427
     78 H          -6.1711   -3.7602    1.7187 H       1  UNL1        0.0278
     79 H          -6.9457   -5.3824    1.3471 H       1  UNL1        0.0278
     80 H          -8.9609   -4.3111    0.7071 H       1  UNL1        0.0266
     81 H          -8.5282   -3.4336    2.1937 H       1  UNL1        0.0266
     82 H          -8.8851   -1.6278    0.8043 H       1  UNL1        0.0278
     83 H          -8.6883   -2.5492   -0.6963 H       1  UNL1        0.0278
     84 H          -6.9437   -0.8507   -0.4346 H       1  UNL1        0.0427
     85 H          -6.4496   -1.5366    1.1263 H       1  UNL1        0.0427
     86 H          -3.7134   -2.2843    1.0071 H       1  UNL1        0.0295
     87 H          -3.9058   -3.9954    0.4037 H       1  UNL1        0.0295
     88 H          -2.4170   -3.3241   -1.5020 H       1  UNL1        0.0465
     89 H          -1.5524   -3.2323    0.1256 H       1  UNL1        0.0465
     90 H          -2.8860    3.1629   -1.3512 H       1  UNL1        0.0627
     91 H          -3.0953    5.7304   -2.5012 H       1  UNL1        0.0854
     92 H          -0.5171    7.6990    0.2100 H       1  UNL1        0.1889
@<TRIPOS>BOND
     1     1     2    1
     2     2     3   ar
     3     3     4   ar
     4     4     5    1
     5     5     6    1
     6     6     7    1
     7     7     8   am
     8     8     9    2
     9     8    10   am
    10    10    11    1
    11    11    12    1
    12    12    13    1
    13    13    14    1
    14    14    15    1
    15    15    16    1
    16    16    17   ar
    17    17    18   ar
    18    18    19   ar
    19    19    20   ar
    20    20    21    1
    21    20    22   ar
    22    22    23    1
    23    23    24   am
    24    24    25    2
    25    13    26    1
    26    26    27    1
    27     6    28    1
    28    28    29    2
    29    28    30   am
    30    30    31    1
    31    31    32    1
    32    32    33    1
    33    33    34    1
    34    34    35    1
    35    35    36    1
    36    36    37    1
    37    37    38    1
    38    38    39    1
    39    33    40    1
    40    40    41    1
    41     4    42   ar
    42    42    43   ar
    43    43    44   ar
    44    44    45   ar
    45    45    46   ar
    46    46    47   ar
    47    47     2   ar
    48    27    10    1
    49    41    30    1
    50    47    43   ar
    51    24    14   am
    52    39    34    1
    53    22    16   ar
    54     1    48    1
    55     1    49    1
    56     1    50    1
    57     3    51    1
    58     5    52    1
    59     5    53    1
    60     6    54    1
    61     7    55    1
    62    11    56    1
    63    11    57    1
    64    12    58    1
    65    12    59    1
    66    13    60    1
    67    15    61    1
    68    15    62    1
    69    17    63    1
    70    18    64    1
    71    19    65    1
    72    23    66    1
    73    26    67    1
    74    26    68    1
    75    27    69    1
    76    27    70    1
    77    31    71    1
    78    31    72    1
    79    32    73    1
    80    32    74    1
    81    33    75    1
    82    35    76    1
    83    35    77    1
    84    36    78    1
    85    36    79    1
    86    37    80    1
    87    37    81    1
    88    38    82    1
    89    38    83    1
    90    39    84    1
    91    39    85    1
    92    40    86    1
    93    40    87    1
    94    41    88    1
    95    41    89    1
    96    42    90    1
    97    44    91    1
    98    46    92    1
