@<TRIPOS>MOLECULE
*****
 56 58 0 0 0
SMALL
GASTEIGER

@<TRIPOS>ATOM
      1 C           0.7089    4.3061   -2.6827 C.3     1  UNL1        0.0043
      2 N           1.1417    3.1637   -1.8518 N.am    1  UNL1       -0.2916
      3 C           2.5557    3.0142   -1.6752 C.3     1  UNL1        0.0043
      4 C           0.1226    2.3267   -1.2818 C.2     1  UNL1        0.3055
      5 O          -1.0822    2.6970   -1.5354 O.2     1  UNL1       -0.2524
      6 N           0.3042    1.1989   -0.5105 N.am    1  UNL1       -0.2680
      7 C           1.5529    0.5067   -0.1300 C.3     1  UNL1        0.0428
      8 C           1.1576   -0.9108   -0.2569 C.2     1  UNL1       -0.0216
      9 C           2.1352   -1.9810   -0.5509 C.ar    1  UNL1        0.0173
     10 C           3.4862   -1.6911   -0.6974 C.ar    1  UNL1       -0.0163
     11 C           4.4441   -2.6456   -0.9766 C.ar    1  UNL1        0.1241
     12 F           5.7457   -2.2982   -1.1079 F       1  UNL1       -0.2055
     13 C           4.0820   -3.9604   -1.1241 C.ar    1  UNL1       -0.0237
     14 C           2.7531   -4.2720   -0.9837 C.ar    1  UNL1       -0.0231
     15 C           1.7847   -3.3000   -0.7006 C.ar    1  UNL1        0.1310
     16 F           0.4944   -3.6785   -0.5767 F       1  UNL1       -0.2049
     17 C          -0.1272   -1.0035   -0.0666 C.2     1  UNL1       -0.0509
     18 C          -0.6581    0.3548    0.2006 C.3     1  UNL1        0.0834
     19 C          -1.9935    0.6769   -0.2434 C.3     1  UNL1       -0.0219
     20 C          -3.2042    0.0153    0.2742 C.3     1  UNL1       -0.0299
     21 C          -3.3447   -1.4633    0.1057 C.3     1  UNL1        0.0662
     22 N          -3.2888   -1.7734   -1.3234 N.3     1  UNL1       -0.3228
     23 C          -4.8138   -1.8121    0.4826 C.3     1  UNL1        0.2541
     24 F          -5.0081   -3.1664    0.3472 F       1  UNL1       -0.2076
     25 F          -5.6803   -1.1586   -0.3569 F       1  UNL1       -0.2076
     26 C          -0.4038    0.5798    1.6603 C.ar    1  UNL1       -0.0200
     27 C          -0.6565   -0.4058    2.5680 C.ar    1  UNL1       -0.0562
     28 C          -0.4196   -0.1671    3.9058 C.ar    1  UNL1       -0.0614
     29 C           0.0672    1.0381    4.3693 C.ar    1  UNL1       -0.0617
     30 C           0.3051    1.9983    3.4093 C.ar    1  UNL1       -0.0614
     31 C           0.0791    1.7922    2.0666 C.ar    1  UNL1       -0.0562
     32 H          -0.2005    4.7623   -2.2125 H       1  UNL1        0.0429
     33 H           1.4844    5.1105   -2.6659 H       1  UNL1        0.0429
     34 H           0.4614    3.9682   -3.7037 H       1  UNL1        0.0429
     35 H           2.8720    2.8461   -0.6225 H       1  UNL1        0.0429
     36 H           3.0613    2.3393   -2.3719 H       1  UNL1        0.0429
     37 H           3.0417    4.0235   -1.9084 H       1  UNL1        0.0429
     38 H           1.9452    0.8111    0.8284 H       1  UNL1        0.0515
     39 H           2.2997    0.6380   -0.9748 H       1  UNL1        0.0515
     40 H           3.7728   -0.6478   -0.5764 H       1  UNL1        0.0653
     41 H           4.8157   -4.7355   -1.3445 H       1  UNL1        0.0647
     42 H           2.4286   -5.3030   -1.0933 H       1  UNL1        0.0647
     43 H          -0.6891   -1.9080   -0.1057 H       1  UNL1        0.0600
     44 H          -2.1618    1.7875    0.0268 H       1  UNL1        0.0293
     45 H          -2.0417    0.6524   -1.3485 H       1  UNL1        0.0293
     46 H          -4.0578    0.4383   -0.3536 H       1  UNL1        0.0283
     47 H          -3.5028    0.3574    1.2978 H       1  UNL1        0.0283
     48 H          -2.7563   -2.1011    0.7433 H       1  UNL1        0.0514
     49 H          -4.0066   -1.1822   -1.7984 H       1  UNL1        0.1186
     50 H          -3.5575   -2.7671   -1.5017 H       1  UNL1        0.1186
     51 H          -5.0134   -1.5074    1.5275 H       1  UNL1        0.1034
     52 H          -1.0491   -1.3999    2.2503 H       1  UNL1        0.0621
     53 H          -0.6222   -0.9546    4.6259 H       1  UNL1        0.0618
     54 H           0.2559    1.2272    5.4352 H       1  UNL1        0.0618
     55 H           0.6904    2.9589    3.7520 H       1  UNL1        0.0618
     56 H           0.2897    2.6049    1.3378 H       1  UNL1        0.0621
@<TRIPOS>BOND
     1     1     2    1
     2     2     3    1
     3     2     4   am
     4     4     5    2
     5     4     6   am
     6     6     7    1
     7     7     8    1
     8     8     9    1
     9     9    10   ar
    10    10    11   ar
    11    11    12    1
    12    11    13   ar
    13    13    14   ar
    14    14    15   ar
    15    15    16    1
    16     8    17    2
    17    17    18    1
    18    18    19    1
    19    19    20    1
    20    20    21    1
    21    21    22    1
    22    21    23    1
    23    23    24    1
    24    23    25    1
    25    18    26    1
    26    26    27   ar
    27    27    28   ar
    28    28    29   ar
    29    29    30   ar
    30    30    31   ar
    31    18     6    1
    32    31    26   ar
    33    15     9   ar
    34     1    32    1
    35     1    33    1
    36     1    34    1
    37     3    35    1
    38     3    36    1
    39     3    37    1
    40     7    38    1
    41     7    39    1
    42    10    40    1
    43    13    41    1
    44    14    42    1
    45    17    43    1
    46    19    44    1
    47    19    45    1
    48    20    46    1
    49    20    47    1
    50    21    48    1
    51    22    49    1
    52    22    50    1
    53    23    51    1
    54    27    52    1
    55    28    53    1
    56    29    54    1
    57    30    55    1
    58    31    56    1
