@<TRIPOS>MOLECULE
*****
 49 51 0 0 0
SMALL
GASTEIGER

@<TRIPOS>ATOM
      1 C          -6.6659   -1.4669    2.0249 C.3     1  UNL1        0.0820
      2 O          -5.4381   -1.1850    1.4258 O.3     1  UNL1       -0.4644
      3 C          -4.7875   -2.1180    0.6584 C.2     1  UNL1        0.3422
      4 O          -5.3554   -3.2343    0.5292 O.2     1  UNL1       -0.2448
      5 C          -3.5126   -1.8351    0.0266 C.ar    1  UNL1        0.0981
      6 C          -2.8868   -2.7797   -0.7901 C.ar    1  UNL1        0.0455
      7 N          -1.7222   -2.5201   -1.4122 N.ar    1  UNL1       -0.2392
      8 C          -1.0837   -1.3342   -1.2885 C.ar    1  UNL1        0.1257
      9 N           0.1376   -1.1088   -1.9807 N.pl3   1  UNL1       -0.2830
     10 C           0.8284    0.1250   -1.8632 C.ar    1  UNL1        0.1461
     11 C           0.2373    1.3022   -2.3272 C.ar    1  UNL1        0.0693
     12 N           0.8769    2.4735   -2.2451 N.ar    1  UNL1       -0.2364
     13 C           2.0997    2.5135   -1.7101 C.ar    1  UNL1        0.2019
     14 C           2.8252    3.7621   -1.6185 C.1     1  UNL1        0.1246
     15 N           3.4011    4.7711   -1.5266 N.1     1  UNL1       -0.1891
     16 C           2.7301    1.3659   -1.2333 C.ar    1  UNL1        0.2539
     17 O           4.0014    1.4631   -0.6887 O.3     1  UNL1       -0.4698
     18 C           4.6520    0.2978   -0.2267 C.3     1  UNL1        0.1154
     19 C           5.0822    0.4487    1.1965 C.3     1  UNL1       -0.0019
     20 C           6.2742   -0.5159    1.2732 C.3     1  UNL1       -0.0006
     21 N           6.9435   -0.3142    0.0223 N.3     1  UNL1       -0.3124
     22 C           5.9776    0.1054   -0.9433 C.3     1  UNL1        0.0331
     23 N           2.0420    0.2197   -1.3411 N.ar    1  UNL1       -0.1938
     24 C          -1.6855   -0.3948   -0.4875 C.ar    1  UNL1        0.0003
     25 C          -2.9024   -0.6240    0.1822 C.ar    1  UNL1        0.0481
     26 N          -3.3965    0.4038    1.0078 N.pl3   1  UNL1       -0.3353
     27 C          -3.3044    0.2430    2.4468 C.3     1  UNL1        0.0004
     28 C          -3.9932    1.6084    0.5098 C.3     1  UNL1        0.0004
     29 H          -6.4482   -1.9060    3.0219 H       1  UNL1        0.0661
     30 H          -7.3086   -2.1568    1.4678 H       1  UNL1        0.0661
     31 H          -7.2148   -0.5077    2.2631 H       1  UNL1        0.0661
     32 H          -3.3920   -3.7181   -0.8881 H       1  UNL1        0.0839
     33 H           0.5707   -1.8413   -2.5977 H       1  UNL1        0.1550
     34 H          -0.7517    1.1966   -2.7455 H       1  UNL1        0.0865
     35 H           4.0183   -0.6053   -0.3402 H       1  UNL1        0.0747
     36 H           4.3280    0.1421    1.9425 H       1  UNL1        0.0314
     37 H           5.4796    1.4751    1.3993 H       1  UNL1        0.0314
     38 H           5.8612   -1.5478    1.3906 H       1  UNL1        0.0425
     39 H           6.9470   -0.2374    2.1252 H       1  UNL1        0.0425
     40 H           7.6951    0.4009    0.1514 H       1  UNL1        0.1221
     41 H           6.3126    1.0951   -1.3697 H       1  UNL1        0.0460
     42 H           5.8887   -0.6550   -1.7424 H       1  UNL1        0.0460
     43 H          -1.1591    0.5536   -0.3987 H       1  UNL1        0.0671
     44 H          -2.4818    0.9226    2.8541 H       1  UNL1        0.0428
     45 H          -3.0508   -0.8087    2.6754 H       1  UNL1        0.0428
     46 H          -4.2045    0.6102    2.9869 H       1  UNL1        0.0428
     47 H          -3.2665    2.4389    0.4000 H       1  UNL1        0.0428
     48 H          -4.4191    1.4646   -0.5244 H       1  UNL1        0.0428
     49 H          -4.7789    2.0125    1.2140 H       1  UNL1        0.0428
@<TRIPOS>BOND
     1     1     2    1
     2     2     3    1
     3     3     4    2
     4     3     5    1
     5     5     6   ar
     6     6     7   ar
     7     7     8   ar
     8     8     9    1
     9     9    10    1
    10    10    11   ar
    11    11    12   ar
    12    12    13   ar
    13    13    14    1
    14    14    15    3
    15    13    16   ar
    16    16    17    1
    17    17    18    1
    18    18    19    1
    19    19    20    1
    20    20    21    1
    21    21    22    1
    22    16    23   ar
    23     8    24   ar
    24    24    25   ar
    25    25    26    1
    26    26    27    1
    27    26    28    1
    28    25     5   ar
    29    23    10   ar
    30    22    18    1
    31     1    29    1
    32     1    30    1
    33     1    31    1
    34     6    32    1
    35     9    33    1
    36    11    34    1
    37    18    35    1
    38    19    36    1
    39    19    37    1
    40    20    38    1
    41    20    39    1
    42    21    40    1
    43    22    41    1
    44    22    42    1
    45    24    43    1
    46    27    44    1
    47    27    45    1
    48    27    46    1
    49    28    47    1
    50    28    48    1
    51    28    49    1
