@<TRIPOS>MOLECULE
*****
 69 71 0 0 0
SMALL
GASTEIGER

@<TRIPOS>ATOM
      1 C          -6.3259   -1.8001    2.0760 C.3     1  UNL1       -0.0554
      2 C          -5.7124   -0.6007    1.3620 C.3     1  UNL1        0.0182
      3 C          -4.3506   -0.9975    0.9132 C.3     1  UNL1       -0.0183
      4 C          -3.5557    0.0179    0.1920 C.3     1  UNL1        0.0821
      5 C          -3.2898    1.2778    0.9596 C.3     1  UNL1       -0.0396
      6 C          -2.1588   -0.5994   -0.0136 C.3     1  UNL1        0.1053
      7 S          -1.0728    0.4802   -0.8651 S.O2    1  UNL1        0.0339
      8 O          -1.5208    0.7830   -2.2598 O.2     1  UNL1       -0.1580
      9 O          -0.7971    1.7340   -0.0855 O.2     1  UNL1       -0.1580
     10 N           0.4623   -0.3329   -1.0262 N.3     1  UNL1       -0.1810
     11 C           0.9330   -0.5711    0.3258 C.3     1  UNL1        0.0204
     12 C           2.4437   -0.5775    0.4184 C.3     1  UNL1       -0.0357
     13 C           2.9428    0.8129    0.1578 C.3     1  UNL1       -0.0383
     14 C           4.4218    0.7388   -0.1477 C.3     1  UNL1       -0.0447
     15 C           5.0969    0.1284    1.0816 C.3     1  UNL1       -0.0087
     16 C           6.5596    0.0096    0.8897 C.ar    1  UNL1        0.0595
     17 N           7.4069    0.8586    1.4798 N.ar    1  UNL1       -0.2579
     18 C           8.7186    0.7679    1.3199 C.ar    1  UNL1        0.0396
     19 C           9.2740   -0.2152    0.5303 C.ar    1  UNL1        0.0742
     20 C          10.7475   -0.2994    0.3643 C.3     1  UNL1        0.4189
     21 F          11.0939   -0.9862   -0.7821 F       1  UNL1       -0.1658
     22 F          11.2913    0.9859    0.3277 F       1  UNL1       -0.1658
     23 F          11.2846   -0.9465    1.4772 F       1  UNL1       -0.1658
     24 C           8.4293   -1.1001   -0.0874 C.ar    1  UNL1       -0.0285
     25 C           7.0714   -0.9871    0.0927 C.ar    1  UNL1        0.0627
     26 CL          6.0082   -2.1463   -0.7197 Cl      1  UNL1       -0.0817
     27 C           2.1595    1.4373   -0.9611 C.3     1  UNL1       -0.0357
     28 C           1.3945    0.4431   -1.7841 C.3     1  UNL1        0.0204
     29 N          -4.0944    0.2206   -1.1293 N.am    1  UNL1       -0.1788
     30 O          -4.5829    1.3986   -1.5609 O.3     1  UNL1       -0.2921
     31 C          -4.1019   -0.8992   -1.9989 C.2     1  UNL1        0.2256
     32 O          -4.5628   -0.7546   -3.1561 O.2     1  UNL1       -0.2772
     33 C          -6.6652   -0.2204    0.3021 C.ar    1  UNL1        0.1320
     34 N          -7.0856   -1.0196   -0.6632 N.ar    1  UNL1       -0.2372
     35 C          -7.9550   -0.5640   -1.5758 C.ar    1  UNL1        0.0663
     36 C          -8.4477    0.7253   -1.5630 C.ar    1  UNL1        0.1594
     37 F          -9.3391    1.1735   -2.5087 F       1  UNL1       -0.2023
     38 C          -8.0022    1.5468   -0.5531 C.ar    1  UNL1        0.0663
     39 N          -7.1342    1.0417    0.3323 N.ar    1  UNL1       -0.2372
     40 H          -5.6906   -2.1390    2.9154 H       1  UNL1        0.0236
     41 H          -6.3829   -2.6124    1.3099 H       1  UNL1        0.0236
     42 H          -7.3700   -1.5896    2.3691 H       1  UNL1        0.0236
     43 H          -5.6110    0.2060    2.1097 H       1  UNL1        0.0377
     44 H          -3.7889   -1.3126    1.8172 H       1  UNL1        0.0294
     45 H          -4.4250   -1.9047    0.2761 H       1  UNL1        0.0294
     46 H          -4.1541    1.6264    1.5540 H       1  UNL1        0.0252
     47 H          -3.0826    2.0845    0.2259 H       1  UNL1        0.0252
     48 H          -2.4678    1.1075    1.6624 H       1  UNL1        0.0252
     49 H          -1.7593   -0.6939    1.0394 H       1  UNL1        0.0538
     50 H          -2.1880   -1.5883   -0.4589 H       1  UNL1        0.0538
     51 H           0.4870   -1.5118    0.7165 H       1  UNL1        0.0444
     52 H           0.5883    0.2847    0.9439 H       1  UNL1        0.0444
     53 H           2.9208   -1.3274   -0.2179 H       1  UNL1        0.0281
     54 H           2.6819   -0.8193    1.4789 H       1  UNL1        0.0281
     55 H           2.8536    1.4667    1.0696 H       1  UNL1        0.0302
     56 H           4.8678    1.7114   -0.3619 H       1  UNL1        0.0272
     57 H           4.5351    0.0106   -0.9823 H       1  UNL1        0.0272
     58 H           4.7072   -0.8815    1.2905 H       1  UNL1        0.0329
     59 H           4.9148    0.8393    1.9169 H       1  UNL1        0.0329
     60 H           9.4177    1.4478    1.7910 H       1  UNL1        0.0835
     61 H           8.8549   -1.8861   -0.7174 H       1  UNL1        0.0639
     62 H           1.4673    2.2299   -0.5553 H       1  UNL1        0.0281
     63 H           2.8701    1.9615   -1.6187 H       1  UNL1        0.0281
     64 H           0.9188    1.0026   -2.6171 H       1  UNL1        0.0444
     65 H           2.1462   -0.2294   -2.2616 H       1  UNL1        0.0444
     66 H          -3.8629    2.0695   -1.6545 H       1  UNL1        0.2417
     67 H          -3.7367   -1.8807   -1.7385 H       1  UNL1        0.1274
     68 H          -8.3239   -1.1977   -2.3883 H       1  UNL1        0.0860
     69 H          -8.3731    2.5618   -0.5206 H       1  UNL1        0.0860
@<TRIPOS>BOND
     1     1     2    1
     2     2     3    1
     3     3     4    1
     4     4     5    1
     5     4     6    1
     6     6     7    1
     7     7     8    2
     8     7     9    2
     9     7    10    1
    10    10    11    1
    11    11    12    1
    12    12    13    1
    13    13    14    1
    14    14    15    1
    15    15    16    1
    16    16    17   ar
    17    17    18   ar
    18    18    19   ar
    19    19    20    1
    20    20    21    1
    21    20    22    1
    22    20    23    1
    23    19    24   ar
    24    24    25   ar
    25    25    26    1
    26    13    27    1
    27    27    28    1
    28     4    29    1
    29    29    30    1
    30    29    31   am
    31    31    32    2
    32     2    33    1
    33    33    34   ar
    34    34    35   ar
    35    35    36   ar
    36    36    37    1
    37    36    38   ar
    38    38    39   ar
    39    28    10    1
    40    39    33   ar
    41    25    16   ar
    42     1    40    1
    43     1    41    1
    44     1    42    1
    45     2    43    1
    46     3    44    1
    47     3    45    1
    48     5    46    1
    49     5    47    1
    50     5    48    1
    51     6    49    1
    52     6    50    1
    53    11    51    1
    54    11    52    1
    55    12    53    1
    56    12    54    1
    57    13    55    1
    58    14    56    1
    59    14    57    1
    60    15    58    1
    61    15    59    1
    62    18    60    1
    63    24    61    1
    64    27    62    1
    65    27    63    1
    66    28    64    1
    67    28    65    1
    68    30    66    1
    69    31    67    1
    70    35    68    1
    71    38    69    1
