
     RDKit          3D

 69 71  0  0  0  0  0  0  0  0999 V2000
   -6.3259   -1.8001    2.0760 C   0  0  0  0  0  0  0  0  0  0  0  0
   -5.7124   -0.6007    1.3620 C   0  0  1  0  0  0  0  0  0  0  0  0
   -4.3506   -0.9975    0.9132 C   0  0  0  0  0  0  0  0  0  0  0  0
   -3.5557    0.0179    0.1920 C   0  0  1  0  0  0  0  0  0  0  0  0
   -3.2898    1.2778    0.9596 C   0  0  0  0  0  0  0  0  0  0  0  0
   -2.1588   -0.5994   -0.0136 C   0  0  0  0  0  0  0  0  0  0  0  0
   -1.0728    0.4802   -0.8651 S   0  0  0  0  0  6  0  0  0  0  0  0
   -1.5208    0.7830   -2.2598 O   0  0  0  0  0  0  0  0  0  0  0  0
   -0.7971    1.7340   -0.0855 O   0  0  0  0  0  0  0  0  0  0  0  0
    0.4623   -0.3329   -1.0262 N   0  0  0  0  0  0  0  0  0  0  0  0
    0.9330   -0.5711    0.3258 C   0  0  0  0  0  0  0  0  0  0  0  0
    2.4437   -0.5775    0.4184 C   0  0  0  0  0  0  0  0  0  0  0  0
    2.9428    0.8129    0.1578 C   0  0  0  0  0  0  0  0  0  0  0  0
    4.4218    0.7388   -0.1477 C   0  0  0  0  0  0  0  0  0  0  0  0
    5.0969    0.1284    1.0816 C   0  0  0  0  0  0  0  0  0  0  0  0
    6.5596    0.0096    0.8897 C   0  0  0  0  0  0  0  0  0  0  0  0
    7.4069    0.8586    1.4798 N   0  0  0  0  0  0  0  0  0  0  0  0
    8.7186    0.7679    1.3199 C   0  0  0  0  0  0  0  0  0  0  0  0
    9.2740   -0.2152    0.5303 C   0  0  0  0  0  0  0  0  0  0  0  0
   10.7475   -0.2994    0.3643 C   0  0  0  0  0  0  0  0  0  0  0  0
   11.0939   -0.9862   -0.7821 F   0  0  0  0  0  0  0  0  0  0  0  0
   11.2913    0.9859    0.3277 F   0  0  0  0  0  0  0  0  0  0  0  0
   11.2846   -0.9465    1.4772 F   0  0  0  0  0  0  0  0  0  0  0  0
    8.4293   -1.1001   -0.0874 C   0  0  0  0  0  0  0  0  0  0  0  0
    7.0714   -0.9871    0.0927 C   0  0  0  0  0  0  0  0  0  0  0  0
    6.0082   -2.1463   -0.7197 Cl  0  0  0  0  0  0  0  0  0  0  0  0
    2.1595    1.4373   -0.9611 C   0  0  0  0  0  0  0  0  0  0  0  0
    1.3945    0.4431   -1.7841 C   0  0  0  0  0  0  0  0  0  0  0  0
   -4.0944    0.2206   -1.1293 N   0  0  0  0  0  0  0  0  0  0  0  0
   -4.5829    1.3986   -1.5609 O   0  0  0  0  0  0  0  0  0  0  0  0
   -4.1019   -0.8992   -1.9989 C   0  0  0  0  0  0  0  0  0  0  0  0
   -4.5628   -0.7546   -3.1561 O   0  0  0  0  0  0  0  0  0  0  0  0
   -6.6652   -0.2204    0.3021 C   0  0  0  0  0  0  0  0  0  0  0  0
   -7.0856   -1.0196   -0.6632 N   0  0  0  0  0  0  0  0  0  0  0  0
   -7.9550   -0.5640   -1.5758 C   0  0  0  0  0  0  0  0  0  0  0  0
   -8.4477    0.7253   -1.5630 C   0  0  0  0  0  0  0  0  0  0  0  0
   -9.3391    1.1735   -2.5087 F   0  0  0  0  0  0  0  0  0  0  0  0
   -8.0022    1.5468   -0.5531 C   0  0  0  0  0  0  0  0  0  0  0  0
   -7.1342    1.0417    0.3323 N   0  0  0  0  0  0  0  0  0  0  0  0
   -5.6906   -2.1390    2.9154 H   0  0  0  0  0  0  0  0  0  0  0  0
   -6.3829   -2.6124    1.3099 H   0  0  0  0  0  0  0  0  0  0  0  0
   -7.3700   -1.5896    2.3691 H   0  0  0  0  0  0  0  0  0  0  0  0
   -5.6110    0.2060    2.1097 H   0  0  0  0  0  0  0  0  0  0  0  0
   -3.7889   -1.3126    1.8172 H   0  0  0  0  0  0  0  0  0  0  0  0
   -4.4250   -1.9047    0.2761 H   0  0  0  0  0  0  0  0  0  0  0  0
   -4.1541    1.6264    1.5540 H   0  0  0  0  0  0  0  0  0  0  0  0
   -3.0826    2.0845    0.2259 H   0  0  0  0  0  0  0  0  0  0  0  0
   -2.4678    1.1075    1.6624 H   0  0  0  0  0  0  0  0  0  0  0  0
   -1.7593   -0.6939    1.0394 H   0  0  0  0  0  0  0  0  0  0  0  0
   -2.1880   -1.5883   -0.4589 H   0  0  0  0  0  0  0  0  0  0  0  0
    0.4870   -1.5118    0.7165 H   0  0  0  0  0  0  0  0  0  0  0  0
    0.5883    0.2847    0.9439 H   0  0  0  0  0  0  0  0  0  0  0  0
    2.9208   -1.3274   -0.2179 H   0  0  0  0  0  0  0  0  0  0  0  0
    2.6819   -0.8193    1.4789 H   0  0  0  0  0  0  0  0  0  0  0  0
    2.8536    1.4667    1.0696 H   0  0  0  0  0  0  0  0  0  0  0  0
    4.8678    1.7114   -0.3619 H   0  0  0  0  0  0  0  0  0  0  0  0
    4.5351    0.0106   -0.9823 H   0  0  0  0  0  0  0  0  0  0  0  0
    4.7072   -0.8815    1.2905 H   0  0  0  0  0  0  0  0  0  0  0  0
    4.9148    0.8393    1.9169 H   0  0  0  0  0  0  0  0  0  0  0  0
    9.4177    1.4478    1.7910 H   0  0  0  0  0  0  0  0  0  0  0  0
    8.8549   -1.8861   -0.7174 H   0  0  0  0  0  0  0  0  0  0  0  0
    1.4673    2.2299   -0.5553 H   0  0  0  0  0  0  0  0  0  0  0  0
    2.8701    1.9615   -1.6187 H   0  0  0  0  0  0  0  0  0  0  0  0
    0.9188    1.0026   -2.6171 H   0  0  0  0  0  0  0  0  0  0  0  0
    2.1462   -0.2294   -2.2616 H   0  0  0  0  0  0  0  0  0  0  0  0
   -3.8629    2.0695   -1.6545 H   0  0  0  0  0  0  0  0  0  0  0  0
   -3.7367   -1.8807   -1.7385 H   0  0  0  0  0  0  0  0  0  0  0  0
   -8.3239   -1.1977   -2.3883 H   0  0  0  0  0  0  0  0  0  0  0  0
   -8.3731    2.5618   -0.5206 H   0  0  0  0  0  0  0  0  0  0  0  0
  1  2  1  0
  2  3  1  0
  3  4  1  0
  4  5  1  0
  4  6  1  0
  6  7  1  0
  7  8  2  0
  7  9  2  0
  7 10  1  0
 10 11  1  0
 11 12  1  0
 12 13  1  0
 13 14  1  0
 14 15  1  0
 15 16  1  0
 16 17  2  0
 17 18  1  0
 18 19  2  0
 19 20  1  0
 20 21  1  0
 20 22  1  0
 20 23  1  0
 19 24  1  0
 24 25  2  0
 25 26  1  0
 13 27  1  0
 27 28  1  0
  4 29  1  6
 29 30  1  0
 29 31  1  0
 31 32  2  0
  2 33  1  0
 33 34  2  0
 34 35  1  0
 35 36  2  0
 36 37  1  0
 36 38  1  0
 38 39  2  0
 28 10  1  0
 39 33  1  0
 25 16  1  0
  1 40  1  0
  1 41  1  0
  1 42  1  0
  2 43  1  1
  3 44  1  0
  3 45  1  0
  5 46  1  0
  5 47  1  0
  5 48  1  0
  6 49  1  0
  6 50  1  0
 11 51  1  0
 11 52  1  0
 12 53  1  0
 12 54  1  0
 13 55  1  0
 14 56  1  0
 14 57  1  0
 15 58  1  0
 15 59  1  0
 18 60  1  0
 24 61  1  0
 27 62  1  0
 27 63  1  0
 28 64  1  0
 28 65  1  0
 30 66  1  0
 31 67  1  0
 35 68  1  0
 38 69  1  0
M  END
$$$$
