
     RDKit          3D

 52 55  0  0  0  0  0  0  0  0999 V2000
   -1.3402    0.9170   -0.0695 C   0  0  2  0  0  0  0  0  0  0  0  0
   -2.2471    1.7708    0.7393 C   0  0  0  0  0  0  0  0  0  0  0  0
   -3.5713    1.4658    0.0273 C   0  0  0  0  0  0  0  0  0  0  0  0
   -3.4721   -0.0510   -0.1854 C   0  0  2  0  0  0  0  0  0  0  0  0
   -4.1071   -0.4921   -1.4656 C   0  0  0  0  0  0  0  0  0  0  0  0
   -4.2452   -0.5942    0.8443 O   0  0  0  0  0  0  0  0  0  0  0  0
   -2.0461   -0.4307   -0.0062 C   0  0  2  0  0  0  0  0  0  0  0  0
   -1.8529   -1.0959    1.3112 C   0  0  0  0  0  0  0  0  0  0  0  0
   -1.4609   -1.2196   -1.1443 C   0  0  0  0  0  0  0  0  0  0  0  0
    0.0088   -1.3977   -0.9491 C   0  0  0  0  0  0  0  0  0  0  0  0
    0.7420   -0.1715   -0.5403 C   0  0  1  0  0  0  0  0  0  0  0  0
    0.0324    0.6870    0.4574 C   0  0  1  0  0  0  0  0  0  0  0  0
    0.7612    2.0005    0.6012 C   0  0  0  0  0  0  0  0  0  0  0  0
    2.1636    1.7967    1.0758 C   0  0  0  0  0  0  0  0  0  0  0  0
    2.8250    0.7940    0.2201 C   0  0  0  0  0  0  0  0  0  0  0  0
    4.0316    1.0961   -0.2643 C   0  0  0  0  0  0  0  0  0  0  0  0
    4.7693    0.1750   -1.1189 C   0  0  0  0  0  0  0  0  0  0  0  0
    5.6643    0.5820   -1.8875 O   0  0  0  0  0  0  0  0  0  0  0  0
    4.3401   -1.2610   -0.9686 C   0  0  0  0  0  0  0  0  0  0  0  0
    2.8372   -1.2480   -1.1269 C   0  0  0  0  0  0  0  0  0  0  0  0
    2.1175   -0.4906   -0.0550 C   0  0  2  0  0  0  0  0  0  0  0  0
    2.0980   -1.2335    1.2638 C   0  0  0  0  0  0  0  0  0  0  0  0
   -1.3090    1.3000   -1.0945 H   0  0  0  0  0  0  0  0  0  0  0  0
   -2.0062    2.8562    0.6850 H   0  0  0  0  0  0  0  0  0  0  0  0
   -2.3528    1.5058    1.7888 H   0  0  0  0  0  0  0  0  0  0  0  0
   -3.4988    1.9720   -0.9707 H   0  0  0  0  0  0  0  0  0  0  0  0
   -4.4398    1.7553    0.6169 H   0  0  0  0  0  0  0  0  0  0  0  0
   -5.0793    0.0667   -1.5486 H   0  0  0  0  0  0  0  0  0  0  0  0
   -4.3738   -1.5678   -1.3414 H   0  0  0  0  0  0  0  0  0  0  0  0
   -3.5621   -0.2593   -2.3779 H   0  0  0  0  0  0  0  0  0  0  0  0
   -4.8847    0.0209    1.2437 H   0  0  0  0  0  0  0  0  0  0  0  0
   -1.0583   -1.8449    1.3544 H   0  0  0  0  0  0  0  0  0  0  0  0
   -2.8033   -1.6577    1.5480 H   0  0  0  0  0  0  0  0  0  0  0  0
   -1.7367   -0.4082    2.1784 H   0  0  0  0  0  0  0  0  0  0  0  0
   -1.5675   -0.6124   -2.0799 H   0  0  0  0  0  0  0  0  0  0  0  0
   -1.9368   -2.2017   -1.2333 H   0  0  0  0  0  0  0  0  0  0  0  0
    0.4199   -1.6722   -1.9659 H   0  0  0  0  0  0  0  0  0  0  0  0
    0.2025   -2.3022   -0.3435 H   0  0  0  0  0  0  0  0  0  0  0  0
    0.8814    0.4749   -1.4562 H   0  0  0  0  0  0  0  0  0  0  0  0
    0.0625    0.1865    1.4231 H   0  0  0  0  0  0  0  0  0  0  0  0
    0.7035    2.5975   -0.3480 H   0  0  0  0  0  0  0  0  0  0  0  0
    0.2242    2.6003    1.3663 H   0  0  0  0  0  0  0  0  0  0  0  0
    2.1044    1.4941    2.1385 H   0  0  0  0  0  0  0  0  0  0  0  0
    2.6885    2.7661    1.0600 H   0  0  0  0  0  0  0  0  0  0  0  0
    4.4780    2.0698   -0.0082 H   0  0  0  0  0  0  0  0  0  0  0  0
    4.7615   -1.8317   -1.7977 H   0  0  0  0  0  0  0  0  0  0  0  0
    4.6765   -1.6355    0.0099 H   0  0  0  0  0  0  0  0  0  0  0  0
    2.4306   -2.2706   -1.1738 H   0  0  0  0  0  0  0  0  0  0  0  0
    2.6255   -0.7348   -2.0896 H   0  0  0  0  0  0  0  0  0  0  0  0
    3.0713   -1.7120    1.4671 H   0  0  0  0  0  0  0  0  0  0  0  0
    1.8952   -0.5347    2.1025 H   0  0  0  0  0  0  0  0  0  0  0  0
    1.3353   -2.0194    1.3293 H   0  0  0  0  0  0  0  0  0  0  0  0
  1  2  1  0
  2  3  1  0
  3  4  1  0
  4  5  1  0
  4  6  1  1
  4  7  1  0
  7  8  1  1
  7  9  1  0
  9 10  1  0
 10 11  1  0
 11 12  1  0
 12 13  1  0
 13 14  1  0
 14 15  1  0
 15 16  2  0
 16 17  1  0
 17 18  2  0
 17 19  1  0
 19 20  1  0
 20 21  1  0
 21 22  1  1
  7  1  1  0
 21 11  1  0
 12  1  1  0
 21 15  1  0
  1 23  1  6
  2 24  1  0
  2 25  1  0
  3 26  1  0
  3 27  1  0
  5 28  1  0
  5 29  1  0
  5 30  1  0
  6 31  1  0
  8 32  1  0
  8 33  1  0
  8 34  1  0
  9 35  1  0
  9 36  1  0
 10 37  1  0
 10 38  1  0
 11 39  1  6
 12 40  1  1
 13 41  1  0
 13 42  1  0
 14 43  1  0
 14 44  1  0
 16 45  1  0
 19 46  1  0
 19 47  1  0
 20 48  1  0
 20 49  1  0
 22 50  1  0
 22 51  1  0
 22 52  1  0
M  END
$$$$
