@<TRIPOS>MOLECULE
*****
 67 69 0 0 0
SMALL
GASTEIGER

@<TRIPOS>ATOM
      1 C          -1.1485   -4.2461   -2.6622 C.3     1  UNL1       -0.0200
      2 C          -2.2175   -3.9349   -1.6809 C.ar    1  UNL1        0.0692
      3 N          -3.3519   -4.6210   -1.3571 N.ar    1  UNL1       -0.1743
      4 N          -4.0838   -3.8937   -0.5954 N.ar    1  UNL1       -0.2492
      5 C          -5.3227   -4.2627    0.1534 C.3     1  UNL1        0.0324
      6 C          -3.5280   -2.6456   -0.3489 C.ar    1  UNL1        0.1603
      7 N          -3.8920   -1.5678    0.3180 N.ar    1  UNL1       -0.2122
      8 C          -3.0464   -0.4766    0.3508 C.ar    1  UNL1        0.1357
      9 N          -3.7366    0.8357    0.6226 N.pl3   1  UNL1       -0.3164
     10 C          -3.1872    1.9925    0.0173 C.3     1  UNL1        0.0020
     11 C          -5.0352    0.6483    1.1132 C.3     1  UNL1        0.0260
     12 C          -5.7319    1.7127    1.8806 C.3     1  UNL1        0.0141
     13 N          -6.0412    2.7678    0.8692 N.3     1  UNL1       -0.3069
     14 C          -7.0167    3.6967    1.3646 C.3     1  UNL1       -0.0130
     15 C          -6.6692    2.0687   -0.2806 C.3     1  UNL1       -0.0130
     16 C          -1.8420   -0.4952   -0.2579 C.ar    1  UNL1        0.0777
     17 C          -0.8432    0.3843    0.2652 C.2     1  UNL1        0.2548
     18 O          -0.6594    1.0984    1.1118 O.2     1  UNL1       -0.2696
     19 N           0.5708    0.2203   -0.7467 N.am    1  UNL1       -0.2358
     20 C           1.5536    0.4655    0.3195 C.2     1  UNL1        0.3104
     21 O           1.4600    0.4662    1.4506 O.2     1  UNL1       -0.2521
     22 N           2.8368    0.7559   -0.3777 N.am    1  UNL1       -0.2690
     23 C           4.0370    0.8434    0.2647 C.ar    1  UNL1        0.0382
     24 C           4.2311    0.9718    1.6044 C.ar    1  UNL1       -0.0402
     25 C           5.4393    0.8572    2.2085 C.ar    1  UNL1       -0.0566
     26 C           6.5601    0.5945    1.3998 C.ar    1  UNL1       -0.0198
     27 C           6.4503    0.4805    0.0506 C.ar    1  UNL1        0.1226
     28 O           7.5668    0.2585   -0.7692 O.3     1  UNL1       -0.4893
     29 C           8.8890    0.2190   -0.3464 C.3     1  UNL1        0.0946
     30 C           9.7249   -0.6931   -1.1828 C.3     1  UNL1       -0.0281
     31 C           9.4800    1.6295   -0.3495 C.3     1  UNL1       -0.0281
     32 C           5.1894    0.5937   -0.5258 C.ar    1  UNL1        0.0013
     33 C          -1.4566   -1.6559   -0.9943 C.ar    1  UNL1       -0.0338
     34 C          -2.3324   -2.7034   -1.0327 C.ar    1  UNL1        0.0423
     35 H          -0.8104   -3.2592   -3.1462 H       1  UNL1        0.0293
     36 H          -0.3491   -4.8334   -2.3452 H       1  UNL1        0.0293
     37 H          -1.7556   -4.6643   -3.5635 H       1  UNL1        0.0293
     38 H          -6.0433   -3.4957    0.0477 H       1  UNL1        0.0473
     39 H          -5.6594   -5.2565   -0.0675 H       1  UNL1        0.0473
     40 H          -5.0249   -4.2988    1.2657 H       1  UNL1        0.0473
     41 H          -2.5519    1.7513   -0.8413 H       1  UNL1        0.0428
     42 H          -2.6368    2.6443    0.7731 H       1  UNL1        0.0428
     43 H          -3.9428    2.7060   -0.4318 H       1  UNL1        0.0428
     44 H          -5.6609    0.2133    0.3087 H       1  UNL1        0.0477
     45 H          -4.9825   -0.2949    1.8216 H       1  UNL1        0.0477
     46 H          -6.6968    1.3220    2.1743 H       1  UNL1        0.0442
     47 H          -5.2039    2.1529    2.7222 H       1  UNL1        0.0442
     48 H          -8.0401    3.1611    1.3137 H       1  UNL1        0.0391
     49 H          -6.8839    4.0399    2.3685 H       1  UNL1        0.0391
     50 H          -7.1399    4.5446    0.6341 H       1  UNL1        0.0391
     51 H          -7.2425    2.8151   -0.8489 H       1  UNL1        0.0391
     52 H          -5.8859    1.6445   -0.9805 H       1  UNL1        0.0391
     53 H          -7.3574    1.2875    0.0444 H       1  UNL1        0.0391
     54 H           0.0134    0.0824   -1.3312 H       1  UNL1        0.1594
     55 H           2.7104    0.8639   -1.4064 H       1  UNL1        0.1564
     56 H           3.3355    1.2852    2.1940 H       1  UNL1        0.0636
     57 H           5.5607    0.9549    3.2454 H       1  UNL1        0.0619
     58 H           7.5081    0.4554    1.8562 H       1  UNL1        0.0654
     59 H           8.9854   -0.0698    0.7146 H       1  UNL1        0.0727
     60 H          10.8002   -0.5839   -1.0284 H       1  UNL1        0.0265
     61 H           9.3829   -0.5596   -2.2425 H       1  UNL1        0.0265
     62 H           9.4465   -1.7337   -0.8963 H       1  UNL1        0.0265
     63 H           9.3554    2.1749   -1.2505 H       1  UNL1        0.0265
     64 H          10.4714    1.6198    0.0478 H       1  UNL1        0.0265
     65 H           8.8788    2.2127    0.4266 H       1  UNL1        0.0265
     66 H           5.0880    0.4380   -1.5986 H       1  UNL1        0.0673
     67 H          -0.5154   -1.6850   -1.4766 H       1  UNL1        0.0634
@<TRIPOS>BOND
     1     1     2    1
     2     2     3   ar
     3     3     4   ar
     4     4     5    1
     5     4     6   ar
     6     6     7   ar
     7     7     8   ar
     8     8     9    1
     9     9    10    1
    10     9    11    1
    11    11    12    1
    12    12    13    1
    13    13    14    1
    14    13    15    1
    15     8    16   ar
    16    16    17    1
    17    17    18    2
    18    17    19   am
    19    19    20   am
    20    20    21    2
    21    20    22   am
    22    22    23    1
    23    23    24   ar
    24    24    25   ar
    25    25    26   ar
    26    26    27   ar
    27    27    28    1
    28    28    29    1
    29    29    30    1
    30    29    31    1
    31    27    32   ar
    32    16    33   ar
    33    33    34   ar
    34    34     2   ar
    35    34     6   ar
    36    32    23   ar
    37     1    35    1
    38     1    36    1
    39     1    37    1
    40     5    38    1
    41     5    39    1
    42     5    40    1
    43    10    41    1
    44    10    42    1
    45    10    43    1
    46    11    44    1
    47    11    45    1
    48    12    46    1
    49    12    47    1
    50    14    48    1
    51    14    49    1
    52    14    50    1
    53    15    51    1
    54    15    52    1
    55    15    53    1
    56    19    54    1
    57    22    55    1
    58    24    56    1
    59    25    57    1
    60    26    58    1
    61    29    59    1
    62    30    60    1
    63    30    61    1
    64    30    62    1
    65    31    63    1
    66    31    64    1
    67    31    65    1
    68    32    66    1
    69    33    67    1
