@<TRIPOS>MOLECULE
*****
 32 34 0 0 0
SMALL
GASTEIGER

@<TRIPOS>ATOM
      1 C          -2.4965    0.3880    0.2219 C.3     1  UNL1        0.1108
      2 C          -3.3877    0.9784    1.2671 C.3     1  UNL1        0.0729
      3 O          -3.2389    2.3625    1.2822 O.3     1  UNL1       -0.3924
      4 O          -1.1398    0.6773    0.4565 O.3     1  UNL1       -0.3611
      5 C          -0.5672   -0.0558   -0.5882 C.3     1  UNL1        0.1158
      6 C           0.8962    0.0149   -0.6388 C.ar    1  UNL1        0.0272
      7 C           1.6013   -0.1293   -1.8283 C.ar    1  UNL1        0.0101
      8 N           2.9189   -0.0189   -1.5687 N.ar    1  UNL1       -0.3549
      9 C           3.0609    0.1884   -0.2633 C.ar    1  UNL1        0.1275
     10 C           1.8310    0.2132    0.3295 C.ar    1  UNL1        0.1011
     11 N           1.6801    0.4101    1.6689 N.ar    1  UNL1       -0.2333
     12 C           2.8022    0.5843    2.4143 C.ar    1  UNL1        0.1205
     13 N           4.0356    0.5639    1.8488 N.ar    1  UNL1       -0.1998
     14 C           4.1804    0.3698    0.5299 C.ar    1  UNL1        0.2400
     15 O           5.4393    0.3514   -0.0312 O.3     1  UNL1       -0.4909
     16 C          -1.1235   -1.4261   -0.3615 C.3     1  UNL1        0.1138
     17 O          -1.3133   -2.0957   -1.5546 O.3     1  UNL1       -0.3862
     18 C          -2.4969   -1.1103    0.2449 C.3     1  UNL1        0.1120
     19 O          -3.5318   -1.5929   -0.5151 O.3     1  UNL1       -0.3865
     20 H          -2.7337    0.8261   -0.7461 H       1  UNL1        0.0646
     21 H          -3.2783    0.5616    2.2678 H       1  UNL1        0.0584
     22 H          -4.4338    0.7914    0.9228 H       1  UNL1        0.0584
     23 H          -3.4516    2.7358    0.3888 H       1  UNL1        0.2095
     24 H          -1.0109    0.3534   -1.5176 H       1  UNL1        0.0674
     25 H           1.1787   -0.3043   -2.8242 H       1  UNL1        0.0811
     26 H           3.7009   -0.0847   -2.2726 H       1  UNL1        0.1655
     27 H           2.7605    0.7451    3.4802 H       1  UNL1        0.1048
     28 H           5.7306    0.9276   -0.8223 H       1  UNL1        0.2938
     29 H          -0.5263   -2.0255    0.3616 H       1  UNL1        0.0649
     30 H          -1.3247   -1.4394   -2.3056 H       1  UNL1        0.2100
     31 H          -2.4993   -1.4362    1.2987 H       1  UNL1        0.0647
     32 H          -3.2625   -2.3242   -1.1458 H       1  UNL1        0.2100
@<TRIPOS>BOND
     1     1     2    1
     2     2     3    1
     3     1     4    1
     4     4     5    1
     5     5     6    1
     6     6     7   ar
     7     7     8   ar
     8     8     9   ar
     9     9    10   ar
    10    10    11   ar
    11    11    12   ar
    12    12    13   ar
    13    13    14   ar
    14    14    15    1
    15     5    16    1
    16    16    17    1
    17    16    18    1
    18    18    19    1
    19    18     1    1
    20    10     6   ar
    21    14     9   ar
    22     1    20    1
    23     2    21    1
    24     2    22    1
    25     3    23    1
    26     5    24    1
    27     7    25    1
    28     8    26    1
    29    12    27    1
    30    15    28    1
    31    16    29    1
    32    17    30    1
    33    18    31    1
    34    19    32    1
