@<TRIPOS>MOLECULE
*****
 68 69 0 0 0
SMALL
GASTEIGER

@<TRIPOS>ATOM
      1 C          -3.3196    2.9617    0.7986 C.3     1  UNL1        0.0881
      2 O          -4.3640    2.4623    0.0498 O.3     1  UNL1       -0.3890
      3 C          -2.5537    1.7468    1.3474 C.3     1  UNL1        0.0270
      4 C          -2.1154    0.9602    0.1418 C.3     1  UNL1        0.1626
      5 O          -1.3807   -0.1482    0.6205 O.3     1  UNL1       -0.3414
      6 C          -1.9063   -1.3376    0.2146 C.3     1  UNL1        0.1298
      7 C          -2.2807   -2.1819    1.4060 C.3     1  UNL1        0.0651
      8 N          -3.2870   -1.5808    2.2219 N.3     1  UNL1       -0.3229
      9 C          -2.7360   -3.5374    0.8584 C.3     1  UNL1        0.1012
     10 O          -3.7435   -3.2918   -0.0675 O.3     1  UNL1       -0.3875
     11 C          -1.5720   -4.1151    0.0880 C.3     1  UNL1        0.1120
     12 C          -1.8490   -5.5497   -0.3257 C.3     1  UNL1        0.0730
     13 O          -0.7374   -5.9640   -1.0819 O.3     1  UNL1       -0.3924
     14 O          -1.4145   -3.3052   -1.0640 O.3     1  UNL1       -0.3406
     15 C          -0.8475   -2.1165   -0.5535 C.3     1  UNL1        0.1873
     16 O          -0.3172   -1.4040   -1.5913 O.3     1  UNL1       -0.3487
     17 C           1.0398   -1.2720   -1.5305 C.3     1  UNL1        0.0508
     18 C           1.5826   -0.5575   -0.3240 C.3     1  UNL1       -0.0294
     19 C           3.1097   -0.5057   -0.4246 C.3     1  UNL1       -0.0510
     20 C           3.6631    0.2038    0.7722 C.3     1  UNL1       -0.0530
     21 C           5.1559    0.3024    0.7599 C.3     1  UNL1       -0.0531
     22 C           5.6764    1.0540   -0.4451 C.3     1  UNL1       -0.0533
     23 C           5.1492    2.4730   -0.4992 C.3     1  UNL1       -0.0559
     24 C           5.5350    3.2749    0.7013 C.3     1  UNL1       -0.0653
     25 O          -1.2148    1.6939   -0.6289 O.3     1  UNL1       -0.3456
     26 C          -1.6702    2.8928   -1.0899 C.3     1  UNL1        0.0871
     27 C          -2.5049    2.8214   -2.3396 C.3     1  UNL1       -0.0361
     28 C          -2.3681    3.7311   -0.0495 C.3     1  UNL1        0.1070
     29 O          -3.1078    4.6912   -0.7668 O.3     1  UNL1       -0.3867
     30 H          -3.6432    3.6257    1.6270 H       1  UNL1        0.0621
     31 H          -5.0377    1.9845    0.5605 H       1  UNL1        0.2099
     32 H          -3.1751    1.1588    2.0178 H       1  UNL1        0.0340
     33 H          -1.6232    2.1298    1.8200 H       1  UNL1        0.0340
     34 H          -3.0020    0.6621   -0.4412 H       1  UNL1        0.0910
     35 H          -2.8164   -1.1842   -0.4129 H       1  UNL1        0.0664
     36 H          -1.3346   -2.3503    1.9718 H       1  UNL1        0.0512
     37 H          -4.0107   -1.0680    1.7082 H       1  UNL1        0.1186
     38 H          -3.7554   -2.3357    2.7893 H       1  UNL1        0.1186
     39 H          -3.0622   -4.1889    1.6853 H       1  UNL1        0.0636
     40 H          -4.5368   -3.8425    0.0368 H       1  UNL1        0.2100
     41 H          -0.6672   -4.0758    0.7276 H       1  UNL1        0.0646
     42 H          -2.7128   -5.6389   -0.9837 H       1  UNL1        0.0584
     43 H          -1.8623   -6.1711    0.5844 H       1  UNL1        0.0584
     44 H           0.0736   -5.5149   -0.7320 H       1  UNL1        0.2095
     45 H          -0.0795   -2.4322    0.1614 H       1  UNL1        0.0937
     46 H           1.4579   -0.7281   -2.4173 H       1  UNL1        0.0561
     47 H           1.5124   -2.2840   -1.5468 H       1  UNL1        0.0561
     48 H           1.1910    0.4825   -0.2732 H       1  UNL1        0.0287
     49 H           1.3289   -1.0943    0.5883 H       1  UNL1        0.0287
     50 H           3.3224    0.1169   -1.3346 H       1  UNL1        0.0266
     51 H           3.4588   -1.5331   -0.5395 H       1  UNL1        0.0266
     52 H           3.1538    1.1721    0.8848 H       1  UNL1        0.0265
     53 H           3.4005   -0.4356    1.6596 H       1  UNL1        0.0265
     54 H           5.5399   -0.7456    0.6476 H       1  UNL1        0.0265
     55 H           5.5338    0.6719    1.7120 H       1  UNL1        0.0265
     56 H           5.3207    0.5229   -1.3516 H       1  UNL1        0.0265
     57 H           6.7793    1.0331   -0.4560 H       1  UNL1        0.0265
     58 H           5.6335    2.9485   -1.3827 H       1  UNL1        0.0263
     59 H           4.0681    2.4923   -0.6956 H       1  UNL1        0.0263
     60 H           4.7723    3.2723    1.5087 H       1  UNL1        0.0230
     61 H           6.5363    2.9648    1.0757 H       1  UNL1        0.0230
     62 H           5.6344    4.3346    0.3990 H       1  UNL1        0.0230
     63 H          -0.7522    3.4887   -1.3713 H       1  UNL1        0.0621
     64 H          -2.1748    2.0222   -3.0304 H       1  UNL1        0.0255
     65 H          -2.4056    3.7832   -2.9245 H       1  UNL1        0.0255
     66 H          -3.6007    2.7592   -2.1391 H       1  UNL1        0.0255
     67 H          -1.6240    4.2412    0.5926 H       1  UNL1        0.0645
     68 H          -2.4630    5.3533   -1.1228 H       1  UNL1        0.2100
@<TRIPOS>BOND
     1     1     2    1
     2     1     3    1
     3     3     4    1
     4     4     5    1
     5     5     6    1
     6     6     7    1
     7     7     8    1
     8     7     9    1
     9     9    10    1
    10     9    11    1
    11    11    12    1
    12    12    13    1
    13    11    14    1
    14    14    15    1
    15    15    16    1
    16    16    17    1
    17    17    18    1
    18    18    19    1
    19    19    20    1
    20    20    21    1
    21    21    22    1
    22    22    23    1
    23    23    24    1
    24     4    25    1
    25    25    26    1
    26    26    27    1
    27    26    28    1
    28    28    29    1
    29    28     1    1
    30    15     6    1
    31     1    30    1
    32     2    31    1
    33     3    32    1
    34     3    33    1
    35     4    34    1
    36     6    35    1
    37     7    36    1
    38     8    37    1
    39     8    38    1
    40     9    39    1
    41    10    40    1
    42    11    41    1
    43    12    42    1
    44    12    43    1
    45    13    44    1
    46    15    45    1
    47    17    46    1
    48    17    47    1
    49    18    48    1
    50    18    49    1
    51    19    50    1
    52    19    51    1
    53    20    52    1
    54    20    53    1
    55    21    54    1
    56    21    55    1
    57    22    56    1
    58    22    57    1
    59    23    58    1
    60    23    59    1
    61    24    60    1
    62    24    61    1
    63    24    62    1
    64    26    63    1
    65    27    64    1
    66    27    65    1
    67    27    66    1
    68    28    67    1
    69    29    68    1
