@<TRIPOS>MOLECULE
*****
 68 72 0 0 0
SMALL
GASTEIGER

@<TRIPOS>ATOM
      1 C          -1.4093    1.7749   -4.7567 C.3     1  UNL1       -0.0217
      2 C          -2.6921    1.5244   -4.0309 C.ar    1  UNL1        0.0472
      3 N          -3.8160    1.3975   -4.7430 N.ar    1  UNL1       -0.2582
      4 C          -4.9709    1.1332   -4.1367 C.ar    1  UNL1        0.0471
      5 C          -5.0551    0.9838   -2.7813 C.ar    1  UNL1        0.0915
      6 C          -6.3363    0.7910   -2.1316 C.1     1  UNL1        0.1026
      7 N          -7.3342    0.6432   -1.6049 N.1     1  UNL1       -0.1908
      8 C          -3.8520    1.1198   -2.0257 C.ar    1  UNL1        0.0593
      9 N          -4.0303    1.0342   -0.6551 N.pl3   1  UNL1       -0.3127
     10 C          -3.7494    0.2104    0.4208 C.ar    1  UNL1        0.0350
     11 C          -3.0786    0.8176    1.5178 C.ar    1  UNL1       -0.0383
     12 C          -2.7885    0.0980    2.6714 C.ar    1  UNL1       -0.0360
     13 C          -3.1545   -1.2103    2.7458 C.ar    1  UNL1        0.0468
     14 N          -3.0354   -2.1638    3.7162 N.ar    1  UNL1       -0.3606
     15 C          -3.5679   -3.3157    3.3339 C.ar    1  UNL1        0.0027
     16 C          -4.0718   -3.1446    2.0452 C.ar    1  UNL1       -0.0364
     17 C          -3.7978   -1.8395    1.7205 C.ar    1  UNL1        0.0043
     18 C          -4.0838   -1.0886    0.5543 C.ar    1  UNL1       -0.0202
     19 C          -4.7408   -1.8087   -0.5710 C.3     1  UNL1       -0.0373
     20 C          -2.6519    1.3904   -2.6174 C.ar    1  UNL1        0.0184
     21 C          -1.3951    1.7147   -2.0005 C.2     1  UNL1       -0.0505
     22 C          -0.7761    1.2912   -0.9549 C.2     1  UNL1       -0.0539
     23 C           0.5235    1.7614   -0.4640 C.ar    1  UNL1       -0.0232
     24 C           1.2219    2.7764   -1.0706 C.ar    1  UNL1       -0.0545
     25 C           2.4559    3.2494   -0.6101 C.ar    1  UNL1       -0.0594
     26 C           3.0112    2.6770    0.5069 C.ar    1  UNL1       -0.0353
     27 C           2.3112    1.6487    1.1253 C.ar    1  UNL1        0.1060
     28 S           3.0730    0.9860    2.5586 S.O2    1  UNL1        0.0609
     29 O           2.0465    0.2917    3.4483 O.2     1  UNL1       -0.1528
     30 O           3.6309    2.0969    3.4238 O.2     1  UNL1       -0.1528
     31 N           4.2729   -0.1750    2.1892 N.3     1  UNL1       -0.1741
     32 C           5.3183    0.4143    1.4146 C.3     1  UNL1        0.0333
     33 C           6.2980   -0.6319    0.8729 C.3     1  UNL1        0.0131
     34 N           6.1209   -1.8312    1.6543 N.3     1  UNL1       -0.3028
     35 C           7.0864   -2.8686    1.4299 C.3     1  UNL1       -0.0127
     36 C           4.8119   -2.3677    1.2815 C.3     1  UNL1        0.0131
     37 C           3.7237   -1.3648    1.6125 C.3     1  UNL1        0.0333
     38 C           1.0925    1.1893    0.6624 C.ar    1  UNL1       -0.0282
     39 H          -1.3587    0.9991   -5.5881 H       1  UNL1        0.0293
     40 H          -0.5281    1.5750   -4.1216 H       1  UNL1        0.0293
     41 H          -1.4289    2.7887   -5.2062 H       1  UNL1        0.0293
     42 H          -5.8819    1.0279   -4.7227 H       1  UNL1        0.0843
     43 H          -4.6044    1.9372   -0.3012 H       1  UNL1        0.1522
     44 H          -2.7906    1.8326    1.4376 H       1  UNL1        0.0637
     45 H          -2.2801    0.5565    3.5095 H       1  UNL1        0.0639
     46 H          -2.5737   -1.9457    4.6280 H       1  UNL1        0.1653
     47 H          -3.6196   -4.2391    3.8972 H       1  UNL1        0.0807
     48 H          -4.5640   -3.8857    1.4691 H       1  UNL1        0.0639
     49 H          -4.9482   -2.8683   -0.2071 H       1  UNL1        0.0278
     50 H          -5.7273   -1.4278   -0.7941 H       1  UNL1        0.0278
     51 H          -4.0449   -1.9411   -1.4266 H       1  UNL1        0.0278
     52 H          -0.8362    2.5501   -2.5114 H       1  UNL1        0.0625
     53 H          -1.2254    0.4724   -0.4302 H       1  UNL1        0.0624
     54 H           0.8049    3.2468   -1.9575 H       1  UNL1        0.0623
     55 H           2.9839    4.0653   -1.1235 H       1  UNL1        0.0618
     56 H           3.9691    3.0218    0.8952 H       1  UNL1        0.0637
     57 H           4.8330    0.8254    0.4811 H       1  UNL1        0.0456
     58 H           5.8075    1.2548    1.8950 H       1  UNL1        0.0456
     59 H           7.3200   -0.2049    0.9249 H       1  UNL1        0.0439
     60 H           6.0020   -0.8579   -0.1771 H       1  UNL1        0.0439
     61 H           6.5321   -3.8490    1.3039 H       1  UNL1        0.0391
     62 H           7.6740   -2.7642    0.5184 H       1  UNL1        0.0391
     63 H           7.7608   -3.0152    2.3034 H       1  UNL1        0.0391
     64 H           4.8178   -2.5299    0.1963 H       1  UNL1        0.0439
     65 H           4.5640   -3.3081    1.8050 H       1  UNL1        0.0439
     66 H           2.9672   -1.7745    2.3090 H       1  UNL1        0.0456
     67 H           3.1940   -1.1202    0.6768 H       1  UNL1        0.0456
     68 H           0.5708    0.3732    1.1733 H       1  UNL1        0.0643
@<TRIPOS>BOND
     1     1     2    1
     2     2     3   ar
     3     3     4   ar
     4     4     5   ar
     5     5     6    1
     6     6     7    3
     7     5     8   ar
     8     8     9    1
     9     9    10    1
    10    10    11   ar
    11    11    12   ar
    12    12    13   ar
    13    13    14   ar
    14    14    15   ar
    15    15    16   ar
    16    16    17   ar
    17    17    18   ar
    18    18    19    1
    19     8    20   ar
    20    20    21    1
    21    21    22    2
    22    22    23    1
    23    23    24   ar
    24    24    25   ar
    25    25    26   ar
    26    26    27   ar
    27    27    28    1
    28    28    29    2
    29    28    30    2
    30    28    31    1
    31    31    32    1
    32    32    33    1
    33    33    34    1
    34    34    35    1
    35    34    36    1
    36    36    37    1
    37    27    38   ar
    38    20     2   ar
    39    38    23   ar
    40    18    10   ar
    41    37    31    1
    42    17    13   ar
    43     1    39    1
    44     1    40    1
    45     1    41    1
    46     4    42    1
    47     9    43    1
    48    11    44    1
    49    12    45    1
    50    14    46    1
    51    15    47    1
    52    16    48    1
    53    19    49    1
    54    19    50    1
    55    19    51    1
    56    21    52    1
    57    22    53    1
    58    24    54    1
    59    25    55    1
    60    26    56    1
    61    32    57    1
    62    32    58    1
    63    33    59    1
    64    33    60    1
    65    35    61    1
    66    35    62    1
    67    35    63    1
    68    36    64    1
    69    36    65    1
    70    37    66    1
    71    37    67    1
    72    38    68    1
