
     RDKit          3D

 68 72  0  0  0  0  0  0  0  0999 V2000
   -1.4093    1.7749   -4.7567 C   0  0  0  0  0  0  0  0  0  0  0  0
   -2.6921    1.5244   -4.0309 C   0  0  0  0  0  0  0  0  0  0  0  0
   -3.8160    1.3975   -4.7430 N   0  0  0  0  0  0  0  0  0  0  0  0
   -4.9709    1.1332   -4.1367 C   0  0  0  0  0  0  0  0  0  0  0  0
   -5.0551    0.9838   -2.7813 C   0  0  0  0  0  0  0  0  0  0  0  0
   -6.3363    0.7910   -2.1316 C   0  0  0  0  0  0  0  0  0  0  0  0
   -7.3342    0.6432   -1.6049 N   0  0  0  0  0  0  0  0  0  0  0  0
   -3.8520    1.1198   -2.0257 C   0  0  0  0  0  0  0  0  0  0  0  0
   -4.0303    1.0342   -0.6551 N   0  0  0  0  0  0  0  0  0  0  0  0
   -3.7494    0.2104    0.4208 C   0  0  0  0  0  0  0  0  0  0  0  0
   -3.0786    0.8176    1.5178 C   0  0  0  0  0  0  0  0  0  0  0  0
   -2.7885    0.0980    2.6714 C   0  0  0  0  0  0  0  0  0  0  0  0
   -3.1545   -1.2103    2.7458 C   0  0  0  0  0  0  0  0  0  0  0  0
   -3.0354   -2.1638    3.7162 N   0  0  0  0  0  0  0  0  0  0  0  0
   -3.5679   -3.3157    3.3339 C   0  0  0  0  0  0  0  0  0  0  0  0
   -4.0718   -3.1446    2.0452 C   0  0  0  0  0  0  0  0  0  0  0  0
   -3.7978   -1.8395    1.7205 C   0  0  0  0  0  0  0  0  0  0  0  0
   -4.0838   -1.0886    0.5543 C   0  0  0  0  0  0  0  0  0  0  0  0
   -4.7408   -1.8087   -0.5710 C   0  0  0  0  0  0  0  0  0  0  0  0
   -2.6519    1.3904   -2.6174 C   0  0  0  0  0  0  0  0  0  0  0  0
   -1.3951    1.7147   -2.0005 C   0  0  0  0  0  0  0  0  0  0  0  0
   -0.7761    1.2912   -0.9549 C   0  0  0  0  0  0  0  0  0  0  0  0
    0.5235    1.7614   -0.4640 C   0  0  0  0  0  0  0  0  0  0  0  0
    1.2219    2.7764   -1.0706 C   0  0  0  0  0  0  0  0  0  0  0  0
    2.4559    3.2494   -0.6101 C   0  0  0  0  0  0  0  0  0  0  0  0
    3.0112    2.6770    0.5069 C   0  0  0  0  0  0  0  0  0  0  0  0
    2.3112    1.6487    1.1253 C   0  0  0  0  0  0  0  0  0  0  0  0
    3.0730    0.9860    2.5586 S   0  0  0  0  0  6  0  0  0  0  0  0
    2.0465    0.2917    3.4483 O   0  0  0  0  0  0  0  0  0  0  0  0
    3.6309    2.0969    3.4238 O   0  0  0  0  0  0  0  0  0  0  0  0
    4.2729   -0.1750    2.1892 N   0  0  0  0  0  0  0  0  0  0  0  0
    5.3183    0.4143    1.4146 C   0  0  0  0  0  0  0  0  0  0  0  0
    6.2980   -0.6319    0.8729 C   0  0  0  0  0  0  0  0  0  0  0  0
    6.1209   -1.8312    1.6543 N   0  0  0  0  0  0  0  0  0  0  0  0
    7.0864   -2.8686    1.4299 C   0  0  0  0  0  0  0  0  0  0  0  0
    4.8119   -2.3677    1.2815 C   0  0  0  0  0  0  0  0  0  0  0  0
    3.7237   -1.3648    1.6125 C   0  0  0  0  0  0  0  0  0  0  0  0
    1.0925    1.1893    0.6624 C   0  0  0  0  0  0  0  0  0  0  0  0
   -1.3587    0.9991   -5.5881 H   0  0  0  0  0  0  0  0  0  0  0  0
   -0.5281    1.5750   -4.1216 H   0  0  0  0  0  0  0  0  0  0  0  0
   -1.4289    2.7887   -5.2062 H   0  0  0  0  0  0  0  0  0  0  0  0
   -5.8819    1.0279   -4.7227 H   0  0  0  0  0  0  0  0  0  0  0  0
   -4.6044    1.9372   -0.3012 H   0  0  0  0  0  0  0  0  0  0  0  0
   -2.7906    1.8326    1.4376 H   0  0  0  0  0  0  0  0  0  0  0  0
   -2.2801    0.5565    3.5095 H   0  0  0  0  0  0  0  0  0  0  0  0
   -2.5737   -1.9457    4.6280 H   0  0  0  0  0  0  0  0  0  0  0  0
   -3.6196   -4.2391    3.8972 H   0  0  0  0  0  0  0  0  0  0  0  0
   -4.5640   -3.8857    1.4691 H   0  0  0  0  0  0  0  0  0  0  0  0
   -4.9482   -2.8683   -0.2071 H   0  0  0  0  0  0  0  0  0  0  0  0
   -5.7273   -1.4278   -0.7941 H   0  0  0  0  0  0  0  0  0  0  0  0
   -4.0449   -1.9411   -1.4266 H   0  0  0  0  0  0  0  0  0  0  0  0
   -0.8362    2.5501   -2.5114 H   0  0  0  0  0  0  0  0  0  0  0  0
   -1.2254    0.4724   -0.4302 H   0  0  0  0  0  0  0  0  0  0  0  0
    0.8049    3.2468   -1.9575 H   0  0  0  0  0  0  0  0  0  0  0  0
    2.9839    4.0653   -1.1235 H   0  0  0  0  0  0  0  0  0  0  0  0
    3.9691    3.0218    0.8952 H   0  0  0  0  0  0  0  0  0  0  0  0
    4.8330    0.8254    0.4811 H   0  0  0  0  0  0  0  0  0  0  0  0
    5.8075    1.2548    1.8950 H   0  0  0  0  0  0  0  0  0  0  0  0
    7.3200   -0.2049    0.9249 H   0  0  0  0  0  0  0  0  0  0  0  0
    6.0020   -0.8579   -0.1771 H   0  0  0  0  0  0  0  0  0  0  0  0
    6.5321   -3.8490    1.3039 H   0  0  0  0  0  0  0  0  0  0  0  0
    7.6740   -2.7642    0.5184 H   0  0  0  0  0  0  0  0  0  0  0  0
    7.7608   -3.0152    2.3034 H   0  0  0  0  0  0  0  0  0  0  0  0
    4.8178   -2.5299    0.1963 H   0  0  0  0  0  0  0  0  0  0  0  0
    4.5640   -3.3081    1.8050 H   0  0  0  0  0  0  0  0  0  0  0  0
    2.9672   -1.7745    2.3090 H   0  0  0  0  0  0  0  0  0  0  0  0
    3.1940   -1.1202    0.6768 H   0  0  0  0  0  0  0  0  0  0  0  0
    0.5708    0.3732    1.1733 H   0  0  0  0  0  0  0  0  0  0  0  0
  1  2  1  0
  2  3  2  0
  3  4  1  0
  4  5  2  0
  5  6  1  0
  6  7  3  0
  5  8  1  0
  8  9  1  0
  9 10  1  0
 10 11  2  0
 11 12  1  0
 12 13  2  0
 13 14  1  0
 14 15  1  0
 15 16  2  0
 16 17  1  0
 17 18  2  0
 18 19  1  0
  8 20  2  0
 20 21  1  0
 21 22  2  0
 22 23  1  0
 23 24  2  0
 24 25  1  0
 25 26  2  0
 26 27  1  0
 27 28  1  0
 28 29  2  0
 28 30  2  0
 28 31  1  0
 31 32  1  0
 32 33  1  0
 33 34  1  0
 34 35  1  0
 34 36  1  0
 36 37  1  0
 27 38  2  0
 20  2  1  0
 38 23  1  0
 18 10  1  0
 37 31  1  0
 17 13  1  0
  1 39  1  0
  1 40  1  0
  1 41  1  0
  4 42  1  0
  9 43  1  0
 11 44  1  0
 12 45  1  0
 14 46  1  0
 15 47  1  0
 16 48  1  0
 19 49  1  0
 19 50  1  0
 19 51  1  0
 21 52  1  0
 22 53  1  0
 24 54  1  0
 25 55  1  0
 26 56  1  0
 32 57  1  0
 32 58  1  0
 33 59  1  0
 33 60  1  0
 35 61  1  0
 35 62  1  0
 35 63  1  0
 36 64  1  0
 36 65  1  0
 37 66  1  0
 37 67  1  0
 38 68  1  0
M  END
$$$$
