@<TRIPOS>MOLECULE
*****
 49 51 0 0 0
SMALL
GASTEIGER

@<TRIPOS>ATOM
      1 C          -3.7334    3.3405   -0.4577 C.3     1  UNL1        0.0790
      2 O          -4.4524    2.1397   -0.2643 O.3     1  UNL1       -0.4913
      3 C          -3.7678    0.9365   -0.2694 C.ar    1  UNL1        0.1669
      4 C          -2.3988    0.8999   -0.4610 C.ar    1  UNL1        0.0048
      5 C          -1.6730   -0.2800   -0.4735 C.ar    1  UNL1        0.0346
      6 N          -0.2736   -0.2733   -0.6726 N.pl3   1  UNL1       -0.3395
      7 C           0.4314    0.9651   -0.8668 C.3     1  UNL1        0.0361
      8 C           1.8770    0.8117   -1.0624 C.ar    1  UNL1       -0.0086
      9 C           2.4890    0.9510   -2.2812 C.ar    1  UNL1        0.0349
     10 N           3.8129    0.8149   -2.4119 N.ar    1  UNL1       -0.2352
     11 C           4.6095    0.5363   -1.3628 C.ar    1  UNL1        0.1668
     12 N           5.9385    0.4067   -1.5107 N.ar    1  UNL1       -0.1948
     13 C           6.7213    0.1331   -0.4576 C.ar    1  UNL1        0.2162
     14 N           8.1399   -0.0106   -0.5860 N.pl3   1  UNL1       -0.3274
     15 N           6.2063   -0.0180    0.7639 N.ar    1  UNL1       -0.1994
     16 C           4.8528    0.1009    0.9898 C.ar    1  UNL1        0.1308
     17 N           4.3985   -0.0700    2.3109 N.pl3   1  UNL1       -0.3425
     18 C           4.0677    0.3789   -0.0894 C.ar    1  UNL1        0.0620
     19 C           2.6862    0.5216    0.0394 C.ar    1  UNL1       -0.0304
     20 C           2.0899    0.3442    1.3868 C.3     1  UNL1       -0.0386
     21 C          -2.3848   -1.4532   -0.2824 C.ar    1  UNL1        0.0048
     22 C          -3.7481   -1.4911   -0.0859 C.ar    1  UNL1        0.1669
     23 O          -4.4393   -2.6847    0.1038 O.3     1  UNL1       -0.4913
     24 C          -3.6848   -3.8819    0.0885 C.3     1  UNL1        0.0790
     25 C          -4.4120   -0.2718   -0.0852 C.ar    1  UNL1        0.2036
     26 O          -5.7645   -0.2665    0.1064 O.3     1  UNL1       -0.4885
     27 C          -6.4386   -0.1779    1.3274 C.3     1  UNL1        0.0791
     28 H          -3.2183    3.4017   -1.4161 H       1  UNL1        0.0660
     29 H          -4.5009    4.1647   -0.4161 H       1  UNL1        0.0660
     30 H          -2.9912    3.5328    0.3400 H       1  UNL1        0.0660
     31 H          -1.8643    1.8160   -0.6071 H       1  UNL1        0.0674
     32 H           0.2588   -1.1615   -0.6806 H       1  UNL1        0.1464
     33 H           0.2393    1.6385   -0.0097 H       1  UNL1        0.0511
     34 H           0.0585    1.4854   -1.8099 H       1  UNL1        0.0511
     35 H           1.8454    1.1761   -3.1283 H       1  UNL1        0.0834
     36 H           8.4995   -0.2800   -1.5250 H       1  UNL1        0.1452
     37 H           8.7981    0.1364    0.1871 H       1  UNL1        0.1452
     38 H           4.1439    0.6545    2.9926 H       1  UNL1        0.1437
     39 H           4.3306   -1.0767    2.6594 H       1  UNL1        0.1437
     40 H           2.2507   -0.6456    1.8362 H       1  UNL1        0.0278
     41 H           0.9548    0.3105    1.2037 H       1  UNL1        0.0278
     42 H           2.1792    1.2162    2.0408 H       1  UNL1        0.0278
     43 H          -1.8372   -2.3853   -0.2885 H       1  UNL1        0.0674
     44 H          -2.8910   -3.8723    0.8916 H       1  UNL1        0.0660
     45 H          -4.3032   -4.7826    0.1622 H       1  UNL1        0.0660
     46 H          -3.0989   -3.9731   -0.8714 H       1  UNL1        0.0660
     47 H          -6.0373   -0.8575    2.1000 H       1  UNL1        0.0660
     48 H          -7.5008   -0.5004    1.1393 H       1  UNL1        0.0660
     49 H          -6.4657    0.8282    1.7638 H       1  UNL1        0.0660
@<TRIPOS>BOND
     1     1     2    1
     2     2     3    1
     3     3     4   ar
     4     4     5   ar
     5     5     6    1
     6     6     7    1
     7     7     8    1
     8     8     9   ar
     9     9    10   ar
    10    10    11   ar
    11    11    12   ar
    12    12    13   ar
    13    13    14    1
    14    13    15   ar
    15    15    16   ar
    16    16    17    1
    17    16    18   ar
    18    18    19   ar
    19    19    20    1
    20     5    21   ar
    21    21    22   ar
    22    22    23    1
    23    23    24    1
    24    22    25   ar
    25    25    26    1
    26    26    27    1
    27    25     3   ar
    28    19     8   ar
    29    18    11   ar
    30     1    28    1
    31     1    29    1
    32     1    30    1
    33     4    31    1
    34     6    32    1
    35     7    33    1
    36     7    34    1
    37     9    35    1
    38    14    36    1
    39    14    37    1
    40    17    38    1
    41    17    39    1
    42    20    40    1
    43    20    41    1
    44    20    42    1
    45    21    43    1
    46    24    44    1
    47    24    45    1
    48    24    46    1
    49    27    47    1
    50    27    48    1
    51    27    49    1
