@<TRIPOS>MOLECULE
*****
 21 20 0 0 0
SMALL
GASTEIGER

@<TRIPOS>ATOM
      1 N          -2.9344    0.6026    0.0196 N.3     1  UNL1       -0.3300
      2 C          -2.3816   -0.7349   -0.0275 C.3     1  UNL1       -0.0068
      3 C          -1.0000   -0.7505   -0.6476 C.3     1  UNL1       -0.0387
      4 C          -0.0312    0.1060    0.1342 C.3     1  UNL1       -0.0262
      5 CA          1.3240    0.0412   -0.5432 C.3     1  UNL1        0.1033
      6 N           1.8232   -1.2714   -0.5956 N.3     1  UNL1       -0.3184
      7 C           2.3076    0.9182    0.1334 C.2     1  UNL1        0.3217
      8 O           2.0584    2.2841    0.3196 O.3     1  UNL1       -0.4795
      9 OXT         3.4122    0.4769    0.5721 O.2     1  UNL1       -0.2493
     10 H          -3.1314    0.9403    0.9771 H       1  UNL1        0.1182
     11 H          -2.3944    1.2758   -0.5663 H       1  UNL1        0.1182
     12 H          -3.0394   -1.3376   -0.6870 H       1  UNL1        0.0422
     13 H          -2.3093   -1.2004    0.9778 H       1  UNL1        0.0422
     14 H          -1.0402   -0.4022   -1.6862 H       1  UNL1        0.0278
     15 H          -0.6324   -1.7996   -0.5860 H       1  UNL1        0.0278
     16 H          -0.3483    1.1688    0.1667 H       1  UNL1        0.0286
     17 H           0.0498   -0.2249    1.1837 H       1  UNL1        0.0286
     18 HA          1.1982    0.3975   -1.5986 H       1  UNL1        0.0574
     19 H1          2.0093   -1.7702    0.2625 H       1  UNL1        0.1190
     20 H2          2.2825   -1.5817   -1.4555 H       1  UNL1        0.1190
     21 H           2.7773    2.8620    0.7090 H       1  UNL1        0.2951
@<TRIPOS>BOND
     1     1     2    1
     2     2     3    1
     3     3     4    1
     4     4     5    1
     5     5     6    1
     6     5     7    1
     7     7     8    1
     8     7     9    2
     9     1    10    1
    10     1    11    1
    11     2    12    1
    12     2    13    1
    13     3    14    1
    14     3    15    1
    15     4    16    1
    16     4    17    1
    17     5    18    1
    18     6    19    1
    19     6    20    1
    20     8    21    1
