@<TRIPOS>MOLECULE
*****
 65 67 0 0 0
SMALL
GASTEIGER

@<TRIPOS>ATOM
      1 C          -5.7076   -5.6574   -1.2409 C.3     1  UNL1       -0.0652
      2 C          -6.4631   -4.8565   -0.2321 C.3     1  UNL1       -0.0545
      3 C          -6.1748   -3.3798   -0.3929 C.3     1  UNL1       -0.0376
      4 C          -4.6904   -3.1666   -0.1993 C.3     1  UNL1        0.0118
      5 N          -4.3581   -1.7724   -0.3374 N.pl3   1  UNL1       -0.3134
      6 C          -2.9856   -1.3748   -0.1935 C.ar    1  UNL1        0.2169
      7 N          -2.0826   -2.3297    0.0467 N.ar    1  UNL1       -0.2221
      8 C          -0.8067   -1.9484    0.1808 C.ar    1  UNL1        0.0466
      9 C          -0.4201   -0.6013    0.0746 C.ar    1  UNL1        0.0948
     10 C           0.9717   -0.3352    0.3062 C.2     1  UNL1        0.2531
     11 O           1.4900    0.7423    0.6669 O.2     1  UNL1       -0.2697
     12 N           1.9240   -1.4062    0.1032 N.am    1  UNL1       -0.2783
     13 C           3.3233   -1.1505    0.3305 C.ar    1  UNL1        0.0793
     14 C           3.8938   -1.3273    1.5712 C.ar    1  UNL1        0.0049
     15 C           5.2481   -1.0854    1.7902 C.ar    1  UNL1        0.1221
     16 O           5.8309   -1.2595    3.0303 O.3     1  UNL1       -0.4950
     17 C           7.2078   -0.9948    3.1727 C.3     1  UNL1        0.0788
     18 C           5.9771   -0.6638    0.7073 C.ar    1  UNL1       -0.0164
     19 C           5.4216   -0.4830   -0.5357 C.ar    1  UNL1       -0.0147
     20 C           4.0732   -0.7260   -0.7446 C.ar    1  UNL1        0.1414
     21 O           3.4723   -0.5562   -1.9836 O.3     1  UNL1       -0.4933
     22 C           4.2496   -0.1202   -3.0836 C.3     1  UNL1        0.0789
     23 C          -1.3310    0.3742   -0.1699 C.ar    1  UNL1        0.1363
     24 N          -1.1890    1.7398   -0.3400 N.pl3   1  UNL1       -0.3255
     25 C          -0.2044    2.7407   -0.3095 C.3     1  UNL1        0.0221
     26 C          -0.7858    3.9034   -1.2106 C.3     1  UNL1       -0.0322
     27 C          -1.6545    4.8078   -0.3916 C.3     1  UNL1       -0.0252
     28 C          -0.6880    5.7459    0.3537 C.3     1  UNL1        0.0554
     29 O          -0.2707    6.6902   -0.5815 O.3     1  UNL1       -0.3918
     30 C           0.4529    4.8275    0.7864 C.3     1  UNL1       -0.0252
     31 C          -0.0671    3.4300    1.0302 C.3     1  UNL1       -0.0322
     32 N          -2.6272   -0.0920   -0.2959 N.ar    1  UNL1       -0.1990
     33 H          -4.7429   -5.9981   -0.7871 H       1  UNL1        0.0230
     34 H          -6.3209   -6.5419   -1.5568 H       1  UNL1        0.0230
     35 H          -5.4800   -5.0474   -2.1330 H       1  UNL1        0.0230
     36 H          -6.1642   -5.2003    0.7693 H       1  UNL1        0.0263
     37 H          -7.5594   -5.0304   -0.3191 H       1  UNL1        0.0263
     38 H          -6.4876   -3.0509   -1.4195 H       1  UNL1        0.0280
     39 H          -6.7082   -2.7925    0.3679 H       1  UNL1        0.0280
     40 H          -4.4461   -3.5621    0.8126 H       1  UNL1        0.0462
     41 H          -4.1403   -3.7746   -0.9749 H       1  UNL1        0.0462
     42 H          -5.1173   -1.0910   -0.5371 H       1  UNL1        0.1489
     43 H          -0.1133   -2.7483    0.3905 H       1  UNL1        0.0839
     44 H           1.5793   -2.3151   -0.2128 H       1  UNL1        0.1552
     45 H           3.3209   -1.6571    2.4180 H       1  UNL1        0.0674
     46 H           7.8334   -1.6884    2.5604 H       1  UNL1        0.0660
     47 H           7.5471   -1.0771    4.2256 H       1  UNL1        0.0660
     48 H           7.4223    0.0465    2.8063 H       1  UNL1        0.0660
     49 H           7.0472   -0.4715    0.8746 H       1  UNL1        0.0655
     50 H           5.9935   -0.1514   -1.3890 H       1  UNL1        0.0656
     51 H           3.5105    0.0791   -3.9102 H       1  UNL1        0.0660
     52 H           4.8004    0.8053   -2.8638 H       1  UNL1        0.0660
     53 H           4.9216   -0.9265   -3.4479 H       1  UNL1        0.0660
     54 H          -2.1752    2.2221   -0.5669 H       1  UNL1        0.1478
     55 H           0.7498    2.5429   -0.7541 H       1  UNL1        0.0498
     56 H           0.0454    4.4543   -1.6532 H       1  UNL1        0.0284
     57 H          -1.4151    3.4300   -2.0002 H       1  UNL1        0.0284
     58 H          -2.2243    5.4545   -1.0958 H       1  UNL1        0.0291
     59 H          -2.3346    4.3210    0.3015 H       1  UNL1        0.0291
     60 H          -1.1668    6.2253    1.2139 H       1  UNL1        0.0593
     61 H          -0.9837    7.3973   -0.5845 H       1  UNL1        0.2098
     62 H           0.9819    5.2377    1.6701 H       1  UNL1        0.0291
     63 H           1.1771    4.7980   -0.0428 H       1  UNL1        0.0291
     64 H          -1.0382    3.4572    1.5780 H       1  UNL1        0.0284
     65 H           0.6583    2.9385    1.6867 H       1  UNL1        0.0284
@<TRIPOS>BOND
     1     1     2    1
     2     2     3    1
     3     3     4    1
     4     4     5    1
     5     5     6    1
     6     6     7   ar
     7     7     8   ar
     8     8     9   ar
     9     9    10    1
    10    10    11    2
    11    10    12   am
    12    12    13    1
    13    13    14   ar
    14    14    15   ar
    15    15    16    1
    16    16    17    1
    17    15    18   ar
    18    18    19   ar
    19    19    20   ar
    20    20    21    1
    21    21    22    1
    22     9    23   ar
    23    23    24    1
    24    24    25    1
    25    25    26    1
    26    26    27    1
    27    27    28    1
    28    28    29    1
    29    28    30    1
    30    30    31    1
    31    23    32   ar
    32    32     6   ar
    33    20    13   ar
    34    31    25    1
    35     1    33    1
    36     1    34    1
    37     1    35    1
    38     2    36    1
    39     2    37    1
    40     3    38    1
    41     3    39    1
    42     4    40    1
    43     4    41    1
    44     5    42    1
    45     8    43    1
    46    12    44    1
    47    14    45    1
    48    17    46    1
    49    17    47    1
    50    17    48    1
    51    18    49    1
    52    19    50    1
    53    22    51    1
    54    22    52    1
    55    22    53    1
    56    24    54    1
    57    25    55    1
    58    26    56    1
    59    26    57    1
    60    27    58    1
    61    27    59    1
    62    28    60    1
    63    29    61    1
    64    30    62    1
    65    30    63    1
    66    31    64    1
    67    31    65    1
