
     RDKit          3D

 65 67  0  0  0  0  0  0  0  0999 V2000
   -5.7076   -5.6574   -1.2409 C   0  0  0  0  0  0  0  0  0  0  0  0
   -6.4631   -4.8565   -0.2321 C   0  0  0  0  0  0  0  0  0  0  0  0
   -6.1748   -3.3798   -0.3929 C   0  0  0  0  0  0  0  0  0  0  0  0
   -4.6904   -3.1666   -0.1993 C   0  0  0  0  0  0  0  0  0  0  0  0
   -4.3581   -1.7724   -0.3374 N   0  0  0  0  0  0  0  0  0  0  0  0
   -2.9856   -1.3748   -0.1935 C   0  0  0  0  0  0  0  0  0  0  0  0
   -2.0826   -2.3297    0.0467 N   0  0  0  0  0  0  0  0  0  0  0  0
   -0.8067   -1.9484    0.1808 C   0  0  0  0  0  0  0  0  0  0  0  0
   -0.4201   -0.6013    0.0746 C   0  0  0  0  0  0  0  0  0  0  0  0
    0.9717   -0.3352    0.3062 C   0  0  0  0  0  0  0  0  0  0  0  0
    1.4900    0.7423    0.6669 O   0  0  0  0  0  0  0  0  0  0  0  0
    1.9240   -1.4062    0.1032 N   0  0  0  0  0  0  0  0  0  0  0  0
    3.3233   -1.1505    0.3305 C   0  0  0  0  0  0  0  0  0  0  0  0
    3.8938   -1.3273    1.5712 C   0  0  0  0  0  0  0  0  0  0  0  0
    5.2481   -1.0854    1.7902 C   0  0  0  0  0  0  0  0  0  0  0  0
    5.8309   -1.2595    3.0303 O   0  0  0  0  0  0  0  0  0  0  0  0
    7.2078   -0.9948    3.1727 C   0  0  0  0  0  0  0  0  0  0  0  0
    5.9771   -0.6638    0.7073 C   0  0  0  0  0  0  0  0  0  0  0  0
    5.4216   -0.4830   -0.5357 C   0  0  0  0  0  0  0  0  0  0  0  0
    4.0732   -0.7260   -0.7446 C   0  0  0  0  0  0  0  0  0  0  0  0
    3.4723   -0.5562   -1.9836 O   0  0  0  0  0  0  0  0  0  0  0  0
    4.2496   -0.1202   -3.0836 C   0  0  0  0  0  0  0  0  0  0  0  0
   -1.3310    0.3742   -0.1699 C   0  0  0  0  0  0  0  0  0  0  0  0
   -1.1890    1.7398   -0.3400 N   0  0  0  0  0  0  0  0  0  0  0  0
   -0.2044    2.7407   -0.3095 C   0  0  1  0  0  0  0  0  0  0  0  0
   -0.7858    3.9034   -1.2106 C   0  0  0  0  0  0  0  0  0  0  0  0
   -1.6545    4.8078   -0.3916 C   0  0  0  0  0  0  0  0  0  0  0  0
   -0.6880    5.7459    0.3537 C   0  0  2  0  0  0  0  0  0  0  0  0
   -0.2707    6.6902   -0.5815 O   0  0  0  0  0  0  0  0  0  0  0  0
    0.4529    4.8275    0.7864 C   0  0  0  0  0  0  0  0  0  0  0  0
   -0.0671    3.4300    1.0302 C   0  0  0  0  0  0  0  0  0  0  0  0
   -2.6272   -0.0920   -0.2959 N   0  0  0  0  0  0  0  0  0  0  0  0
   -4.7429   -5.9981   -0.7871 H   0  0  0  0  0  0  0  0  0  0  0  0
   -6.3209   -6.5419   -1.5568 H   0  0  0  0  0  0  0  0  0  0  0  0
   -5.4800   -5.0474   -2.1330 H   0  0  0  0  0  0  0  0  0  0  0  0
   -6.1642   -5.2003    0.7693 H   0  0  0  0  0  0  0  0  0  0  0  0
   -7.5594   -5.0304   -0.3191 H   0  0  0  0  0  0  0  0  0  0  0  0
   -6.4876   -3.0509   -1.4195 H   0  0  0  0  0  0  0  0  0  0  0  0
   -6.7082   -2.7925    0.3679 H   0  0  0  0  0  0  0  0  0  0  0  0
   -4.4461   -3.5621    0.8126 H   0  0  0  0  0  0  0  0  0  0  0  0
   -4.1403   -3.7746   -0.9749 H   0  0  0  0  0  0  0  0  0  0  0  0
   -5.1173   -1.0910   -0.5371 H   0  0  0  0  0  0  0  0  0  0  0  0
   -0.1133   -2.7483    0.3905 H   0  0  0  0  0  0  0  0  0  0  0  0
    1.5793   -2.3151   -0.2128 H   0  0  0  0  0  0  0  0  0  0  0  0
    3.3209   -1.6571    2.4180 H   0  0  0  0  0  0  0  0  0  0  0  0
    7.8334   -1.6884    2.5604 H   0  0  0  0  0  0  0  0  0  0  0  0
    7.5471   -1.0771    4.2256 H   0  0  0  0  0  0  0  0  0  0  0  0
    7.4223    0.0465    2.8063 H   0  0  0  0  0  0  0  0  0  0  0  0
    7.0472   -0.4715    0.8746 H   0  0  0  0  0  0  0  0  0  0  0  0
    5.9935   -0.1514   -1.3890 H   0  0  0  0  0  0  0  0  0  0  0  0
    3.5105    0.0791   -3.9102 H   0  0  0  0  0  0  0  0  0  0  0  0
    4.8004    0.8053   -2.8638 H   0  0  0  0  0  0  0  0  0  0  0  0
    4.9216   -0.9265   -3.4479 H   0  0  0  0  0  0  0  0  0  0  0  0
   -2.1752    2.2221   -0.5669 H   0  0  0  0  0  0  0  0  0  0  0  0
    0.7498    2.5429   -0.7541 H   0  0  0  0  0  0  0  0  0  0  0  0
    0.0454    4.4543   -1.6532 H   0  0  0  0  0  0  0  0  0  0  0  0
   -1.4151    3.4300   -2.0002 H   0  0  0  0  0  0  0  0  0  0  0  0
   -2.2243    5.4545   -1.0958 H   0  0  0  0  0  0  0  0  0  0  0  0
   -2.3346    4.3210    0.3015 H   0  0  0  0  0  0  0  0  0  0  0  0
   -1.1668    6.2253    1.2139 H   0  0  0  0  0  0  0  0  0  0  0  0
   -0.9837    7.3973   -0.5845 H   0  0  0  0  0  0  0  0  0  0  0  0
    0.9819    5.2377    1.6701 H   0  0  0  0  0  0  0  0  0  0  0  0
    1.1771    4.7980   -0.0428 H   0  0  0  0  0  0  0  0  0  0  0  0
   -1.0382    3.4572    1.5780 H   0  0  0  0  0  0  0  0  0  0  0  0
    0.6583    2.9385    1.6867 H   0  0  0  0  0  0  0  0  0  0  0  0
  1  2  1  0
  2  3  1  0
  3  4  1  0
  4  5  1  0
  5  6  1  0
  6  7  2  0
  7  8  1  0
  8  9  2  0
  9 10  1  0
 10 11  2  0
 10 12  1  0
 12 13  1  0
 13 14  2  0
 14 15  1  0
 15 16  1  0
 16 17  1  0
 15 18  2  0
 18 19  1  0
 19 20  2  0
 20 21  1  0
 21 22  1  0
  9 23  1  0
 23 24  1  0
 24 25  1  0
 25 26  1  0
 26 27  1  0
 27 28  1  0
 28 29  1  0
 28 30  1  0
 30 31  1  0
 23 32  2  0
 32  6  1  0
 20 13  1  0
 31 25  1  0
  1 33  1  0
  1 34  1  0
  1 35  1  0
  2 36  1  0
  2 37  1  0
  3 38  1  0
  3 39  1  0
  4 40  1  0
  4 41  1  0
  5 42  1  0
  8 43  1  0
 12 44  1  0
 14 45  1  0
 17 46  1  0
 17 47  1  0
 17 48  1  0
 18 49  1  0
 19 50  1  0
 22 51  1  0
 22 52  1  0
 22 53  1  0
 24 54  1  0
 25 55  1  6
 26 56  1  0
 26 57  1  0
 27 58  1  0
 27 59  1  0
 28 60  1  1
 29 61  1  0
 30 62  1  0
 30 63  1  0
 31 64  1  0
 31 65  1  0
M  END
$$$$
