@<TRIPOS>MOLECULE
*****
 48 51 0 0 0
SMALL
GASTEIGER

@<TRIPOS>ATOM
      1 C           6.8232   -0.9503   -0.9165 C.3     1  UNL1       -0.0455
      2 C           5.8335   -2.0069   -0.4838 C.3     1  UNL1        0.0387
      3 N           4.4649   -1.5459   -0.6385 N.ar    1  UNL1       -0.2711
      4 C           3.7076   -0.8932    0.2726 C.ar    1  UNL1        0.0347
      5 C           2.4695   -0.6369   -0.2704 C.ar    1  UNL1        0.0379
      6 C           1.3750    0.0516    0.4076 C.ar    1  UNL1        0.0798
      7 C           1.5000    0.5191    1.6989 C.ar    1  UNL1       -0.0076
      8 C           0.5103    1.1702    2.3832 C.ar    1  UNL1        0.0999
      9 N           0.3801    1.7136    3.6206 N.ar    1  UNL1       -0.1712
     10 N          -0.8326    2.2265    3.7452 N.ar    1  UNL1       -0.2732
     11 C          -1.4099    2.9074    4.8990 C.3     1  UNL1        0.0302
     12 C          -1.5312    2.0382    2.6048 C.ar    1  UNL1        0.0380
     13 C          -0.6938    1.3689    1.7288 C.ar    1  UNL1        0.0812
     14 C          -0.8099    0.9007    0.4444 C.ar    1  UNL1        0.2265
     15 O          -2.0335    1.1105   -0.2009 O.3     1  UNL1       -0.4725
     16 C          -2.2682    0.6692   -1.5315 C.3     1  UNL1        0.1037
     17 C          -2.6688    1.8859   -2.3365 C.3     1  UNL1       -0.0274
     18 C          -3.4418   -0.2776   -1.4751 C.3     1  UNL1        0.0196
     19 C          -3.7877   -0.8186   -2.8544 C.3     1  UNL1        0.0182
     20 N          -4.6348   -1.9444   -2.5161 N.am    1  UNL1       -0.3149
     21 C          -4.1437   -2.4855   -1.2970 C.2     1  UNL1        0.2135
     22 O          -4.5496   -3.5740   -0.8057 O.2     1  UNL1       -0.2758
     23 C          -3.0995   -1.5546   -0.7364 C.3     1  UNL1        0.0315
     24 N           0.1904    0.2631   -0.1962 N.ar    1  UNL1       -0.2121
     25 C           2.4987   -1.1567   -1.5450 C.ar    1  UNL1        0.0586
     26 N           3.7382   -1.6999   -1.7198 N.ar    1  UNL1       -0.1790
     27 H           6.3768    0.0642   -0.9245 H       1  UNL1        0.0247
     28 H           7.7211   -1.0329   -0.2823 H       1  UNL1        0.0247
     29 H           7.1423   -1.1671   -1.9563 H       1  UNL1        0.0247
     30 H           6.0276   -2.3202    0.5742 H       1  UNL1        0.0506
     31 H           5.9676   -2.9242   -1.0995 H       1  UNL1        0.0506
     32 H           4.0539   -0.6370    1.2458 H       1  UNL1        0.0833
     33 H           2.4557    0.3593    2.2130 H       1  UNL1        0.0661
     34 H          -1.5298    4.0038    4.6953 H       1  UNL1        0.0473
     35 H          -2.3914    2.4533    5.0727 H       1  UNL1        0.0473
     36 H          -0.7621    2.8261    5.7842 H       1  UNL1        0.0473
     37 H          -2.5413    2.3252    2.3573 H       1  UNL1        0.0834
     38 H          -1.3912    0.1685   -1.9470 H       1  UNL1        0.0734
     39 H          -3.3219    2.5094   -1.7022 H       1  UNL1        0.0265
     40 H          -3.1310    1.5874   -3.2781 H       1  UNL1        0.0265
     41 H          -1.7190    2.4730   -2.4918 H       1  UNL1        0.0265
     42 H          -4.3245    0.1516   -1.0033 H       1  UNL1        0.0356
     43 H          -4.2745   -0.0877   -3.4974 H       1  UNL1        0.0466
     44 H          -2.8619   -1.2551   -3.3149 H       1  UNL1        0.0466
     45 H          -5.4434   -2.2628   -3.0896 H       1  UNL1        0.1487
     46 H          -3.2227   -1.4450    0.3597 H       1  UNL1        0.0363
     47 H          -2.1134   -1.9311   -1.0351 H       1  UNL1        0.0363
     48 H           1.6967   -1.1392   -2.2688 H       1  UNL1        0.0854
@<TRIPOS>BOND
     1     1     2    1
     2     2     3    1
     3     3     4   ar
     4     4     5   ar
     5     5     6    1
     6     6     7   ar
     7     7     8   ar
     8     8     9   ar
     9     9    10   ar
    10    10    11    1
    11    10    12   ar
    12    12    13   ar
    13    13    14   ar
    14    14    15    1
    15    15    16    1
    16    16    17    1
    17    16    18    1
    18    18    19    1
    19    19    20    1
    20    20    21   am
    21    21    22    2
    22    21    23    1
    23    14    24   ar
    24     5    25   ar
    25    25    26   ar
    26    26     3   ar
    27    24     6   ar
    28    13     8   ar
    29    23    18    1
    30     1    27    1
    31     1    28    1
    32     1    29    1
    33     2    30    1
    34     2    31    1
    35     4    32    1
    36     7    33    1
    37    11    34    1
    38    11    35    1
    39    11    36    1
    40    12    37    1
    41    16    38    1
    42    17    39    1
    43    17    40    1
    44    17    41    1
    45    18    42    1
    46    19    43    1
    47    19    44    1
    48    20    45    1
    49    23    46    1
    50    23    47    1
    51    25    48    1
