@<TRIPOS>MOLECULE
*****
 29 31 0 0 0
SMALL
GASTEIGER

@<TRIPOS>ATOM
      1 O          -4.1229   -2.0266    1.5353 O.3     1  UNL1       -0.5032
      2 C          -2.9333   -1.4670    1.0891 C.ar    1  UNL1        0.1620
      3 C          -2.6962   -0.8051   -0.1185 C.ar    1  UNL1       -0.0157
      4 C          -1.4350   -0.3136   -0.3850 C.ar    1  UNL1       -0.0468
      5 C          -0.4447   -0.4937    0.5551 C.ar    1  UNL1        0.0292
      6 C          -0.6265   -1.1378    1.7600 C.ar    1  UNL1        0.1845
      7 O           0.3708   -1.2719    2.6155 O.2     1  UNL1       -0.4183
      8 C           1.5658   -0.7927    2.3382 C.ar    1  UNL1        0.3379
      9 O           2.4244   -0.9861    3.2345 O.2     1  UNL1       -0.2452
     10 C           1.7936   -0.1427    1.1478 C.ar    1  UNL1        0.0313
     11 C           0.7777    0.0312    0.1990 C.ar    1  UNL1       -0.0003
     12 C           1.1772    0.7136   -1.0212 C.ar    1  UNL1       -0.0170
     13 C           1.0367    0.3576   -2.3467 C.ar    1  UNL1       -0.0540
     14 C           1.4890    1.1928   -3.3433 C.ar    1  UNL1       -0.0612
     15 C           2.0968    2.4086   -3.0786 C.ar    1  UNL1       -0.0617
     16 C           2.2381    2.7639   -1.7705 C.ar    1  UNL1       -0.0612
     17 C           1.7911    1.9407   -0.7604 C.ar    1  UNL1       -0.0540
     18 C          -1.9085   -1.6209    1.9974 C.ar    1  UNL1        0.2022
     19 O          -2.0379   -2.2688    3.2398 O.3     1  UNL1       -0.5009
     20 H          -5.0385   -1.7451    1.2005 H       1  UNL1        0.2923
     21 H          -3.5526   -0.7394   -0.7506 H       1  UNL1        0.0655
     22 H          -1.2881    0.1922   -1.3082 H       1  UNL1        0.0626
     23 H           2.8340    0.1930    1.0729 H       1  UNL1        0.0695
     24 H           0.5707   -0.5936   -2.4886 H       1  UNL1        0.0624
     25 H           1.3132    0.7878   -4.3341 H       1  UNL1        0.0618
     26 H           2.3856    2.9266   -3.9790 H       1  UNL1        0.0618
     27 H           2.7200    3.7240   -1.6097 H       1  UNL1        0.0618
     28 H           1.9686    2.3492    0.2326 H       1  UNL1        0.0624
     29 H          -2.4689   -3.1761    3.3351 H       1  UNL1        0.2924
@<TRIPOS>BOND
     1     1     2    1
     2     2     3   ar
     3     3     4   ar
     4     4     5   ar
     5     5     6   ar
     6     6     7   ar
     7     7     8   ar
     8     8     9    2
     9     8    10   ar
    10    10    11   ar
    11    11    12    1
    12    12    13   ar
    13    13    14   ar
    14    14    15   ar
    15    15    16   ar
    16    16    17   ar
    17     6    18   ar
    18    18    19    1
    19    18     2   ar
    20    11     5   ar
    21    17    12   ar
    22     1    20    1
    23     3    21    1
    24     4    22    1
    25    10    23    1
    26    13    24    1
    27    14    25    1
    28    15    26    1
    29    16    27    1
    30    17    28    1
    31    19    29    1
