@<TRIPOS>MOLECULE
*****
 46 49 0 0 0
SMALL
GASTEIGER

@<TRIPOS>ATOM
      1 C           6.4795   -1.1028   -2.6198 C.3     1  UNL1        0.0004
      2 N           5.9705   -0.5049   -1.3830 N.am    1  UNL1       -0.3144
      3 C           5.0904    0.6171   -1.2122 C.2     1  UNL1        0.2449
      4 O           4.7960    1.0229   -2.3531 O.2     1  UNL1       -0.2702
      5 C           4.9011    0.8239    0.2146 C.ar    1  UNL1        0.0504
      6 C           4.1423   -0.0307    0.9363 C.ar    1  UNL1        0.0248
      7 S           3.2108   -1.4560    0.4336 S.3     1  UNL1       -0.0886
      8 C           1.4965   -1.1374    0.1561 C.ar    1  UNL1        0.0148
      9 C           0.7114   -0.8393   -0.9310 C.ar    1  UNL1       -0.0472
     10 C          -0.6466   -0.6264   -0.8412 C.ar    1  UNL1       -0.0494
     11 C          -1.2883   -0.7094    0.4018 C.ar    1  UNL1        0.0268
     12 C          -0.5402   -1.0070    1.5402 C.ar    1  UNL1        0.0674
     13 N          -1.4589   -1.0012    2.5144 N.ar    1  UNL1       -0.2764
     14 N          -2.6507   -0.7256    2.0123 N.ar    1  UNL1       -0.1733
     15 C          -2.6173   -0.5325    0.6846 C.ar    1  UNL1        0.0932
     16 C          -3.7630   -0.2490   -0.1642 C.2     1  UNL1       -0.0320
     17 C          -4.9480   -0.0649    0.3919 C.2     1  UNL1       -0.0342
     18 C          -6.2117    0.2329   -0.3151 C.ar    1  UNL1        0.0639
     19 C          -7.3519    0.3953    0.4773 C.ar    1  UNL1       -0.0363
     20 C          -8.5231    0.6592   -0.2663 C.ar    1  UNL1       -0.0583
     21 C          -8.4657    0.7317   -1.6316 C.ar    1  UNL1       -0.0436
     22 C          -7.3153    0.5642   -2.3730 C.ar    1  UNL1        0.0282
     23 N          -6.1932    0.3132   -1.6549 N.ar    1  UNL1       -0.2556
     24 C           0.8364   -1.2144    1.3883 C.ar    1  UNL1       -0.0225
     25 C           4.0581    0.2158    2.2930 C.ar    1  UNL1       -0.0473
     26 C           4.7197    1.2813    2.8680 C.ar    1  UNL1       -0.0607
     27 C           5.4815    2.1281    2.1045 C.ar    1  UNL1       -0.0610
     28 C           5.5748    1.8985    0.7538 C.ar    1  UNL1       -0.0486
     29 H           6.0611   -2.1152   -2.7607 H       1  UNL1        0.0426
     30 H           7.5997   -1.2409   -2.5546 H       1  UNL1        0.0426
     31 H           6.2490   -0.4475   -3.4957 H       1  UNL1        0.0426
     32 H           6.3982   -1.1073   -0.6113 H       1  UNL1        0.1487
     33 H           1.3443   -0.8126   -1.8126 H       1  UNL1        0.0629
     34 H          -1.1506   -0.4054   -1.7707 H       1  UNL1        0.0625
     35 H          -1.2136   -1.1981    3.5316 H       1  UNL1        0.1889
     36 H          -3.7514   -0.1694   -1.2369 H       1  UNL1        0.0640
     37 H          -4.9866   -0.1514    1.4829 H       1  UNL1        0.0639
     38 H          -7.3823    0.3421    1.5519 H       1  UNL1        0.0639
     39 H          -9.4133    0.7859    0.3654 H       1  UNL1        0.0619
     40 H          -9.4426    0.9365   -2.1121 H       1  UNL1        0.0633
     41 H          -7.4171    0.6526   -3.4384 H       1  UNL1        0.0830
     42 H           1.2422   -1.4310    2.3786 H       1  UNL1        0.0650
     43 H           3.4990   -0.3671    3.0237 H       1  UNL1        0.0629
     44 H           4.6836    1.5114    3.9348 H       1  UNL1        0.0618
     45 H           6.0135    2.9740    2.5307 H       1  UNL1        0.0618
     46 H           6.1717    2.5606    0.1552 H       1  UNL1        0.0625
@<TRIPOS>BOND
     1     1     2    1
     2     2     3   am
     3     3     4    2
     4     3     5    1
     5     5     6   ar
     6     6     7    1
     7     7     8    1
     8     8     9   ar
     9     9    10   ar
    10    10    11   ar
    11    11    12   ar
    12    12    13   ar
    13    13    14   ar
    14    14    15   ar
    15    15    16    1
    16    16    17    2
    17    17    18    1
    18    18    19   ar
    19    19    20   ar
    20    20    21   ar
    21    21    22   ar
    22    22    23   ar
    23    12    24   ar
    24     6    25   ar
    25    25    26   ar
    26    26    27   ar
    27    27    28   ar
    28    28     5   ar
    29    24     8   ar
    30    15    11   ar
    31    23    18   ar
    32     1    29    1
    33     1    30    1
    34     1    31    1
    35     2    32    1
    36     9    33    1
    37    10    34    1
    38    13    35    1
    39    16    36    1
    40    17    37    1
    41    19    38    1
    42    20    39    1
    43    21    40    1
    44    22    41    1
    45    24    42    1
    46    25    43    1
    47    26    44    1
    48    27    45    1
    49    28    46    1
