@<TRIPOS>MOLECULE
*****
 46 48 0 0 0
SMALL
GASTEIGER

@<TRIPOS>ATOM
      1 N           4.5710   -0.0626    3.4837 N.3     1  UNL1       -0.2702
      2 N           4.7423    1.3274    3.4204 N.3     1  UNL1       -0.2549
      3 C           5.0857    1.7563    2.0776 C.3     1  UNL1        0.0355
      4 C           3.9912    1.3768    1.1256 C.ar    1  UNL1       -0.0322
      5 C           4.0476    0.1444    0.4998 C.ar    1  UNL1       -0.0566
      6 C           3.0391   -0.2105   -0.3798 C.ar    1  UNL1       -0.0493
      7 C           1.9750    0.6176   -0.6596 C.ar    1  UNL1        0.0370
      8 C           0.9388    0.2035   -1.5900 C.2     1  UNL1        0.2483
      9 O           1.0338   -0.9342   -2.1379 O.2     1  UNL1       -0.2699
     10 N          -0.1943    0.9718   -1.9495 N.am    1  UNL1       -0.2808
     11 C          -1.1810    0.5230   -2.8647 C.ar    1  UNL1        0.0459
     12 C          -1.0389    0.7850   -4.2264 C.ar    1  UNL1       -0.0384
     13 C          -2.0126    0.3394   -5.1119 C.ar    1  UNL1       -0.0416
     14 C          -3.0968   -0.3499   -4.6354 C.ar    1  UNL1        0.0418
     15 CL         -4.3272   -0.9157   -5.7346 Cl      1  UNL1       -0.0835
     16 C          -3.2175   -0.6011   -3.2616 C.ar    1  UNL1       -0.0295
     17 C          -2.2654   -0.1685   -2.3719 C.ar    1  UNL1        0.0596
     18 C          -2.3383   -0.3962   -0.9380 C.2     1  UNL1        0.2511
     19 O          -1.4253    0.0414   -0.1899 O.2     1  UNL1       -0.2697
     20 N          -3.4025   -1.0979   -0.3268 N.am    1  UNL1       -0.2663
     21 C          -3.5712   -1.3733    1.0430 C.ar    1  UNL1        0.1252
     22 C          -2.7605   -1.0326    2.0800 C.ar    1  UNL1       -0.0201
     23 C          -3.0435   -1.3698    3.4114 C.ar    1  UNL1       -0.0387
     24 C          -4.1853   -2.0769    3.7129 C.ar    1  UNL1        0.0592
     25 CL         -4.5836   -2.5229    5.3638 Cl      1  UNL1       -0.0820
     26 C          -4.9943   -2.4132    2.6491 C.ar    1  UNL1        0.0480
     27 N          -4.6916   -2.0735    1.3887 N.ar    1  UNL1       -0.2387
     28 C           1.9452    1.8358   -0.0233 C.ar    1  UNL1       -0.0493
     29 C           2.9488    2.2177    0.8675 C.ar    1  UNL1       -0.0566
     30 H           5.4350   -0.4744    3.0511 H       1  UNL1        0.1368
     31 H           4.4727   -0.4048    4.4532 H       1  UNL1        0.1368
     32 H           5.4704    1.6635    4.0708 H       1  UNL1        0.1407
     33 H           5.9863    1.1793    1.7817 H       1  UNL1        0.0487
     34 H           5.3498    2.8129    2.0232 H       1  UNL1        0.0487
     35 H           4.8823   -0.5076    0.7177 H       1  UNL1        0.0621
     36 H           3.0932   -1.1740   -0.8622 H       1  UNL1        0.0625
     37 H          -0.3094    1.9011   -1.5274 H       1  UNL1        0.1552
     38 H          -0.1880    1.3260   -4.6010 H       1  UNL1        0.0637
     39 H          -1.8534    0.5693   -6.1561 H       1  UNL1        0.0633
     40 H          -4.0882   -1.1472   -2.9341 H       1  UNL1        0.0640
     41 H          -4.1359   -1.4361   -1.0333 H       1  UNL1        0.1566
     42 H          -1.8648   -0.4827    1.8809 H       1  UNL1        0.0652
     43 H          -2.3730   -1.0801    4.2074 H       1  UNL1        0.0634
     44 H          -5.8917   -2.9691    2.8873 H       1  UNL1        0.0845
     45 H           1.1177    2.5049   -0.2273 H       1  UNL1        0.0625
     46 H           2.9084    3.1777    1.3574 H       1  UNL1        0.0621
@<TRIPOS>BOND
     1     1     2    1
     2     2     3    1
     3     3     4    1
     4     4     5   ar
     5     5     6   ar
     6     6     7   ar
     7     7     8    1
     8     8     9    2
     9     8    10   am
    10    10    11    1
    11    11    12   ar
    12    12    13   ar
    13    13    14   ar
    14    14    15    1
    15    14    16   ar
    16    16    17   ar
    17    17    18    1
    18    18    19    2
    19    18    20   am
    20    20    21    1
    21    21    22   ar
    22    22    23   ar
    23    23    24   ar
    24    24    25    1
    25    24    26   ar
    26    26    27   ar
    27     7    28   ar
    28    28    29   ar
    29    29     4   ar
    30    17    11   ar
    31    27    21   ar
    32     1    30    1
    33     1    31    1
    34     2    32    1
    35     3    33    1
    36     3    34    1
    37     5    35    1
    38     6    36    1
    39    10    37    1
    40    12    38    1
    41    13    39    1
    42    16    40    1
    43    20    41    1
    44    22    42    1
    45    23    43    1
    46    26    44    1
    47    28    45    1
    48    29    46    1
