
     RDKit          3D

 46 48  0  0  0  0  0  0  0  0999 V2000
    4.5710   -0.0626    3.4837 N   0  0  0  0  0  0  0  0  0  0  0  0
    4.7423    1.3274    3.4204 N   0  0  0  0  0  0  0  0  0  0  0  0
    5.0857    1.7563    2.0776 C   0  0  0  0  0  0  0  0  0  0  0  0
    3.9912    1.3768    1.1256 C   0  0  0  0  0  0  0  0  0  0  0  0
    4.0476    0.1444    0.4998 C   0  0  0  0  0  0  0  0  0  0  0  0
    3.0391   -0.2105   -0.3798 C   0  0  0  0  0  0  0  0  0  0  0  0
    1.9750    0.6176   -0.6596 C   0  0  0  0  0  0  0  0  0  0  0  0
    0.9388    0.2035   -1.5900 C   0  0  0  0  0  0  0  0  0  0  0  0
    1.0338   -0.9342   -2.1379 O   0  0  0  0  0  0  0  0  0  0  0  0
   -0.1943    0.9718   -1.9495 N   0  0  0  0  0  0  0  0  0  0  0  0
   -1.1810    0.5230   -2.8647 C   0  0  0  0  0  0  0  0  0  0  0  0
   -1.0389    0.7850   -4.2264 C   0  0  0  0  0  0  0  0  0  0  0  0
   -2.0126    0.3394   -5.1119 C   0  0  0  0  0  0  0  0  0  0  0  0
   -3.0968   -0.3499   -4.6354 C   0  0  0  0  0  0  0  0  0  0  0  0
   -4.3272   -0.9157   -5.7346 Cl  0  0  0  0  0  0  0  0  0  0  0  0
   -3.2175   -0.6011   -3.2616 C   0  0  0  0  0  0  0  0  0  0  0  0
   -2.2654   -0.1685   -2.3719 C   0  0  0  0  0  0  0  0  0  0  0  0
   -2.3383   -0.3962   -0.9380 C   0  0  0  0  0  0  0  0  0  0  0  0
   -1.4253    0.0414   -0.1899 O   0  0  0  0  0  0  0  0  0  0  0  0
   -3.4025   -1.0979   -0.3268 N   0  0  0  0  0  0  0  0  0  0  0  0
   -3.5712   -1.3733    1.0430 C   0  0  0  0  0  0  0  0  0  0  0  0
   -2.7605   -1.0326    2.0800 C   0  0  0  0  0  0  0  0  0  0  0  0
   -3.0435   -1.3698    3.4114 C   0  0  0  0  0  0  0  0  0  0  0  0
   -4.1853   -2.0769    3.7129 C   0  0  0  0  0  0  0  0  0  0  0  0
   -4.5836   -2.5229    5.3638 Cl  0  0  0  0  0  0  0  0  0  0  0  0
   -4.9943   -2.4132    2.6491 C   0  0  0  0  0  0  0  0  0  0  0  0
   -4.6916   -2.0735    1.3887 N   0  0  0  0  0  0  0  0  0  0  0  0
    1.9452    1.8358   -0.0233 C   0  0  0  0  0  0  0  0  0  0  0  0
    2.9488    2.2177    0.8675 C   0  0  0  0  0  0  0  0  0  0  0  0
    5.4350   -0.4744    3.0511 H   0  0  0  0  0  0  0  0  0  0  0  0
    4.4727   -0.4048    4.4532 H   0  0  0  0  0  0  0  0  0  0  0  0
    5.4704    1.6635    4.0708 H   0  0  0  0  0  0  0  0  0  0  0  0
    5.9863    1.1793    1.7817 H   0  0  0  0  0  0  0  0  0  0  0  0
    5.3498    2.8129    2.0232 H   0  0  0  0  0  0  0  0  0  0  0  0
    4.8823   -0.5076    0.7177 H   0  0  0  0  0  0  0  0  0  0  0  0
    3.0932   -1.1740   -0.8622 H   0  0  0  0  0  0  0  0  0  0  0  0
   -0.3094    1.9011   -1.5274 H   0  0  0  0  0  0  0  0  0  0  0  0
   -0.1880    1.3260   -4.6010 H   0  0  0  0  0  0  0  0  0  0  0  0
   -1.8534    0.5693   -6.1561 H   0  0  0  0  0  0  0  0  0  0  0  0
   -4.0882   -1.1472   -2.9341 H   0  0  0  0  0  0  0  0  0  0  0  0
   -4.1359   -1.4361   -1.0333 H   0  0  0  0  0  0  0  0  0  0  0  0
   -1.8648   -0.4827    1.8809 H   0  0  0  0  0  0  0  0  0  0  0  0
   -2.3730   -1.0801    4.2074 H   0  0  0  0  0  0  0  0  0  0  0  0
   -5.8917   -2.9691    2.8873 H   0  0  0  0  0  0  0  0  0  0  0  0
    1.1177    2.5049   -0.2273 H   0  0  0  0  0  0  0  0  0  0  0  0
    2.9084    3.1777    1.3574 H   0  0  0  0  0  0  0  0  0  0  0  0
  1  2  1  0
  2  3  1  0
  3  4  1  0
  4  5  2  0
  5  6  1  0
  6  7  2  0
  7  8  1  0
  8  9  2  0
  8 10  1  0
 10 11  1  0
 11 12  2  0
 12 13  1  0
 13 14  2  0
 14 15  1  0
 14 16  1  0
 16 17  2  0
 17 18  1  0
 18 19  2  0
 18 20  1  0
 20 21  1  0
 21 22  2  0
 22 23  1  0
 23 24  2  0
 24 25  1  0
 24 26  1  0
 26 27  2  0
  7 28  1  0
 28 29  2  0
 29  4  1  0
 17 11  1  0
 27 21  1  0
  1 30  1  0
  1 31  1  0
  2 32  1  0
  3 33  1  0
  3 34  1  0
  5 35  1  0
  6 36  1  0
 10 37  1  0
 12 38  1  0
 13 39  1  0
 16 40  1  0
 20 41  1  0
 22 42  1  0
 23 43  1  0
 26 44  1  0
 28 45  1  0
 29 46  1  0
M  END
$$$$
