
     RDKit          3D

 65 69  0  0  0  0  0  0  0  0999 V2000
    5.8253   -2.0919   -1.1486 C   0  0  0  0  0  0  0  0  0  0  0  0
    4.7978   -1.3803   -0.5504 O   0  0  0  0  0  0  0  0  0  0  0  0
    4.7572   -0.0446   -0.9011 C   0  0  2  0  0  0  0  0  0  0  0  0
    5.0271    0.8573    0.2421 C   0  0  0  0  0  0  0  0  0  0  0  0
    4.3752    2.0911    0.1179 O   0  0  0  0  0  0  0  0  0  0  0  0
    4.3786    2.5440   -1.1798 C   0  0  0  0  0  0  0  0  0  0  0  0
    3.4848    1.7469   -2.0726 C   0  0  0  0  0  0  0  0  0  0  0  0
    3.5125    0.2666   -1.6737 C   0  0  2  0  0  0  0  0  0  0  0  0
    2.2804   -0.2095   -1.2585 N   0  0  0  0  0  0  0  0  0  0  0  0
    1.5338    0.2379   -0.1914 C   0  0  2  0  0  0  0  0  0  0  0  0
    2.0880   -0.0949    1.1543 C   0  0  0  0  0  0  0  0  0  0  0  0
    0.9573   -0.6749    1.9832 C   0  0  1  0  0  0  0  0  0  0  0  0
    0.9499    0.0465    3.3280 C   0  0  0  0  0  0  0  0  0  0  0  0
    0.3789    1.4172    2.9845 C   0  0  0  0  0  0  0  0  0  0  0  0
   -0.5076    1.1802    1.7767 C   0  0  0  0  0  0  0  0  0  0  0  0
   -0.3176   -0.2023    1.2895 C   0  0  2  0  0  0  0  0  0  0  0  0
   -1.4247   -1.1393    1.5543 C   0  0  0  0  0  0  0  0  0  0  0  0
   -1.0918   -2.2388    2.1516 O   0  0  0  0  0  0  0  0  0  0  0  0
   -2.7820   -0.9845    1.2427 N   0  0  0  0  0  0  0  0  0  0  0  0
   -3.6680   -2.0979    1.6075 C   0  0  0  0  0  0  0  0  0  0  0  0
   -5.0965   -1.8562    1.2316 C   0  0  0  0  0  0  0  0  0  0  0  0
   -5.2558   -1.1514   -0.0402 C   0  0  0  0  0  0  0  0  0  0  0  0
   -6.2398   -1.4929   -0.8841 N   0  0  0  0  0  0  0  0  0  0  0  0
   -6.4139   -0.8688   -2.0637 C   0  0  0  0  0  0  0  0  0  0  0  0
   -5.5413    0.1475   -2.3888 C   0  0  0  0  0  0  0  0  0  0  0  0
   -5.7419    0.8283   -3.6927 C   0  0  0  0  0  0  0  0  0  0  0  0
   -4.5409    1.2914   -4.2237 F   0  0  0  0  0  0  0  0  0  0  0  0
   -6.3683   -0.0475   -4.5752 F   0  0  0  0  0  0  0  0  0  0  0  0
   -6.5641    1.9210   -3.4656 F   0  0  0  0  0  0  0  0  0  0  0  0
   -4.5148    0.5179   -1.5298 C   0  0  0  0  0  0  0  0  0  0  0  0
   -4.3801   -0.1492   -0.3397 C   0  0  0  0  0  0  0  0  0  0  0  0
   -3.3095    0.1977    0.6189 C   0  0  0  0  0  0  0  0  0  0  0  0
    0.1027   -0.3280   -0.1615 C   0  0  0  0  0  0  0  0  0  0  0  0
    5.7135   -2.0493   -2.2532 H   0  0  0  0  0  0  0  0  0  0  0  0
    6.7931   -1.7106   -0.8142 H   0  0  0  0  0  0  0  0  0  0  0  0
    5.6968   -3.1558   -0.8289 H   0  0  0  0  0  0  0  0  0  0  0  0
    5.6489    0.0641   -1.6265 H   0  0  0  0  0  0  0  0  0  0  0  0
    6.1233    1.1398    0.2242 H   0  0  0  0  0  0  0  0  0  0  0  0
    4.8914    0.4200    1.2456 H   0  0  0  0  0  0  0  0  0  0  0  0
    3.9904    3.5895   -1.1687 H   0  0  0  0  0  0  0  0  0  0  0  0
    5.4146    2.6190   -1.5727 H   0  0  0  0  0  0  0  0  0  0  0  0
    2.4597    2.1612   -2.0082 H   0  0  0  0  0  0  0  0  0  0  0  0
    3.8231    1.9184   -3.1126 H   0  0  0  0  0  0  0  0  0  0  0  0
    3.7063   -0.2437   -2.6856 H   0  0  0  0  0  0  0  0  0  0  0  0
    1.8595   -0.9901   -1.8074 H   0  0  0  0  0  0  0  0  0  0  0  0
    1.3439    1.3540   -0.1823 H   0  0  0  0  0  0  0  0  0  0  0  0
    2.8776   -0.8649    1.1749 H   0  0  0  0  0  0  0  0  0  0  0  0
    2.5351    0.7932    1.6665 H   0  0  0  0  0  0  0  0  0  0  0  0
    0.9626   -1.7546    2.0695 H   0  0  0  0  0  0  0  0  0  0  0  0
    1.9644    0.1739    3.7433 H   0  0  0  0  0  0  0  0  0  0  0  0
    0.3355   -0.4825    4.0680 H   0  0  0  0  0  0  0  0  0  0  0  0
   -0.1682    1.8594    3.8361 H   0  0  0  0  0  0  0  0  0  0  0  0
    1.2132    2.1301    2.7402 H   0  0  0  0  0  0  0  0  0  0  0  0
   -0.2779    1.9649    1.0116 H   0  0  0  0  0  0  0  0  0  0  0  0
   -1.5548    1.4136    2.1318 H   0  0  0  0  0  0  0  0  0  0  0  0
   -3.3265   -3.0268    1.1454 H   0  0  0  0  0  0  0  0  0  0  0  0
   -3.6214   -2.2514    2.7183 H   0  0  0  0  0  0  0  0  0  0  0  0
   -5.6650   -2.8041    1.1949 H   0  0  0  0  0  0  0  0  0  0  0  0
   -5.5719   -1.2450    2.0501 H   0  0  0  0  0  0  0  0  0  0  0  0
   -7.2206   -1.1712   -2.7210 H   0  0  0  0  0  0  0  0  0  0  0  0
   -3.8558    1.3078   -1.8100 H   0  0  0  0  0  0  0  0  0  0  0  0
   -3.7753    0.8785    1.3996 H   0  0  0  0  0  0  0  0  0  0  0  0
   -2.5591    0.8149    0.1103 H   0  0  0  0  0  0  0  0  0  0  0  0
    0.1176   -1.3787   -0.4496 H   0  0  0  0  0  0  0  0  0  0  0  0
   -0.5653    0.2878   -0.7710 H   0  0  0  0  0  0  0  0  0  0  0  0
  1  2  1  0
  2  3  1  0
  3  4  1  0
  4  5  1  0
  5  6  1  0
  6  7  1  0
  7  8  1  0
  8  9  1  0
  9 10  1  0
 10 11  1  0
 11 12  1  0
 12 13  1  0
 13 14  1  0
 14 15  1  0
 15 16  1  0
 16 17  1  6
 17 18  2  0
 17 19  1  0
 19 20  1  0
 20 21  1  0
 21 22  1  0
 22 23  2  0
 23 24  1  0
 24 25  2  0
 25 26  1  0
 26 27  1  0
 26 28  1  0
 26 29  1  0
 25 30  1  0
 30 31  2  0
 31 32  1  0
 16 33  1  0
  8  3  1  0
 33 10  1  0
 16 12  1  0
 32 19  1  0
 31 22  1  0
  1 34  1  0
  1 35  1  0
  1 36  1  0
  3 37  1  6
  4 38  1  0
  4 39  1  0
  6 40  1  0
  6 41  1  0
  7 42  1  0
  7 43  1  0
  8 44  1  6
  9 45  1  0
 10 46  1  1
 11 47  1  0
 11 48  1  0
 12 49  1  1
 13 50  1  0
 13 51  1  0
 14 52  1  0
 14 53  1  0
 15 54  1  0
 15 55  1  0
 20 56  1  0
 20 57  1  0
 21 58  1  0
 21 59  1  0
 24 60  1  0
 30 61  1  0
 32 62  1  0
 32 63  1  0
 33 64  1  0
 33 65  1  0
M  END
$$$$
