@<TRIPOS>MOLECULE
*****
 65 69 0 0 0
SMALL
GASTEIGER

@<TRIPOS>ATOM
      1 C           5.8253   -2.0919   -1.1486 C.3     1  UNL1        0.0370
      2 O           4.7978   -1.3803   -0.5504 O.3     1  UNL1       -0.3760
      3 C           4.7572   -0.0446   -0.9011 C.3     1  UNL1        0.0969
      4 C           5.0271    0.8573    0.2421 C.3     1  UNL1        0.0753
      5 O           4.3752    2.0911    0.1179 O.3     1  UNL1       -0.3771
      6 C           4.3786    2.5440   -1.1798 C.3     1  UNL1        0.0493
      7 C           3.4848    1.7469   -2.0726 C.3     1  UNL1       -0.0115
      8 C           3.5125    0.2666   -1.6737 C.3     1  UNL1        0.0383
      9 N           2.2804   -0.2095   -1.2585 N.3     1  UNL1       -0.3079
     10 C           1.5338    0.2379   -0.1914 C.3     1  UNL1        0.0092
     11 C           2.0880   -0.0949    1.1543 C.3     1  UNL1       -0.0337
     12 C           0.9573   -0.6749    1.9832 C.3     1  UNL1       -0.0256
     13 C           0.9499    0.0465    3.3280 C.3     1  UNL1       -0.0492
     14 C           0.3789    1.4172    2.9845 C.3     1  UNL1       -0.0518
     15 C          -0.5076    1.1802    1.7767 C.3     1  UNL1       -0.0387
     16 C          -0.3176   -0.2023    1.2895 C.3     1  UNL1        0.0514
     17 C          -1.4247   -1.1393    1.5543 C.2     1  UNL1        0.2223
     18 O          -1.0918   -2.2388    2.1516 O.2     1  UNL1       -0.2750
     19 N          -2.7820   -0.9845    1.2427 N.am    1  UNL1       -0.2963
     20 C          -3.6680   -2.0979    1.6075 C.3     1  UNL1        0.0204
     21 C          -5.0965   -1.8562    1.2316 C.3     1  UNL1        0.0058
     22 C          -5.2558   -1.1514   -0.0402 C.ar    1  UNL1        0.0474
     23 N          -6.2398   -1.4929   -0.8841 N.ar    1  UNL1       -0.2590
     24 C          -6.4139   -0.8688   -2.0637 C.ar    1  UNL1        0.0395
     25 C          -5.5413    0.1475   -2.3888 C.ar    1  UNL1        0.0732
     26 C          -5.7419    0.8283   -3.6927 C.3     1  UNL1        0.4188
     27 F          -4.5409    1.2914   -4.2237 F       1  UNL1       -0.1658
     28 F          -6.3683   -0.0475   -4.5752 F       1  UNL1       -0.1658
     29 F          -6.5641    1.9210   -3.4656 F       1  UNL1       -0.1658
     30 C          -4.5148    0.5179   -1.5298 C.ar    1  UNL1       -0.0423
     31 C          -4.3801   -0.1492   -0.3397 C.ar    1  UNL1       -0.0083
     32 C          -3.3095    0.1977    0.6189 C.3     1  UNL1        0.0414
     33 C           0.1027   -0.3280   -0.1615 C.3     1  UNL1       -0.0233
     34 H           5.7135   -2.0493   -2.2532 H       1  UNL1        0.0524
     35 H           6.7931   -1.7106   -0.8142 H       1  UNL1        0.0524
     36 H           5.6968   -3.1558   -0.8289 H       1  UNL1        0.0524
     37 H           5.6489    0.0641   -1.6265 H       1  UNL1        0.0634
     38 H           6.1233    1.1398    0.2242 H       1  UNL1        0.0586
     39 H           4.8914    0.4200    1.2456 H       1  UNL1        0.0586
     40 H           3.9904    3.5895   -1.1687 H       1  UNL1        0.0560
     41 H           5.4146    2.6190   -1.5727 H       1  UNL1        0.0560
     42 H           2.4597    2.1612   -2.0082 H       1  UNL1        0.0303
     43 H           3.8231    1.9184   -3.1126 H       1  UNL1        0.0303
     44 H           3.7063   -0.2437   -2.6856 H       1  UNL1        0.0487
     45 H           1.8595   -0.9901   -1.8074 H       1  UNL1        0.1225
     46 H           1.3439    1.3540   -0.1823 H       1  UNL1        0.0461
     47 H           2.8776   -0.8649    1.1749 H       1  UNL1        0.0283
     48 H           2.5351    0.7932    1.6665 H       1  UNL1        0.0283
     49 H           0.9626   -1.7546    2.0695 H       1  UNL1        0.0311
     50 H           1.9644    0.1739    3.7433 H       1  UNL1        0.0268
     51 H           0.3355   -0.4825    4.0680 H       1  UNL1        0.0268
     52 H          -0.1682    1.8594    3.8361 H       1  UNL1        0.0266
     53 H           1.2132    2.1301    2.7402 H       1  UNL1        0.0266
     54 H          -0.2779    1.9649    1.0116 H       1  UNL1        0.0275
     55 H          -1.5548    1.4136    2.1318 H       1  UNL1        0.0275
     56 H          -3.3265   -3.0268    1.1454 H       1  UNL1        0.0468
     57 H          -3.6214   -2.2514    2.7183 H       1  UNL1        0.0468
     58 H          -5.6650   -2.8041    1.1949 H       1  UNL1        0.0344
     59 H          -5.5719   -1.2450    2.0501 H       1  UNL1        0.0344
     60 H          -7.2206   -1.1712   -2.7210 H       1  UNL1        0.0835
     61 H          -3.8558    1.3078   -1.8100 H       1  UNL1        0.0627
     62 H          -3.7753    0.8785    1.3996 H       1  UNL1        0.0514
     63 H          -2.5591    0.8149    0.1103 H       1  UNL1        0.0514
     64 H           0.1176   -1.3787   -0.4496 H       1  UNL1        0.0290
     65 H          -0.5653    0.2878   -0.7710 H       1  UNL1        0.0290
@<TRIPOS>BOND
     1     1     2    1
     2     2     3    1
     3     3     4    1
     4     4     5    1
     5     5     6    1
     6     6     7    1
     7     7     8    1
     8     8     9    1
     9     9    10    1
    10    10    11    1
    11    11    12    1
    12    12    13    1
    13    13    14    1
    14    14    15    1
    15    15    16    1
    16    16    17    1
    17    17    18    2
    18    17    19   am
    19    19    20    1
    20    20    21    1
    21    21    22    1
    22    22    23   ar
    23    23    24   ar
    24    24    25   ar
    25    25    26    1
    26    26    27    1
    27    26    28    1
    28    26    29    1
    29    25    30   ar
    30    30    31   ar
    31    31    32    1
    32    16    33    1
    33     8     3    1
    34    33    10    1
    35    16    12    1
    36    32    19    1
    37    31    22   ar
    38     1    34    1
    39     1    35    1
    40     1    36    1
    41     3    37    1
    42     4    38    1
    43     4    39    1
    44     6    40    1
    45     6    41    1
    46     7    42    1
    47     7    43    1
    48     8    44    1
    49     9    45    1
    50    10    46    1
    51    11    47    1
    52    11    48    1
    53    12    49    1
    54    13    50    1
    55    13    51    1
    56    14    52    1
    57    14    53    1
    58    15    54    1
    59    15    55    1
    60    20    56    1
    61    20    57    1
    62    21    58    1
    63    21    59    1
    64    24    60    1
    65    30    61    1
    66    32    62    1
    67    32    63    1
    68    33    64    1
    69    33    65    1
