@<TRIPOS>MOLECULE
*****
 36 39 0 0 0
SMALL
GASTEIGER

@<TRIPOS>ATOM
      1 C          -3.6788    0.3442   -1.1058 C.3     1  UNL1        0.0837
      2 O          -3.1410    1.6290   -0.9551 O.3     1  UNL1       -0.3894
      3 C          -4.6959    0.1651    0.0301 C.3     1  UNL1       -0.0087
      4 C          -3.8020    0.1219    1.2294 C.3     1  UNL1        0.0195
      5 N          -2.4876   -0.2842    0.7360 N.am    1  UNL1       -0.2707
      6 C          -1.1373   -0.4468    1.0679 C.2     1  UNL1        0.3163
      7 O          -0.7452   -0.4597    2.2833 O.2     1  UNL1       -0.2516
      8 N          -0.3764   -0.5814   -0.1508 N.am    1  UNL1       -0.1919
      9 C          -1.3171   -0.4938   -1.2158 C.2     1  UNL1        0.2505
     10 O          -0.8585   -0.2854   -2.3764 O.2     1  UNL1       -0.2726
     11 C          -2.6596   -0.6775   -0.6694 C.3     1  UNL1        0.1303
     12 C           1.0461   -0.7596   -0.0292 C.ar    1  UNL1        0.0532
     13 C           1.4991   -2.0801    0.0613 C.ar    1  UNL1       -0.0380
     14 C           2.8064   -2.4300    0.1807 C.ar    1  UNL1       -0.0420
     15 C           3.7486   -1.4365    0.2158 C.ar    1  UNL1        0.0596
     16 C           5.1548   -1.7191    0.3403 C.1     1  UNL1        0.0998
     17 N           6.2966   -1.9475    0.4422 N.1     1  UNL1       -0.1909
     18 C           3.3278   -0.1070    0.1275 C.ar    1  UNL1        0.0013
     19 C           4.2562    0.9143    0.1603 C.ar    1  UNL1       -0.0527
     20 C           3.8228    2.2230    0.0719 C.ar    1  UNL1       -0.0611
     21 C           2.4753    2.5344   -0.0492 C.ar    1  UNL1       -0.0611
     22 C           1.5272    1.5127   -0.0836 C.ar    1  UNL1       -0.0522
     23 C           1.9957    0.2376    0.0063 C.ar    1  UNL1        0.0052
     24 H          -4.1124    0.1672   -2.0966 H       1  UNL1        0.0617
     25 H          -3.8709    2.1986   -0.6026 H       1  UNL1        0.2099
     26 H          -5.1664   -0.8554   -0.0611 H       1  UNL1        0.0306
     27 H          -5.4385    0.9737    0.0297 H       1  UNL1        0.0306
     28 H          -3.7425    1.1521    1.6372 H       1  UNL1        0.0466
     29 H          -4.1113   -0.6295    1.9595 H       1  UNL1        0.0466
     30 H          -3.0827   -1.6828   -0.7436 H       1  UNL1        0.0624
     31 H           0.7910   -2.9182    0.0387 H       1  UNL1        0.0637
     32 H           3.1251   -3.4472    0.2480 H       1  UNL1        0.0631
     33 H           5.3355    0.7239    0.2548 H       1  UNL1        0.0624
     34 H           4.5905    3.0085    0.1014 H       1  UNL1        0.0618
     35 H           2.1480    3.5834   -0.1185 H       1  UNL1        0.0618
     36 H           0.4774    1.7522   -0.1777 H       1  UNL1        0.0624
@<TRIPOS>BOND
     1     1     2    1
     2     1     3    1
     3     3     4    1
     4     4     5    1
     5     5     6   am
     6     6     7    2
     7     6     8   am
     8     8     9   am
     9     9    10    2
    10     9    11    1
    11     8    12    1
    12    12    13   ar
    13    13    14   ar
    14    14    15   ar
    15    15    16    1
    16    16    17    3
    17    15    18   ar
    18    18    19   ar
    19    19    20   ar
    20    20    21   ar
    21    21    22   ar
    22    22    23   ar
    23    11     1    1
    24    23    12   ar
    25    11     5    1
    26    23    18   ar
    27     1    24    1
    28     2    25    1
    29     3    26    1
    30     3    27    1
    31     4    28    1
    32     4    29    1
    33    11    30    1
    34    13    31    1
    35    14    32    1
    36    19    33    1
    37    20    34    1
    38    21    35    1
    39    22    36    1
