@<TRIPOS>MOLECULE
*****
 65 64 0 0 0
SMALL
GASTEIGER

@<TRIPOS>ATOM
      1 C          -5.4953    0.3121    2.8041 C.3     0  UNK0        0.0122
      2 C          -4.3596    0.5422    1.8416 C.2     0  UNK0        0.2105
      3 O          -3.2306    0.0254    2.1191 O.2     0  UNK0       -0.2761
      4 N          -4.5958    1.3173    0.6793 N.am    1  ASP1       -0.3037
      5 CA         -3.5120    1.5438   -0.2471 C.3     1  ASP1        0.1094
      6 CB         -2.4282    2.3404    0.4823 C.3     1  ASP1        0.0716
      7 CG         -3.0504    3.6170    0.9156 C.2     1  ASP1        0.3070
      8 OD1        -3.1893    4.5269    0.0461 O.2     1  ASP1       -0.2509
      9 OD2        -3.4821    3.8705    2.1940 O.3     1  ASP1       -0.4806
     10 C          -2.9837    0.2690   -0.7665 C.2     1  ASP1        0.2345
     11 O          -3.5027   -0.8032   -0.3675 O.2     1  ASP1       -0.2737
     12 N          -1.9183    0.2472   -1.6924 N.am    2  GLU2       -0.3025
     13 CA         -1.3843   -1.0175   -2.2158 C.3     2  GLU2        0.0999
     14 CB         -1.5304   -1.0629   -3.7052 C.3     2  GLU2       -0.0159
     15 CG         -1.0281   -2.2937   -4.3793 C.3     2  GLU2        0.0469
     16 CD         -1.7578   -3.4801   -3.9157 C.2     2  GLU2        0.3048
     17 OE1        -2.7173   -3.3841   -3.1325 O.2     2  GLU2       -0.2510
     18 OE2        -1.4074   -4.7719   -4.3339 O.3     2  GLU2       -0.4806
     19 C           0.0137   -1.2052   -1.7692 C.2     2  GLU2        0.2340
     20 O           0.6238   -2.2365   -2.0584 O.2     2  GLU2       -0.2738
     21 N           0.7034   -0.2120   -0.9952 N.am    3  VAL3       -0.3022
     22 CA          2.0538   -0.3362   -0.5334 C.3     3  VAL3        0.1017
     23 C           2.0898   -0.2666    0.9445 C.2     3  VAL3        0.2342
     24 O           1.0139   -0.1185    1.5672 O.2     3  VAL3       -0.2738
     25 N           3.2914   -0.3594    1.7067 N.am    4  ASP4       -0.3039
     26 CA          3.2010   -0.2774    3.1405 C.3     4  ASP4        0.0885
     27 C           3.9570    0.9056    3.6585 C.2     4  ASP4        0.1409
     28 O           4.5415    1.6438    2.8832 O.2     4  ASP4       -0.2991
     29 CB          3.6594   -1.5476    3.7903 C.3     4  ASP4        0.0697
     30 CG          5.0564   -1.8300    3.4619 C.2     4  ASP4        0.3069
     31 OD1         5.7469   -1.0784    2.7757 O.2     4  ASP4       -0.2509
     32 OD2         5.6281   -2.9972    3.9460 O.3     4  ASP4       -0.4806
     33 CB          2.9545    0.7672   -1.0503 C.3     3  VAL3       -0.0197
     34 CG1         2.9324    0.6738   -2.5692 C.3     3  VAL3       -0.0605
     35 CG2         2.5713    2.1234   -0.5576 C.3     3  VAL3       -0.0605
     36 H          -6.4251    0.6681    2.3587 H       0  UNK0        0.0322
     37 H          -5.5906   -0.7825    2.9763 H       0  UNK0        0.0322
     38 H          -5.2704    0.8696    3.7463 H       0  UNK0        0.0322
     39 H          -5.5333    1.7233    0.4844 H       1  ASP1        0.1495
     40 HA         -3.8317    2.2104   -1.0811 H       1  ASP1        0.0600
     41 HB1        -1.9783    1.7999    1.3120 H       1  ASP1        0.0401
     42 HB2        -1.6198    2.6090   -0.2316 H       1  ASP1        0.0401
     43 HD2        -4.2686    4.5020    2.4030 H       1  ASP1        0.2951
     44 H          -1.5030    1.1486   -2.0101 H       2  GLU2        0.1495
     45 HA         -1.9772   -1.8076   -1.7468 H       2  GLU2        0.0595
     46 HB1        -2.6280   -0.9800   -3.9746 H       2  GLU2        0.0293
     47 HB2        -0.9797   -0.1870   -4.1553 H       2  GLU2        0.0293
     48 HG1        -1.2383   -2.1559   -5.4842 H       2  GLU2        0.0378
     49 HG2         0.0599   -2.4853   -4.2354 H       2  GLU2        0.0378
     50 HE2        -1.9741   -5.5828   -4.0859 H       2  GLU2        0.2951
     51 H           0.1452    0.6408   -0.7780 H       3  VAL3        0.1495
     52 HA          2.5205   -1.3055   -0.8275 H       3  VAL3        0.0597
     53 H           4.1926   -0.4802    1.2145 H       4  ASP4        0.1494
     54 HA          2.1430   -0.1205    3.4815 H       4  ASP4        0.0580
     55 H           3.9656    1.0766    4.7139 H       4  ASP4        0.1046
     56 HB1         3.4939   -1.4528    4.8971 H       4  ASP4        0.0400
     57 HB2         2.9691   -2.3613    3.4310 H       4  ASP4        0.0400
     58 HD2         6.6158   -3.1392    3.8231 H       4  ASP4        0.2951
     59 HB          3.9947    0.5590   -0.7266 H       3  VAL3        0.0318
     60 HG11        3.8814    1.0311   -3.0207 H       3  VAL3        0.0233
     61 HG12        2.7957   -0.3761   -2.9026 H       3  VAL3        0.0233
     62 HG13        2.1398    1.3531   -2.9944 H       3  VAL3        0.0233
     63 HG21        2.0105    2.0920    0.4062 H       3  VAL3        0.0233
     64 HG22        3.4610    2.7815   -0.3514 H       3  VAL3        0.0233
     65 HG23        1.9645    2.7048   -1.3093 H       3  VAL3        0.0233
@<TRIPOS>BOND
     1     1     2    1
     2     2     3    2
     3     2     4   am
     4     4     5    1
     5     5     6    1
     6     6     7    1
     7     7     8    2
     8     7     9    1
     9     5    10    1
    10    10    11    2
    11    10    12   am
    12    12    13    1
    13    13    14    1
    14    14    15    1
    15    15    16    1
    16    16    17    2
    17    16    18    1
    18    13    19    1
    19    19    20    2
    20    19    21   am
    21    21    22    1
    22    22    23    1
    23    23    24    2
    24    23    25   am
    25    25    26    1
    26    26    27    1
    27    27    28    2
    28    26    29    1
    29    29    30    1
    30    30    31    2
    31    30    32    1
    32    22    33    1
    33    33    34    1
    34    33    35    1
    35     1    36    1
    36     1    37    1
    37     1    38    1
    38     4    39    1
    39     5    40    1
    40     6    41    1
    41     6    42    1
    42     9    43    1
    43    12    44    1
    44    13    45    1
    45    14    46    1
    46    14    47    1
    47    15    48    1
    48    15    49    1
    49    18    50    1
    50    21    51    1
    51    22    52    1
    52    25    53    1
    53    26    54    1
    54    27    55    1
    55    29    56    1
    56    29    57    1
    57    32    58    1
    58    33    59    1
    59    34    60    1
    60    34    61    1
    61    34    62    1
    62    35    63    1
    63    35    64    1
    64    35    65    1
