@<TRIPOS>MOLECULE
*****
 41 43 0 0 0
SMALL
GASTEIGER

@<TRIPOS>ATOM
      1 O          -2.1809   -2.4303   -0.1144 O.2     1  UNL1       -0.2524
      2 C          -2.0819   -1.1453   -0.3507 C.2     1  UNL1        0.3050
      3 N          -3.2113   -0.3463   -0.1237 N.am    1  UNL1       -0.2811
      4 C          -3.3975    1.0532   -0.3126 C.3     1  UNL1        0.0396
      5 C          -3.6301    1.6407    1.0795 C.3     1  UNL1        0.0635
      6 O          -4.7265    0.9789    1.6238 O.3     1  UNL1       -0.3767
      7 C          -4.5626   -0.3699    1.8018 C.3     1  UNL1        0.0635
      8 C          -4.4244   -1.0148    0.4146 C.3     1  UNL1        0.0396
      9 N          -0.8085   -0.7688   -0.8097 N.am    1  UNL1       -0.2825
     10 C          -0.3543    0.5482   -1.1470 C.3     1  UNL1        0.0319
     11 C           1.1470    0.5940   -1.3847 C.3     1  UNL1        0.0281
     12 N           1.8839   -0.2473   -0.4978 N.pl3   1  UNL1       -0.3258
     13 C           3.2090    0.1178   -0.1029 C.ar    1  UNL1        0.0484
     14 C           3.5318    0.3241    1.2252 C.ar    1  UNL1       -0.0379
     15 C           4.7872    0.6719    1.6182 C.ar    1  UNL1       -0.0416
     16 C           5.8045    0.8362    0.7018 C.ar    1  UNL1        0.0425
     17 CL          7.4339    1.2865    1.2000 Cl      1  UNL1       -0.0835
     18 C           5.4921    0.6328   -0.6221 C.ar    1  UNL1       -0.0232
     19 C           4.2112    0.2768   -1.0355 C.ar    1  UNL1        0.0633
     20 CL          3.8925    0.0357   -2.7394 Cl      1  UNL1       -0.0816
     21 C           1.3000   -1.4901    0.0194 C.3     1  UNL1        0.0281
     22 C           0.1948   -1.8515   -0.9711 C.3     1  UNL1        0.0319
     23 H          -2.6993    1.6028   -0.9135 H       1  UNL1        0.0488
     24 H          -4.4188    1.2139   -0.8171 H       1  UNL1        0.0488
     25 H          -2.7437    1.6310    1.7079 H       1  UNL1        0.0575
     26 H          -3.9392    2.6926    0.9164 H       1  UNL1        0.0575
     27 H          -3.6237   -0.6330    2.3426 H       1  UNL1        0.0575
     28 H          -5.4250   -0.7555    2.3518 H       1  UNL1        0.0575
     29 H          -4.3030   -2.0930    0.4632 H       1  UNL1        0.0488
     30 H          -5.2966   -0.6689   -0.1724 H       1  UNL1        0.0488
     31 H          -0.5197    1.2045   -0.2723 H       1  UNL1        0.0480
     32 H          -0.8443    0.8633   -2.0806 H       1  UNL1        0.0480
     33 H           1.3410    0.2762   -2.4299 H       1  UNL1        0.0479
     34 H           1.5454    1.6235   -1.2867 H       1  UNL1        0.0479
     35 H           2.7688    0.2081    1.9869 H       1  UNL1        0.0637
     36 H           5.0346    0.8329    2.6664 H       1  UNL1        0.0633
     37 H           6.2816    0.7585   -1.3520 H       1  UNL1        0.0647
     38 H           0.8889   -1.2621    1.0233 H       1  UNL1        0.0479
     39 H           2.0694   -2.2817    0.0832 H       1  UNL1        0.0479
     40 H           0.6120   -1.7127   -1.9703 H       1  UNL1        0.0480
     41 H          -0.2385   -2.8330   -0.7854 H       1  UNL1        0.0480
@<TRIPOS>BOND
     1     1     2    2
     2     2     3   am
     3     3     4    1
     4     4     5    1
     5     5     6    1
     6     6     7    1
     7     7     8    1
     8     2     9   am
     9     9    10    1
    10    10    11    1
    11    11    12    1
    12    12    13    1
    13    13    14   ar
    14    14    15   ar
    15    15    16   ar
    16    16    17    1
    17    16    18   ar
    18    18    19   ar
    19    19    20    1
    20    12    21    1
    21    21    22    1
    22     8     3    1
    23    22     9    1
    24    19    13   ar
    25     4    23    1
    26     4    24    1
    27     5    25    1
    28     5    26    1
    29     7    27    1
    30     7    28    1
    31     8    29    1
    32     8    30    1
    33    10    31    1
    34    10    32    1
    35    11    33    1
    36    11    34    1
    37    14    35    1
    38    15    36    1
    39    18    37    1
    40    21    38    1
    41    21    39    1
    42    22    40    1
    43    22    41    1
