@<TRIPOS>MOLECULE
*****
 54 57 0 0 0
SMALL
GASTEIGER

@<TRIPOS>ATOM
      1 C          -6.4852    2.0393    0.5887 C.3     1  UNL1        0.0817
      2 O          -5.4086    1.1173    0.5631 O.3     1  UNL1       -0.4675
      3 C          -4.7908    0.6863   -0.5985 C.2     1  UNL1        0.3149
      4 O          -5.2058    1.1355   -1.6876 O.2     1  UNL1       -0.2502
      5 C          -3.6555   -0.2912   -0.5690 C.3     1  UNL1        0.0884
      6 C          -3.2574   -0.5349   -2.0097 C.3     1  UNL1       -0.0473
      7 C          -4.2157   -1.5265    0.0798 C.3     1  UNL1       -0.0473
      8 C          -2.5652    0.4056    0.1416 C.3     1  UNL1        0.0944
      9 C          -1.2919   -0.2447    0.3462 C.ar    1  UNL1       -0.0219
     10 C          -1.0281   -1.5548    0.6249 C.ar    1  UNL1       -0.0548
     11 C           0.2404   -2.0599    0.8045 C.ar    1  UNL1       -0.0402
     12 C           1.3656   -1.2377    0.7098 C.ar    1  UNL1        0.0313
     13 N           2.6458   -1.7980    0.9228 N.pl3   1  UNL1       -0.3145
     14 C           3.8668   -1.2901    0.4015 C.ar    1  UNL1        0.0319
     15 C           5.0723   -1.5097    1.0736 C.ar    1  UNL1       -0.0400
     16 C           6.2410   -1.0241    0.5382 C.ar    1  UNL1       -0.0523
     17 C           6.2441   -0.3301   -0.6402 C.ar    1  UNL1       -0.0178
     18 C           7.4502    0.1497   -1.1554 C.ar    1  UNL1       -0.0540
     19 C           7.4058    0.8352   -2.3309 C.ar    1  UNL1       -0.0612
     20 C           6.2511    1.0757   -3.0263 C.ar    1  UNL1       -0.0612
     21 C           5.0683    0.5982   -2.5088 C.ar    1  UNL1       -0.0540
     22 C           5.0815   -0.1060   -1.3095 C.ar    1  UNL1       -0.0161
     23 C           3.8892   -0.5974   -0.7708 C.ar    1  UNL1       -0.0328
     24 C           1.1273    0.0867    0.4303 C.ar    1  UNL1       -0.0402
     25 C          -0.1500    0.5683    0.2545 C.ar    1  UNL1       -0.0548
     26 N          -2.9965    0.9174    1.4472 N.ar    1  UNL1       -0.2436
     27 C          -3.2166    2.1781    1.8499 C.ar    1  UNL1        0.1150
     28 N          -3.6001    2.2179    3.1291 N.ar    1  UNL1       -0.2228
     29 C          -3.6234    0.9424    3.5490 C.ar    1  UNL1        0.1380
     30 N          -3.2491    0.1596    2.4998 N.ar    1  UNL1       -0.1578
     31 H          -7.2685    1.7137    1.3131 H       1  UNL1        0.0661
     32 H          -6.1212    3.0579    0.8969 H       1  UNL1        0.0661
     33 H          -6.9196    2.1808   -0.4340 H       1  UNL1        0.0661
     34 H          -2.2329   -0.1833   -2.1665 H       1  UNL1        0.0241
     35 H          -3.4117   -1.5901   -2.3135 H       1  UNL1        0.0241
     36 H          -3.8927    0.0574   -2.7272 H       1  UNL1        0.0241
     37 H          -4.0887   -1.5958    1.1601 H       1  UNL1        0.0241
     38 H          -5.3452   -1.5738   -0.0589 H       1  UNL1        0.0241
     39 H          -3.8770   -2.4096   -0.5053 H       1  UNL1        0.0241
     40 H          -2.3916    1.3549   -0.4617 H       1  UNL1        0.0606
     41 H          -1.8575   -2.2195    0.7079 H       1  UNL1        0.0622
     42 H           0.4237   -3.1131    1.0277 H       1  UNL1        0.0636
     43 H           2.7567   -2.6762    1.5178 H       1  UNL1        0.1522
     44 H           5.0468   -2.0560    1.9958 H       1  UNL1        0.0636
     45 H           7.1692   -1.2005    1.0680 H       1  UNL1        0.0624
     46 H           8.3442   -0.0512   -0.5923 H       1  UNL1        0.0624
     47 H           8.3515    1.2042   -2.7228 H       1  UNL1        0.0618
     48 H           6.2390    1.6256   -3.9623 H       1  UNL1        0.0618
     49 H           4.1205    0.7629   -3.0244 H       1  UNL1        0.0624
     50 H           2.9948   -0.3884   -1.3766 H       1  UNL1        0.0642
     51 H           1.9843    0.7698    0.3618 H       1  UNL1        0.0636
     52 H          -0.2464    1.6397    0.0341 H       1  UNL1        0.0622
     53 H          -3.0925    3.0405    1.2022 H       1  UNL1        0.1044
     54 H          -3.8949    0.6421    4.5425 H       1  UNL1        0.1065
@<TRIPOS>BOND
     1     1     2    1
     2     2     3    1
     3     3     4    2
     4     3     5    1
     5     5     6    1
     6     5     7    1
     7     5     8    1
     8     8     9    1
     9     9    10   ar
    10    10    11   ar
    11    11    12   ar
    12    12    13    1
    13    13    14    1
    14    14    15   ar
    15    15    16   ar
    16    16    17   ar
    17    17    18   ar
    18    18    19   ar
    19    19    20   ar
    20    20    21   ar
    21    21    22   ar
    22    22    23   ar
    23    12    24   ar
    24    24    25   ar
    25     8    26    1
    26    26    27   ar
    27    27    28   ar
    28    28    29   ar
    29    29    30   ar
    30    25     9   ar
    31    30    26   ar
    32    23    14   ar
    33    22    17   ar
    34     1    31    1
    35     1    32    1
    36     1    33    1
    37     6    34    1
    38     6    35    1
    39     6    36    1
    40     7    37    1
    41     7    38    1
    42     7    39    1
    43     8    40    1
    44    10    41    1
    45    11    42    1
    46    13    43    1
    47    15    44    1
    48    16    45    1
    49    18    46    1
    50    19    47    1
    51    20    48    1
    52    21    49    1
    53    23    50    1
    54    24    51    1
    55    25    52    1
    56    27    53    1
    57    29    54    1
