
     RDKit          3D

 55 59  0  0  0  0  0  0  0  0999 V2000
    6.0385   -1.5704   -1.6973 C   0  0  0  0  0  0  0  0  0  0  0  0
    5.7219   -0.9204   -0.3743 C   0  0  0  0  0  0  0  0  0  0  0  0
    5.6862   -2.0491    0.6545 C   0  0  0  0  0  0  0  0  0  0  0  0
    6.7838    0.0372    0.0847 C   0  0  0  0  0  0  0  0  0  0  0  0
    4.3902   -0.2659   -0.4802 C   0  0  0  0  0  0  0  0  0  0  0  0
    3.8543    0.7375   -0.7741 N   0  0  0  0  0  0  0  0  0  0  0  0
    2.5905    0.9854   -0.7445 N   0  0  0  0  0  0  0  0  0  0  0  0
    1.7402    0.1943   -0.3977 C   0  0  0  0  0  0  0  0  0  0  0  0
    0.3095    0.0183   -0.2333 C   0  0  0  0  0  0  0  0  0  0  0  0
   -0.3175   -1.1492    0.0511 N   0  0  0  0  0  0  0  0  0  0  0  0
   -1.6078   -0.9902    0.0681 N   0  0  0  0  0  0  0  0  0  0  0  0
   -2.5635   -2.0062    0.3310 C   0  0  0  0  0  0  0  0  0  0  0  0
   -3.4492   -1.8649    1.3787 C   0  0  0  0  0  0  0  0  0  0  0  0
   -4.3885   -2.8418    1.6533 C   0  0  0  0  0  0  0  0  0  0  0  0
   -4.4709   -3.9959    0.8842 C   0  0  0  0  0  0  0  0  0  0  0  0
   -3.5747   -4.1312   -0.1702 C   0  0  0  0  0  0  0  0  0  0  0  0
   -2.6376   -3.1595   -0.4464 C   0  0  0  0  0  0  0  0  0  0  0  0
   -1.5188   -3.3556   -1.7841 Cl  0  0  0  0  0  0  0  0  0  0  0  0
   -1.8564    0.3317   -0.2143 C   0  0  0  0  0  0  0  0  0  0  0  0
   -3.2001    0.8136   -0.2834 C   0  0  0  0  0  0  0  0  0  0  0  0
   -3.6510    1.8994    0.3714 C   0  0  0  0  0  0  0  0  0  0  0  0
   -4.9528    2.3419    0.2548 C   0  0  0  0  0  0  0  0  0  0  0  0
   -5.8677    1.6944   -0.5407 C   0  0  0  0  0  0  0  0  0  0  0  0
   -7.6744    2.2693   -0.7324 Br  0  0  0  0  0  0  0  0  0  0  0  0
   -5.4203    0.5809   -1.2162 C   0  0  0  0  0  0  0  0  0  0  0  0
   -4.1236    0.1346   -1.1047 C   0  0  0  0  0  0  0  0  0  0  0  0
   -0.6553    0.9951   -0.4078 C   0  0  0  0  0  0  0  0  0  0  0  0
   -0.4603    2.4160   -0.7416 C   0  0  0  0  0  0  0  0  0  0  0  0
   -0.0195    3.2908    0.2994 N   0  0  0  0  0  0  0  0  0  0  0  0
    1.1866    3.6703    0.6860 C   0  0  0  0  0  0  0  0  0  0  0  0
    1.1055    4.5310    1.7359 N   0  0  0  0  0  0  0  0  0  0  0  0
   -0.1928    4.6679    1.9808 C   0  0  0  0  0  0  0  0  0  0  0  0
   -0.8679    3.9300    1.1260 N   0  0  0  0  0  0  0  0  0  0  0  0
    2.8582   -1.2779    0.0037 S   0  0  0  0  0  0  0  0  0  0  0  0
    7.1333   -1.7193   -1.8568 H   0  0  0  0  0  0  0  0  0  0  0  0
    5.5912   -0.9984   -2.5420 H   0  0  0  0  0  0  0  0  0  0  0  0
    5.5915   -2.5881   -1.7002 H   0  0  0  0  0  0  0  0  0  0  0  0
    6.5569   -2.0177    1.3381 H   0  0  0  0  0  0  0  0  0  0  0  0
    4.7848   -1.8366    1.3005 H   0  0  0  0  0  0  0  0  0  0  0  0
    5.5415   -3.0285    0.1827 H   0  0  0  0  0  0  0  0  0  0  0  0
    6.3565    0.5970    0.9529 H   0  0  0  0  0  0  0  0  0  0  0  0
    7.1317    0.7174   -0.7179 H   0  0  0  0  0  0  0  0  0  0  0  0
    7.6180   -0.5713    0.5117 H   0  0  0  0  0  0  0  0  0  0  0  0
   -3.3842   -0.9669    1.9765 H   0  0  0  0  0  0  0  0  0  0  0  0
   -5.0671   -2.6948    2.4852 H   0  0  0  0  0  0  0  0  0  0  0  0
   -5.1953   -4.7757    1.0765 H   0  0  0  0  0  0  0  0  0  0  0  0
   -3.6590   -5.0460   -0.7601 H   0  0  0  0  0  0  0  0  0  0  0  0
   -3.0250    2.4568    1.0267 H   0  0  0  0  0  0  0  0  0  0  0  0
   -5.3145    3.2199    0.7845 H   0  0  0  0  0  0  0  0  0  0  0  0
   -6.1141    0.0478   -1.8503 H   0  0  0  0  0  0  0  0  0  0  0  0
   -3.7780   -0.7414   -1.6384 H   0  0  0  0  0  0  0  0  0  0  0  0
   -1.3995    2.8519   -1.2008 H   0  0  0  0  0  0  0  0  0  0  0  0
    0.2608    2.4446   -1.6213 H   0  0  0  0  0  0  0  0  0  0  0  0
    2.1301    3.3687    0.2399 H   0  0  0  0  0  0  0  0  0  0  0  0
   -0.5547    5.3191    2.7923 H   0  0  0  0  0  0  0  0  0  0  0  0
  1  2  1  0
  2  3  1  0
  2  4  1  0
  2  5  1  0
  5  6  2  0
  6  7  1  0
  7  8  2  0
  8  9  1  0
  9 10  2  0
 10 11  1  0
 11 12  1  0
 12 13  2  0
 13 14  1  0
 14 15  2  0
 15 16  1  0
 16 17  2  0
 17 18  1  0
 11 19  1  0
 19 20  1  0
 20 21  2  0
 21 22  1  0
 22 23  2  0
 23 24  1  0
 23 25  1  0
 25 26  2  0
 19 27  2  0
 27 28  1  0
 28 29  1  0
 29 30  1  0
 30 31  2  0
 31 32  1  0
 32 33  2  0
  8 34  1  0
 34  5  1  0
 27  9  1  0
 33 29  1  0
 17 12  1  0
 26 20  1  0
  1 35  1  0
  1 36  1  0
  1 37  1  0
  3 38  1  0
  3 39  1  0
  3 40  1  0
  4 41  1  0
  4 42  1  0
  4 43  1  0
 13 44  1  0
 14 45  1  0
 15 46  1  0
 16 47  1  0
 21 48  1  0
 22 49  1  0
 25 50  1  0
 26 51  1  0
 28 52  1  0
 28 53  1  0
 30 54  1  0
 32 55  1  0
M  END
$$$$
