@<TRIPOS>MOLECULE
*****
 55 59 0 0 0
SMALL
GASTEIGER

@<TRIPOS>ATOM
      1 C           6.0385   -1.5704   -1.6973 C.3     1  UNL1       -0.0541
      2 C           5.7219   -0.9204   -0.3743 C.3     1  UNL1        0.0127
      3 C           5.6862   -2.0491    0.6545 C.3     1  UNL1       -0.0541
      4 C           6.7838    0.0372    0.0847 C.3     1  UNL1       -0.0541
      5 C           4.3902   -0.2659   -0.4802 C.ar    1  UNL1        0.1079
      6 N           3.8543    0.7375   -0.7741 N.ar    1  UNL1       -0.1454
      7 N           2.5905    0.9854   -0.7445 N.ar    1  UNL1       -0.1396
      8 C           1.7402    0.1943   -0.3977 C.ar    1  UNL1        0.1524
      9 C           0.3095    0.0183   -0.2333 C.ar    1  UNL1        0.1254
     10 N          -0.3175   -1.1492    0.0511 N.ar    1  UNL1       -0.1633
     11 N          -1.6078   -0.9902    0.0681 N.ar    1  UNL1       -0.2297
     12 C          -2.5635   -2.0062    0.3310 C.ar    1  UNL1        0.0843
     13 C          -3.4492   -1.8649    1.3787 C.ar    1  UNL1       -0.0348
     14 C          -4.3885   -2.8418    1.6533 C.ar    1  UNL1       -0.0597
     15 C          -4.4709   -3.9959    0.8842 C.ar    1  UNL1       -0.0603
     16 C          -3.5747   -4.1312   -0.1702 C.ar    1  UNL1       -0.0413
     17 C          -2.6376   -3.1595   -0.4464 C.ar    1  UNL1        0.0663
     18 CL         -1.5188   -3.3556   -1.7841 Cl      1  UNL1       -0.0813
     19 C          -1.8564    0.3317   -0.2143 C.ar    1  UNL1        0.0803
     20 C          -3.2001    0.8136   -0.2834 C.ar    1  UNL1        0.0009
     21 C          -3.6510    1.8994    0.3714 C.ar    1  UNL1       -0.0515
     22 C          -4.9528    2.3419    0.2548 C.ar    1  UNL1       -0.0471
     23 C          -5.8677    1.6944   -0.5407 C.ar    1  UNL1        0.0179
     24 BR         -7.6744    2.2693   -0.7324 Br      1  UNL1       -0.0503
     25 C          -5.4203    0.5809   -1.2162 C.ar    1  UNL1       -0.0471
     26 C          -4.1236    0.1346   -1.1047 C.ar    1  UNL1       -0.0515
     27 C          -0.6553    0.9951   -0.4078 C.ar    1  UNL1        0.0296
     28 C          -0.4603    2.4160   -0.7416 C.3     1  UNL1        0.0724
     29 N          -0.0195    3.2908    0.2994 N.ar    1  UNL1       -0.2475
     30 C           1.1866    3.6703    0.6860 C.ar    1  UNL1        0.1146
     31 N           1.1055    4.5310    1.7359 N.ar    1  UNL1       -0.2228
     32 C          -0.1928    4.6679    1.9808 C.ar    1  UNL1        0.1380
     33 N          -0.8679    3.9300    1.1260 N.ar    1  UNL1       -0.1581
     34 S           2.8582   -1.2779    0.0037 S.2     1  UNL1       -0.0484
     35 H           7.1333   -1.7193   -1.8568 H       1  UNL1        0.0239
     36 H           5.5912   -0.9984   -2.5420 H       1  UNL1        0.0239
     37 H           5.5915   -2.5881   -1.7002 H       1  UNL1        0.0239
     38 H           6.5569   -2.0177    1.3381 H       1  UNL1        0.0239
     39 H           4.7848   -1.8366    1.3005 H       1  UNL1        0.0239
     40 H           5.5415   -3.0285    0.1827 H       1  UNL1        0.0239
     41 H           6.3565    0.5970    0.9529 H       1  UNL1        0.0239
     42 H           7.1317    0.7174   -0.7179 H       1  UNL1        0.0239
     43 H           7.6180   -0.5713    0.5117 H       1  UNL1        0.0239
     44 H          -3.3842   -0.9669    1.9765 H       1  UNL1        0.0639
     45 H          -5.0671   -2.6948    2.4852 H       1  UNL1        0.0618
     46 H          -5.1953   -4.7757    1.0765 H       1  UNL1        0.0618
     47 H          -3.6590   -5.0460   -0.7601 H       1  UNL1        0.0633
     48 H          -3.0250    2.4568    1.0267 H       1  UNL1        0.0624
     49 H          -5.3145    3.2199    0.7845 H       1  UNL1        0.0629
     50 H          -6.1141    0.0478   -1.8503 H       1  UNL1        0.0629
     51 H          -3.7780   -0.7414   -1.6384 H       1  UNL1        0.0624
     52 H          -1.3995    2.8519   -1.2008 H       1  UNL1        0.0560
     53 H           0.2608    2.4446   -1.6213 H       1  UNL1        0.0560
     54 H           2.1301    3.3687    0.2399 H       1  UNL1        0.1044
     55 H          -0.5547    5.3191    2.7923 H       1  UNL1        0.1065
@<TRIPOS>BOND
     1     1     2    1
     2     2     3    1
     3     2     4    1
     4     2     5    1
     5     5     6   ar
     6     6     7   ar
     7     7     8   ar
     8     8     9    1
     9     9    10   ar
    10    10    11   ar
    11    11    12    1
    12    12    13   ar
    13    13    14   ar
    14    14    15   ar
    15    15    16   ar
    16    16    17   ar
    17    17    18    1
    18    11    19   ar
    19    19    20    1
    20    20    21   ar
    21    21    22   ar
    22    22    23   ar
    23    23    24    1
    24    23    25   ar
    25    25    26   ar
    26    19    27   ar
    27    27    28    1
    28    28    29    1
    29    29    30   ar
    30    30    31   ar
    31    31    32   ar
    32    32    33   ar
    33     8    34   ar
    34    34     5   ar
    35    27     9   ar
    36    33    29   ar
    37    17    12   ar
    38    26    20   ar
    39     1    35    1
    40     1    36    1
    41     1    37    1
    42     3    38    1
    43     3    39    1
    44     3    40    1
    45     4    41    1
    46     4    42    1
    47     4    43    1
    48    13    44    1
    49    14    45    1
    50    15    46    1
    51    16    47    1
    52    21    48    1
    53    22    49    1
    54    25    50    1
    55    26    51    1
    56    28    52    1
    57    28    53    1
    58    30    54    1
    59    32    55    1
