@<TRIPOS>MOLECULE
*****
 45 49 0 0 0
SMALL
GASTEIGER

@<TRIPOS>ATOM
      1 N           1.8889    2.4640    0.7943 N.1     1  UNL1       -0.1908
      2 C           2.9568    2.0393    0.9065 C.1     1  UNL1        0.0999
      3 C           4.2970    1.5224    1.0671 C.ar    1  UNL1        0.0622
      4 C           5.2427    2.3446    1.6627 C.ar    1  UNL1       -0.0085
      5 C           6.5494    1.8821    1.8334 C.ar    1  UNL1        0.1247
      6 F           7.4524    2.7020    2.4164 F       1  UNL1       -0.2054
      7 C           6.8917    0.6106    1.4086 C.ar    1  UNL1       -0.0258
      8 C           5.9306   -0.1832    0.8204 C.ar    1  UNL1       -0.0501
      9 C           4.6344    0.2565    0.6433 C.ar    1  UNL1       -0.0003
     10 C           3.6389   -0.6002    0.0212 C.ar    1  UNL1       -0.0166
     11 C           2.3753   -0.7613    0.5349 C.ar    1  UNL1       -0.0537
     12 C           1.4386   -1.5770   -0.0694 C.ar    1  UNL1       -0.0572
     13 C           1.7534   -2.2629   -1.2244 C.ar    1  UNL1       -0.0370
     14 C           0.7692   -3.1464   -1.8957 C.3     1  UNL1        0.0278
     15 S          -0.1636   -2.1476   -3.0927 S.3     1  UNL1       -0.0609
     16 C          -1.1349   -0.9569   -2.1812 C.ar    1  UNL1        0.2779
     17 N          -0.7470    0.2856   -1.8165 N.ar    1  UNL1       -0.1006
     18 N          -1.7787    0.8295   -1.1540 N.ar    1  UNL1       -0.1065
     19 C          -2.7815   -0.0647   -1.1135 C.ar    1  UNL1        0.2493
     20 C          -4.0852    0.1423   -0.4801 C.ar    1  UNL1        0.0422
     21 C          -5.0493   -0.8454   -0.4909 C.ar    1  UNL1       -0.0458
     22 C          -6.2898   -0.6989    0.0903 C.ar    1  UNL1       -0.0154
     23 C          -6.5447    0.5137    0.7064 C.ar    1  UNL1        0.1663
     24 C          -5.6192    1.5318    0.7464 C.ar    1  UNL1        0.1670
     25 C          -4.3689    1.3403    0.1421 C.ar    1  UNL1       -0.0039
     26 O          -6.1827    2.5815    1.4232 O.3     1  UNL1       -0.4526
     27 C          -7.6018    2.3606    1.4396 C.3     1  UNL1        0.2332
     28 O          -7.7014    0.9308    1.3659 O.3     1  UNL1       -0.4526
     29 O          -2.3675   -1.1206   -1.7348 O.2     1  UNL1       -0.4110
     30 C           3.0272   -2.1064   -1.7501 C.ar    1  UNL1       -0.0572
     31 C           3.9657   -1.2789   -1.1302 C.ar    1  UNL1       -0.0537
     32 H           4.9956    3.3363    1.9997 H       1  UNL1        0.0659
     33 H           7.8937    0.2264    1.5275 H       1  UNL1        0.0646
     34 H           6.1970   -1.1706    0.4911 H       1  UNL1        0.0625
     35 H           2.0624   -0.2438    1.4533 H       1  UNL1        0.0624
     36 H           0.4591   -1.6733    0.3690 H       1  UNL1        0.0621
     37 H           0.0783   -3.5876   -1.1539 H       1  UNL1        0.0430
     38 H           1.2621   -4.0040   -2.4105 H       1  UNL1        0.0430
     39 H          -4.7989   -1.7702   -0.9845 H       1  UNL1        0.0626
     40 H          -7.0472   -1.4909    0.0751 H       1  UNL1        0.0655
     41 H          -3.6434    2.1538    0.1796 H       1  UNL1        0.0663
     42 H          -7.9945    2.8071    0.5203 H       1  UNL1        0.1166
     43 H          -8.0696    2.6805    2.3700 H       1  UNL1        0.1166
     44 H           3.2705   -2.6441   -2.6529 H       1  UNL1        0.0621
     45 H           4.9390   -1.2070   -1.5987 H       1  UNL1        0.0624
@<TRIPOS>BOND
     1     1     2    3
     2     2     3    1
     3     3     4   ar
     4     4     5   ar
     5     5     6    1
     6     5     7   ar
     7     7     8   ar
     8     8     9   ar
     9     9    10    1
    10    10    11   ar
    11    11    12   ar
    12    12    13   ar
    13    13    14    1
    14    14    15    1
    15    15    16    1
    16    16    17   ar
    17    17    18   ar
    18    18    19   ar
    19    19    20    1
    20    20    21   ar
    21    21    22   ar
    22    22    23   ar
    23    23    24   ar
    24    24    25   ar
    25    24    26    1
    26    26    27    1
    27    27    28    1
    28    19    29   ar
    29    13    30   ar
    30    30    31   ar
    31     9     3   ar
    32    31    10   ar
    33    29    16   ar
    34    25    20   ar
    35    28    23    1
    36     4    32    1
    37     7    33    1
    38     8    34    1
    39    11    35    1
    40    12    36    1
    41    14    37    1
    42    14    38    1
    43    21    39    1
    44    22    40    1
    45    25    41    1
    46    27    42    1
    47    27    43    1
    48    30    44    1
    49    31    45    1
