
     RDKit          3D

 45 49  0  0  0  0  0  0  0  0999 V2000
    1.8889    2.4640    0.7943 N   0  0  0  0  0  0  0  0  0  0  0  0
    2.9568    2.0393    0.9065 C   0  0  0  0  0  0  0  0  0  0  0  0
    4.2970    1.5224    1.0671 C   0  0  0  0  0  0  0  0  0  0  0  0
    5.2427    2.3446    1.6627 C   0  0  0  0  0  0  0  0  0  0  0  0
    6.5494    1.8821    1.8334 C   0  0  0  0  0  0  0  0  0  0  0  0
    7.4524    2.7020    2.4164 F   0  0  0  0  0  0  0  0  0  0  0  0
    6.8917    0.6106    1.4086 C   0  0  0  0  0  0  0  0  0  0  0  0
    5.9306   -0.1832    0.8204 C   0  0  0  0  0  0  0  0  0  0  0  0
    4.6344    0.2565    0.6433 C   0  0  0  0  0  0  0  0  0  0  0  0
    3.6389   -0.6002    0.0212 C   0  0  0  0  0  0  0  0  0  0  0  0
    2.3753   -0.7613    0.5349 C   0  0  0  0  0  0  0  0  0  0  0  0
    1.4386   -1.5770   -0.0694 C   0  0  0  0  0  0  0  0  0  0  0  0
    1.7534   -2.2629   -1.2244 C   0  0  0  0  0  0  0  0  0  0  0  0
    0.7692   -3.1464   -1.8957 C   0  0  0  0  0  0  0  0  0  0  0  0
   -0.1636   -2.1476   -3.0927 S   0  0  0  0  0  0  0  0  0  0  0  0
   -1.1349   -0.9569   -2.1812 C   0  0  0  0  0  0  0  0  0  0  0  0
   -0.7470    0.2856   -1.8165 N   0  0  0  0  0  0  0  0  0  0  0  0
   -1.7787    0.8295   -1.1540 N   0  0  0  0  0  0  0  0  0  0  0  0
   -2.7815   -0.0647   -1.1135 C   0  0  0  0  0  0  0  0  0  0  0  0
   -4.0852    0.1423   -0.4801 C   0  0  0  0  0  0  0  0  0  0  0  0
   -5.0493   -0.8454   -0.4909 C   0  0  0  0  0  0  0  0  0  0  0  0
   -6.2898   -0.6989    0.0903 C   0  0  0  0  0  0  0  0  0  0  0  0
   -6.5447    0.5137    0.7064 C   0  0  0  0  0  0  0  0  0  0  0  0
   -5.6192    1.5318    0.7464 C   0  0  0  0  0  0  0  0  0  0  0  0
   -4.3689    1.3403    0.1421 C   0  0  0  0  0  0  0  0  0  0  0  0
   -6.1827    2.5815    1.4232 O   0  0  0  0  0  0  0  0  0  0  0  0
   -7.6018    2.3606    1.4396 C   0  0  0  0  0  0  0  0  0  0  0  0
   -7.7014    0.9308    1.3659 O   0  0  0  0  0  0  0  0  0  0  0  0
   -2.3675   -1.1206   -1.7348 O   0  0  0  0  0  0  0  0  0  0  0  0
    3.0272   -2.1064   -1.7501 C   0  0  0  0  0  0  0  0  0  0  0  0
    3.9657   -1.2789   -1.1302 C   0  0  0  0  0  0  0  0  0  0  0  0
    4.9956    3.3363    1.9997 H   0  0  0  0  0  0  0  0  0  0  0  0
    7.8937    0.2264    1.5275 H   0  0  0  0  0  0  0  0  0  0  0  0
    6.1970   -1.1706    0.4911 H   0  0  0  0  0  0  0  0  0  0  0  0
    2.0624   -0.2438    1.4533 H   0  0  0  0  0  0  0  0  0  0  0  0
    0.4591   -1.6733    0.3690 H   0  0  0  0  0  0  0  0  0  0  0  0
    0.0783   -3.5876   -1.1539 H   0  0  0  0  0  0  0  0  0  0  0  0
    1.2621   -4.0040   -2.4105 H   0  0  0  0  0  0  0  0  0  0  0  0
   -4.7989   -1.7702   -0.9845 H   0  0  0  0  0  0  0  0  0  0  0  0
   -7.0472   -1.4909    0.0751 H   0  0  0  0  0  0  0  0  0  0  0  0
   -3.6434    2.1538    0.1796 H   0  0  0  0  0  0  0  0  0  0  0  0
   -7.9945    2.8071    0.5203 H   0  0  0  0  0  0  0  0  0  0  0  0
   -8.0696    2.6805    2.3700 H   0  0  0  0  0  0  0  0  0  0  0  0
    3.2705   -2.6441   -2.6529 H   0  0  0  0  0  0  0  0  0  0  0  0
    4.9390   -1.2070   -1.5987 H   0  0  0  0  0  0  0  0  0  0  0  0
  1  2  3  0
  2  3  1  0
  3  4  2  0
  4  5  1  0
  5  6  1  0
  5  7  2  0
  7  8  1  0
  8  9  2  0
  9 10  1  0
 10 11  2  0
 11 12  1  0
 12 13  2  0
 13 14  1  0
 14 15  1  0
 15 16  1  0
 16 17  2  0
 17 18  1  0
 18 19  2  0
 19 20  1  0
 20 21  2  0
 21 22  1  0
 22 23  2  0
 23 24  1  0
 24 25  2  0
 24 26  1  0
 26 27  1  0
 27 28  1  0
 19 29  1  0
 13 30  1  0
 30 31  2  0
  9  3  1  0
 31 10  1  0
 29 16  1  0
 25 20  1  0
 28 23  1  0
  4 32  1  0
  7 33  1  0
  8 34  1  0
 11 35  1  0
 12 36  1  0
 14 37  1  0
 14 38  1  0
 21 39  1  0
 22 40  1  0
 25 41  1  0
 27 42  1  0
 27 43  1  0
 30 44  1  0
 31 45  1  0
M  END
$$$$
