@<TRIPOS>MOLECULE
*****
 31 34 0 0 0
SMALL
GASTEIGER

@<TRIPOS>ATOM
      1 C          -4.4876    1.9800    0.0325 C.3     1  UNL1       -0.0328
      2 C          -4.5924    0.8984   -1.0312 C.3     1  UNL1       -0.0328
      3 C          -3.7302    0.6715    0.1560 C.3     1  UNL1        0.0234
      4 N          -2.2858    0.7438    0.0385 N.pl3   1  UNL1       -0.3106
      5 C          -1.4471   -0.4116    0.1349 C.ar    1  UNL1        0.2159
      6 N          -0.1172   -0.3353    0.0254 N.ar    1  UNL1       -0.2144
      7 C           0.6964   -1.3884    0.1095 C.ar    1  UNL1        0.0796
      8 C           0.1138   -2.6200    0.3221 C.ar    1  UNL1       -0.0173
      9 C          -1.2661   -2.7123    0.4375 C.ar    1  UNL1        0.0332
     10 N          -2.0414   -1.6047    0.3430 N.ar    1  UNL1       -0.2229
     11 C           2.1277   -1.2754   -0.0126 C.ar    1  UNL1        0.0474
     12 C           2.8405   -0.0995   -0.2271 C.ar    1  UNL1        0.0968
     13 C           2.4495    1.2238   -0.3798 C.ar    1  UNL1       -0.0324
     14 C           3.4394    2.1748   -0.5841 C.ar    1  UNL1       -0.0398
     15 C           4.7696    1.7892   -0.6301 C.ar    1  UNL1        0.0500
     16 N           5.1056    0.4752   -0.4747 N.ar    1  UNL1       -0.1571
     17 N           4.1462   -0.4323   -0.2786 N.ar    1  UNL1       -0.1497
     18 N           4.3173   -1.7429   -0.1114 N.ar    1  UNL1       -0.1564
     19 C           3.0872   -2.2660    0.0521 C.ar    1  UNL1        0.0612
     20 H          -3.9424    2.9108   -0.2470 H       1  UNL1        0.0284
     21 H          -5.3741    2.1605    0.6715 H       1  UNL1        0.0284
     22 H          -5.5835    0.4029   -1.0796 H       1  UNL1        0.0284
     23 H          -4.1708    1.1604   -2.0176 H       1  UNL1        0.0284
     24 H          -4.1534   -0.0433    0.9172 H       1  UNL1        0.0498
     25 H          -1.8223    1.6701   -0.1232 H       1  UNL1        0.1492
     26 H           0.7060   -3.5204    0.4017 H       1  UNL1        0.0654
     27 H          -1.6893   -3.6939    0.6039 H       1  UNL1        0.0831
     28 H           1.3840    1.4866   -0.3366 H       1  UNL1        0.0640
     29 H           3.1167    3.1813   -0.6983 H       1  UNL1        0.0634
     30 H           5.5419    2.5372   -0.7903 H       1  UNL1        0.0848
     31 H           2.8617   -3.3205    0.2137 H       1  UNL1        0.0855
@<TRIPOS>BOND
     1     1     2    1
     2     2     3    1
     3     3     4    1
     4     4     5    1
     5     5     6   ar
     6     6     7   ar
     7     7     8   ar
     8     8     9   ar
     9     9    10   ar
    10     7    11    1
    11    11    12   ar
    12    12    13   ar
    13    13    14   ar
    14    14    15   ar
    15    15    16   ar
    16    16    17   ar
    17    17    18   ar
    18    18    19   ar
    19     3     1    1
    20    10     5   ar
    21    19    11   ar
    22    17    12   ar
    23     1    20    1
    24     1    21    1
    25     2    22    1
    26     2    23    1
    27     3    24    1
    28     4    25    1
    29     8    26    1
    30     9    27    1
    31    13    28    1
    32    14    29    1
    33    15    30    1
    34    19    31    1
