@<TRIPOS>MOLECULE
*****
 44 46 0 0 0
SMALL
GASTEIGER

@<TRIPOS>ATOM
      1 C          -7.0909   -0.2421    0.7533 C.3     1  UNL1       -0.0596
      2 C          -5.6506    0.1289    0.3642 C.3     1  UNL1       -0.0124
      3 C          -5.6307    0.4896   -1.0825 C.3     1  UNL1       -0.0596
      4 C          -4.7291   -0.9627    0.7878 C.3     1  UNL1        0.0921
      5 O          -3.3978   -0.8642    0.5626 O.3     1  UNL1       -0.4880
      6 C          -2.5479   -0.7992   -0.4468 C.ar    1  UNL1        0.1624
      7 C          -1.2365   -0.6630    0.0629 C.ar    1  UNL1        0.1693
      8 O          -0.9521   -0.6147    1.4314 O.3     1  UNL1       -0.5028
      9 C          -0.0874   -0.5619   -0.7037 C.ar    1  UNL1        0.0623
     10 C          -0.2824   -0.6016   -2.0834 C.ar    1  UNL1       -0.0474
     11 C          -1.5059   -0.7307   -2.6658 C.ar    1  UNL1       -0.0574
     12 C          -2.5638   -0.8220   -1.8145 C.ar    1  UNL1       -0.0163
     13 C           1.2723   -0.4213   -0.2164 C.ar    1  UNL1        0.1429
     14 N           2.3591   -0.3265   -1.0012 N.ar    1  UNL1       -0.2276
     15 C           3.4672   -0.2068   -0.2589 C.ar    1  UNL1        0.0904
     16 C           4.7736   -0.0848   -0.6653 C.ar    1  UNL1       -0.0166
     17 C           5.7383    0.0242    0.3016 C.ar    1  UNL1        0.1019
     18 C           7.1276    0.1543   -0.1061 C.2     1  UNL1        0.3110
     19 N           8.0448    0.8806    0.7175 N.pl3   1  UNL1       -0.2466
     20 N           7.4829   -0.3980   -1.2094 N.2     1  UNL1       -0.0993
     21 C           5.3721    0.0083    1.6386 C.ar    1  UNL1        0.1403
     22 F           6.2984    0.1136    2.6083 F       1  UNL1       -0.2045
     23 C           4.0463   -0.1154    2.0629 C.ar    1  UNL1       -0.0001
     24 C           3.0993   -0.2231    1.0651 C.ar    1  UNL1        0.0692
     25 N           1.7622   -0.3547    1.0284 N.ar    1  UNL1       -0.3377
     26 H          -7.1160   -0.2881    1.8491 H       1  UNL1        0.0233
     27 H          -7.7021    0.6241    0.3972 H       1  UNL1        0.0233
     28 H          -7.3558   -1.1846    0.2621 H       1  UNL1        0.0233
     29 H          -5.4132    1.0732    0.9235 H       1  UNL1        0.0328
     30 H          -5.8053   -0.4218   -1.7269 H       1  UNL1        0.0233
     31 H          -6.4678    1.2087   -1.3412 H       1  UNL1        0.0233
     32 H          -4.7154    1.0324   -1.3842 H       1  UNL1        0.0233
     33 H          -5.1117   -1.9427    0.3167 H       1  UNL1        0.0699
     34 H          -4.9666   -1.1452    1.8861 H       1  UNL1        0.0699
     35 H          -1.3342    0.0582    2.0627 H       1  UNL1        0.2923
     36 H           0.5700   -0.5280   -2.7710 H       1  UNL1        0.0626
     37 H          -1.6700   -0.7626   -3.7274 H       1  UNL1        0.0619
     38 H          -3.5478   -0.9441   -2.2311 H       1  UNL1        0.0655
     39 H           5.0134   -0.0771   -1.7242 H       1  UNL1        0.0649
     40 H           8.3204    0.2485    1.5267 H       1  UNL1        0.2884
     41 H           8.6516    1.6723    1.0568 H       1  UNL1        0.2884
     42 H           8.4828   -0.3000   -1.4953 H       1  UNL1        0.3633
     43 H           3.7598   -0.1282    3.0849 H       1  UNL1        0.0668
     44 H           1.2385   -0.3930    1.9052 H       1  UNL1        0.1674
@<TRIPOS>BOND
     1     1     2    1
     2     2     3    1
     3     2     4    1
     4     4     5    1
     5     5     6    1
     6     6     7   ar
     7     7     8    1
     8     7     9   ar
     9     9    10   ar
    10    10    11   ar
    11    11    12   ar
    12     9    13    1
    13    13    14   ar
    14    14    15   ar
    15    15    16   ar
    16    16    17   ar
    17    17    18    1
    18    18    19    1
    19    18    20    2
    20    17    21   ar
    21    21    22    1
    22    21    23   ar
    23    23    24   ar
    24    24    25   ar
    25    12     6   ar
    26    25    13   ar
    27    24    15   ar
    28     1    26    1
    29     1    27    1
    30     1    28    1
    31     2    29    1
    32     3    30    1
    33     3    31    1
    34     3    32    1
    35     4    33    1
    36     4    34    1
    37     8    35    1
    38    10    36    1
    39    11    37    1
    40    12    38    1
    41    16    39    1
    42    19    40    1
    43    19    41    1
    44    20    42    1
    45    23    43    1
    46    25    44    1
