
     RDKit          3D

 44 46  0  0  0  0  0  0  0  0999 V2000
   -7.0909   -0.2421    0.7533 C   0  0  0  0  0  0  0  0  0  0  0  0
   -5.6506    0.1289    0.3642 C   0  0  0  0  0  0  0  0  0  0  0  0
   -5.6307    0.4896   -1.0825 C   0  0  0  0  0  0  0  0  0  0  0  0
   -4.7291   -0.9627    0.7878 C   0  0  0  0  0  0  0  0  0  0  0  0
   -3.3978   -0.8642    0.5626 O   0  0  0  0  0  0  0  0  0  0  0  0
   -2.5479   -0.7992   -0.4468 C   0  0  0  0  0  0  0  0  0  0  0  0
   -1.2365   -0.6630    0.0629 C   0  0  0  0  0  0  0  0  0  0  0  0
   -0.9521   -0.6147    1.4314 O   0  0  0  0  0  0  0  0  0  0  0  0
   -0.0874   -0.5619   -0.7037 C   0  0  0  0  0  0  0  0  0  0  0  0
   -0.2824   -0.6016   -2.0834 C   0  0  0  0  0  0  0  0  0  0  0  0
   -1.5059   -0.7307   -2.6658 C   0  0  0  0  0  0  0  0  0  0  0  0
   -2.5638   -0.8220   -1.8145 C   0  0  0  0  0  0  0  0  0  0  0  0
    1.2723   -0.4213   -0.2164 C   0  0  0  0  0  0  0  0  0  0  0  0
    2.3591   -0.3265   -1.0012 N   0  0  0  0  0  0  0  0  0  0  0  0
    3.4672   -0.2068   -0.2589 C   0  0  0  0  0  0  0  0  0  0  0  0
    4.7736   -0.0848   -0.6653 C   0  0  0  0  0  0  0  0  0  0  0  0
    5.7383    0.0242    0.3016 C   0  0  0  0  0  0  0  0  0  0  0  0
    7.1276    0.1543   -0.1061 C   0  0  0  0  0  0  0  0  0  0  0  0
    8.0448    0.8806    0.7175 N   0  0  0  0  0  0  0  0  0  0  0  0
    7.4829   -0.3980   -1.2094 N   0  0  0  0  0  0  0  0  0  0  0  0
    5.3721    0.0083    1.6386 C   0  0  0  0  0  0  0  0  0  0  0  0
    6.2984    0.1136    2.6083 F   0  0  0  0  0  0  0  0  0  0  0  0
    4.0463   -0.1154    2.0629 C   0  0  0  0  0  0  0  0  0  0  0  0
    3.0993   -0.2231    1.0651 C   0  0  0  0  0  0  0  0  0  0  0  0
    1.7622   -0.3547    1.0284 N   0  0  0  0  0  0  0  0  0  0  0  0
   -7.1160   -0.2881    1.8491 H   0  0  0  0  0  0  0  0  0  0  0  0
   -7.7021    0.6241    0.3972 H   0  0  0  0  0  0  0  0  0  0  0  0
   -7.3558   -1.1846    0.2621 H   0  0  0  0  0  0  0  0  0  0  0  0
   -5.4132    1.0732    0.9235 H   0  0  0  0  0  0  0  0  0  0  0  0
   -5.8053   -0.4218   -1.7269 H   0  0  0  0  0  0  0  0  0  0  0  0
   -6.4678    1.2087   -1.3412 H   0  0  0  0  0  0  0  0  0  0  0  0
   -4.7154    1.0324   -1.3842 H   0  0  0  0  0  0  0  0  0  0  0  0
   -5.1117   -1.9427    0.3167 H   0  0  0  0  0  0  0  0  0  0  0  0
   -4.9666   -1.1452    1.8861 H   0  0  0  0  0  0  0  0  0  0  0  0
   -1.3342    0.0582    2.0627 H   0  0  0  0  0  0  0  0  0  0  0  0
    0.5700   -0.5280   -2.7710 H   0  0  0  0  0  0  0  0  0  0  0  0
   -1.6700   -0.7626   -3.7274 H   0  0  0  0  0  0  0  0  0  0  0  0
   -3.5478   -0.9441   -2.2311 H   0  0  0  0  0  0  0  0  0  0  0  0
    5.0134   -0.0771   -1.7242 H   0  0  0  0  0  0  0  0  0  0  0  0
    8.3204    0.2485    1.5267 H   0  0  0  0  0  0  0  0  0  0  0  0
    8.6516    1.6723    1.0568 H   0  0  0  0  0  0  0  0  0  0  0  0
    8.4828   -0.3000   -1.4953 H   0  0  0  0  0  0  0  0  0  0  0  0
    3.7598   -0.1282    3.0849 H   0  0  0  0  0  0  0  0  0  0  0  0
    1.2385   -0.3930    1.9052 H   0  0  0  0  0  0  0  0  0  0  0  0
  1  2  1  0
  2  3  1  0
  2  4  1  0
  4  5  1  0
  5  6  1  0
  6  7  2  0
  7  8  1  0
  7  9  1  0
  9 10  2  0
 10 11  1  0
 11 12  2  0
  9 13  1  0
 13 14  2  0
 14 15  1  0
 15 16  2  0
 16 17  1  0
 17 18  1  0
 18 19  1  0
 18 20  2  3
 17 21  2  0
 21 22  1  0
 21 23  1  0
 23 24  2  0
 24 25  1  0
 12  6  1  0
 25 13  1  0
 24 15  1  0
  1 26  1  0
  1 27  1  0
  1 28  1  0
  2 29  1  0
  3 30  1  0
  3 31  1  0
  3 32  1  0
  4 33  1  0
  4 34  1  0
  8 35  1  0
 10 36  1  0
 11 37  1  0
 12 38  1  0
 16 39  1  0
 19 40  1  0
 19 41  1  0
 20 42  1  0
 23 43  1  0
 25 44  1  0
M  END
$$$$
