
     RDKit          3D

 59 61  0  0  0  0  0  0  0  0999 V2000
   -2.1217   -2.0983   -3.0037 C   0  0  0  0  0  0  0  0  0  0  0  0
   -2.0340   -2.3576   -1.4792 C   0  0  0  0  0  0  0  0  0  0  0  0
   -2.8174   -3.6108   -1.2177 C   0  0  0  0  0  0  0  0  0  0  0  0
   -2.7390   -1.2193   -0.8594 C   0  0  0  0  0  0  0  0  0  0  0  0
   -4.1397   -1.2748   -0.9272 C   0  0  0  0  0  0  0  0  0  0  0  0
   -4.8491   -0.2447   -0.4390 N   0  0  0  0  0  0  0  0  0  0  0  0
   -4.2891    0.8450    0.1153 C   0  0  0  0  0  0  0  0  0  0  0  0
   -5.1391    1.9142    0.6175 C   0  0  0  0  0  0  0  0  0  0  0  0
   -4.6487    3.0602    1.1976 C   0  0  0  0  0  0  0  0  0  0  0  0
   -5.5169    4.0564    1.6632 C   0  0  0  0  0  0  0  0  0  0  0  0
   -4.9006    5.5223    2.4048 Cl  0  0  0  0  0  0  0  0  0  0  0  0
   -6.8852    3.9290    1.5595 C   0  0  0  0  0  0  0  0  0  0  0  0
   -7.3762    2.7786    0.9772 C   0  0  0  0  0  0  0  0  0  0  0  0
   -6.5172    1.8002    0.5201 C   0  0  0  0  0  0  0  0  0  0  0  0
   -7.0093    0.6771   -0.0487 F   0  0  0  0  0  0  0  0  0  0  0  0
   -2.9177    0.9166    0.1915 C   0  0  0  0  0  0  0  0  0  0  0  0
   -2.1440   -0.1290   -0.3013 C   0  0  0  0  0  0  0  0  0  0  0  0
   -0.7011   -0.0397   -0.2315 N   0  0  0  0  0  0  0  0  0  0  0  0
    0.0051   -0.9365    0.6080 C   0  0  0  0  0  0  0  0  0  0  0  0
   -0.7613   -1.8195    1.4077 C   0  0  0  0  0  0  0  0  0  0  0  0
   -0.0919   -2.6895    2.2215 C   0  0  0  0  0  0  0  0  0  0  0  0
    1.2429   -2.7194    2.2731 N   0  0  0  0  0  0  0  0  0  0  0  0
    1.9772   -1.8846    1.5171 C   0  0  0  0  0  0  0  0  0  0  0  0
    1.3807   -0.9583    0.6526 C   0  0  0  0  0  0  0  0  0  0  0  0
    2.1866   -0.0728   -0.1632 C   0  0  0  0  0  0  0  0  0  0  0  0
    1.7489    0.7702   -0.9893 O   0  0  0  0  0  0  0  0  0  0  0  0
    3.6201   -0.1306   -0.0484 N   0  0  0  0  0  0  0  0  0  0  0  0
    4.4306    0.7671   -0.8761 C   0  0  0  0  0  0  0  0  0  0  0  0
    5.9008    0.5615   -0.6144 C   0  0  0  0  0  0  0  0  0  0  0  0
    6.2615    0.8154    0.7451 N   0  0  0  0  0  0  0  0  0  0  0  0
    7.9578    0.5574    0.9558 S   0  0  0  0  0  6  0  0  0  0  0  0
    8.9015    1.6740   -0.0637 C   0  0  0  0  0  0  0  0  0  0  0  0
    8.2626   -0.8823    0.6130 O   0  0  0  0  0  0  0  0  0  0  0  0
    8.3539    0.7736    2.3785 O   0  0  0  0  0  0  0  0  0  0  0  0
   -2.0464   -1.0329   -3.2275 H   0  0  0  0  0  0  0  0  0  0  0  0
   -1.3337   -2.7031   -3.4971 H   0  0  0  0  0  0  0  0  0  0  0  0
   -3.1037   -2.4814   -3.3838 H   0  0  0  0  0  0  0  0  0  0  0  0
   -0.9675   -2.4307   -1.2781 H   0  0  0  0  0  0  0  0  0  0  0  0
   -3.4096   -3.5152   -0.2640 H   0  0  0  0  0  0  0  0  0  0  0  0
   -3.5546   -3.7966   -2.0170 H   0  0  0  0  0  0  0  0  0  0  0  0
   -2.1398   -4.4910   -1.1225 H   0  0  0  0  0  0  0  0  0  0  0  0
   -4.6326   -2.1338   -1.3655 H   0  0  0  0  0  0  0  0  0  0  0  0
   -3.5921    3.2032    1.2996 H   0  0  0  0  0  0  0  0  0  0  0  0
   -7.5498    4.7027    1.9214 H   0  0  0  0  0  0  0  0  0  0  0  0
   -8.4546    2.6912    0.9020 H   0  0  0  0  0  0  0  0  0  0  0  0
   -2.3934    1.7374    0.6121 H   0  0  0  0  0  0  0  0  0  0  0  0
   -0.3149    0.6983   -0.8173 H   0  0  0  0  0  0  0  0  0  0  0  0
   -1.8421   -1.7823    1.3556 H   0  0  0  0  0  0  0  0  0  0  0  0
   -0.7095   -3.3660    2.8337 H   0  0  0  0  0  0  0  0  0  0  0  0
    3.0592   -1.9096    1.5585 H   0  0  0  0  0  0  0  0  0  0  0  0
    4.1384   -0.7546    0.5712 H   0  0  0  0  0  0  0  0  0  0  0  0
    4.1885    0.6744   -1.9458 H   0  0  0  0  0  0  0  0  0  0  0  0
    4.2049    1.8218   -0.5665 H   0  0  0  0  0  0  0  0  0  0  0  0
    6.2336   -0.4648   -0.9443 H   0  0  0  0  0  0  0  0  0  0  0  0
    6.4477    1.2572   -1.2964 H   0  0  0  0  0  0  0  0  0  0  0  0
    5.7841    0.1318    1.3566 H   0  0  0  0  0  0  0  0  0  0  0  0
    8.7284    2.6866    0.3126 H   0  0  0  0  0  0  0  0  0  0  0  0
    9.9715    1.3543    0.0445 H   0  0  0  0  0  0  0  0  0  0  0  0
    8.6570    1.5521   -1.1321 H   0  0  0  0  0  0  0  0  0  0  0  0
  1  2  1  0
  2  3  1  0
  2  4  1  0
  4  5  2  0
  5  6  1  0
  6  7  2  0
  7  8  1  0
  8  9  2  0
  9 10  1  0
 10 11  1  0
 10 12  2  0
 12 13  1  0
 13 14  2  0
 14 15  1  0
  7 16  1  0
 16 17  2  0
 17 18  1  0
 18 19  1  0
 19 20  2  0
 20 21  1  0
 21 22  2  0
 22 23  1  0
 23 24  2  0
 24 25  1  0
 25 26  2  0
 25 27  1  0
 27 28  1  0
 28 29  1  0
 29 30  1  0
 30 31  1  0
 31 32  1  0
 31 33  2  0
 31 34  2  0
 17  4  1  0
 24 19  1  0
 14  8  1  0
  1 35  1  0
  1 36  1  0
  1 37  1  0
  2 38  1  0
  3 39  1  0
  3 40  1  0
  3 41  1  0
  5 42  1  0
  9 43  1  0
 12 44  1  0
 13 45  1  0
 16 46  1  0
 18 47  1  0
 20 48  1  0
 21 49  1  0
 23 50  1  0
 27 51  1  0
 28 52  1  0
 28 53  1  0
 29 54  1  0
 29 55  1  0
 30 56  1  0
 32 57  1  0
 32 58  1  0
 32 59  1  0
M  END
$$$$
