@<TRIPOS>MOLECULE
*****
 59 61 0 0 0
SMALL
GASTEIGER

@<TRIPOS>ATOM
      1 C          -2.1217   -2.0983   -3.0037 C.3     1  UNL1       -0.0585
      2 C          -2.0340   -2.3576   -1.4792 C.3     1  UNL1       -0.0183
      3 C          -2.8174   -3.6108   -1.2177 C.3     1  UNL1       -0.0585
      4 C          -2.7390   -1.2193   -0.8594 C.ar    1  UNL1       -0.0056
      5 C          -4.1397   -1.2748   -0.9272 C.ar    1  UNL1        0.0334
      6 N          -4.8491   -0.2447   -0.4390 N.ar    1  UNL1       -0.2545
      7 C          -4.2891    0.8450    0.1153 C.ar    1  UNL1        0.0755
      8 C          -5.1391    1.9142    0.6175 C.ar    1  UNL1        0.0369
      9 C          -4.6487    3.0602    1.1976 C.ar    1  UNL1       -0.0314
     10 C          -5.5169    4.0564    1.6632 C.ar    1  UNL1        0.0418
     11 CL         -4.9006    5.5223    2.4048 Cl      1  UNL1       -0.0835
     12 C          -6.8852    3.9290    1.5595 C.ar    1  UNL1       -0.0406
     13 C          -7.3762    2.7786    0.9772 C.ar    1  UNL1       -0.0244
     14 C          -6.5172    1.8002    0.5201 C.ar    1  UNL1        0.1326
     15 F          -7.0093    0.6771   -0.0487 F       1  UNL1       -0.2048
     16 C          -2.9177    0.9166    0.1915 C.ar    1  UNL1       -0.0141
     17 C          -2.1440   -0.1290   -0.3013 C.ar    1  UNL1        0.0383
     18 N          -0.7011   -0.0397   -0.2315 N.pl3   1  UNL1       -0.3135
     19 C           0.0051   -0.9365    0.6080 C.ar    1  UNL1        0.0465
     20 C          -0.7613   -1.8195    1.4077 C.ar    1  UNL1       -0.0217
     21 C          -0.0919   -2.6895    2.2215 C.ar    1  UNL1        0.0293
     22 N           1.2429   -2.7194    2.2731 N.ar    1  UNL1       -0.2624
     23 C           1.9772   -1.8846    1.5171 C.ar    1  UNL1        0.0415
     24 C           1.3807   -0.9583    0.6526 C.ar    1  UNL1        0.0758
     25 C           2.1866   -0.0728   -0.1632 C.2     1  UNL1        0.2474
     26 O           1.7489    0.7702   -0.9893 O.2     1  UNL1       -0.2701
     27 N           3.6201   -0.1306   -0.0484 N.am    1  UNL1       -0.3100
     28 C           4.4306    0.7671   -0.8761 C.3     1  UNL1        0.0260
     29 C           5.9008    0.5615   -0.6144 C.3     1  UNL1        0.0326
     30 N           6.2615    0.8154    0.7451 N.3     1  UNL1       -0.1933
     31 S           7.9578    0.5574    0.9558 S.O2    1  UNL1        0.0266
     32 C           8.9015    1.6740   -0.0637 C.3     1  UNL1        0.0705
     33 O           8.2626   -0.8823    0.6130 O.2     1  UNL1       -0.1585
     34 O           8.3539    0.7736    2.3785 O.2     1  UNL1       -0.1585
     35 H          -2.0464   -1.0329   -3.2275 H       1  UNL1        0.0235
     36 H          -1.3337   -2.7031   -3.4971 H       1  UNL1        0.0235
     37 H          -3.1037   -2.4814   -3.3838 H       1  UNL1        0.0235
     38 H          -0.9675   -2.4307   -1.2781 H       1  UNL1        0.0344
     39 H          -3.4096   -3.5152   -0.2640 H       1  UNL1        0.0235
     40 H          -3.5546   -3.7966   -2.0170 H       1  UNL1        0.0235
     41 H          -2.1398   -4.4910   -1.1225 H       1  UNL1        0.0235
     42 H          -4.6326   -2.1338   -1.3655 H       1  UNL1        0.0833
     43 H          -3.5921    3.2032    1.2996 H       1  UNL1        0.0639
     44 H          -7.5498    4.7027    1.9214 H       1  UNL1        0.0633
     45 H          -8.4546    2.6912    0.9020 H       1  UNL1        0.0647
     46 H          -2.3934    1.7374    0.6121 H       1  UNL1        0.0658
     47 H          -0.3149    0.6983   -0.8173 H       1  UNL1        0.1522
     48 H          -1.8421   -1.7823    1.3556 H       1  UNL1        0.0651
     49 H          -0.7095   -3.3660    2.8337 H       1  UNL1        0.0830
     50 H           3.0592   -1.9096    1.5585 H       1  UNL1        0.0838
     51 H           4.1384   -0.7546    0.5712 H       1  UNL1        0.1491
     52 H           4.1885    0.6744   -1.9458 H       1  UNL1        0.0475
     53 H           4.2049    1.8218   -0.5665 H       1  UNL1        0.0475
     54 H           6.2336   -0.4648   -0.9443 H       1  UNL1        0.0456
     55 H           6.4477    1.2572   -1.2964 H       1  UNL1        0.0456
     56 H           5.7841    0.1318    1.3566 H       1  UNL1        0.1476
     57 H           8.7284    2.6866    0.3126 H       1  UNL1        0.0479
     58 H           9.9715    1.3543    0.0445 H       1  UNL1        0.0479
     59 H           8.6570    1.5521   -1.1321 H       1  UNL1        0.0479
@<TRIPOS>BOND
     1     1     2    1
     2     2     3    1
     3     2     4    1
     4     4     5   ar
     5     5     6   ar
     6     6     7   ar
     7     7     8    1
     8     8     9   ar
     9     9    10   ar
    10    10    11    1
    11    10    12   ar
    12    12    13   ar
    13    13    14   ar
    14    14    15    1
    15     7    16   ar
    16    16    17   ar
    17    17    18    1
    18    18    19    1
    19    19    20   ar
    20    20    21   ar
    21    21    22   ar
    22    22    23   ar
    23    23    24   ar
    24    24    25    1
    25    25    26    2
    26    25    27   am
    27    27    28    1
    28    28    29    1
    29    29    30    1
    30    30    31    1
    31    31    32    1
    32    31    33    2
    33    31    34    2
    34    17     4   ar
    35    24    19   ar
    36    14     8   ar
    37     1    35    1
    38     1    36    1
    39     1    37    1
    40     2    38    1
    41     3    39    1
    42     3    40    1
    43     3    41    1
    44     5    42    1
    45     9    43    1
    46    12    44    1
    47    13    45    1
    48    16    46    1
    49    18    47    1
    50    20    48    1
    51    21    49    1
    52    23    50    1
    53    27    51    1
    54    28    52    1
    55    28    53    1
    56    29    54    1
    57    29    55    1
    58    30    56    1
    59    32    57    1
    60    32    58    1
    61    32    59    1
