
     RDKit          3D

 48 52  0  0  0  0  0  0  0  0999 V2000
    2.0708    1.4366    1.7335 O   0  0  0  0  0  0  0  0  0  0  0  0
    2.0469    0.3306    1.1412 C   0  0  0  0  0  0  0  0  0  0  0  0
    3.2824   -0.2211    0.5453 C   0  0  0  0  0  0  0  0  0  0  0  0
    3.4059   -1.3711   -0.1060 N   0  0  0  0  0  0  0  0  0  0  0  0
    4.7114   -1.4820   -0.4804 C   0  0  0  0  0  0  0  0  0  0  0  0
    5.3549   -0.3536   -0.0257 C   0  0  0  0  0  0  0  0  0  0  0  0
    6.7629   -0.0125   -0.1805 C   0  0  0  0  0  0  0  0  0  0  0  0
    7.6243   -0.8508   -0.8406 C   0  0  0  0  0  0  0  0  0  0  0  0
    8.9472   -0.4757   -0.9566 C   0  0  0  0  0  0  0  0  0  0  0  0
    9.3882    0.7108   -0.4223 C   0  0  0  0  0  0  0  0  0  0  0  0
    8.4966    1.5290    0.2341 C   0  0  0  0  0  0  0  0  0  0  0  0
    7.2253    1.1429    0.3318 N   0  0  0  0  0  0  0  0  0  0  0  0
    4.4426    0.3617    0.5807 O   0  0  0  0  0  0  0  0  0  0  0  0
    0.7656   -0.3993    1.0548 C   0  0  0  0  0  0  0  0  0  0  0  0
    0.4670   -0.7916   -0.3483 C   0  0  0  0  0  0  0  0  0  0  0  0
   -0.9095   -0.4338   -0.8261 C   0  0  0  0  0  0  0  0  0  0  0  0
   -1.9268   -0.3793    0.2200 C   0  0  0  0  0  0  0  0  0  0  0  0
   -3.2318   -0.7205   -0.0924 C   0  0  0  0  0  0  0  0  0  0  0  0
   -4.2101   -0.6749    0.8808 C   0  0  0  0  0  0  0  0  0  0  0  0
   -5.5354   -1.0199    0.5697 O   0  0  0  0  0  0  0  0  0  0  0  0
   -6.4551   -0.1053    0.1314 C   0  0  0  0  0  0  0  0  0  0  0  0
   -6.5762    0.1191   -1.2185 C   0  0  0  0  0  0  0  0  0  0  0  0
   -7.4996    1.0395   -1.6873 C   0  0  0  0  0  0  0  0  0  0  0  0
   -8.2792    1.7097   -0.7566 C   0  0  0  0  0  0  0  0  0  0  0  0
   -8.1437    1.4712    0.5984 C   0  0  0  0  0  0  0  0  0  0  0  0
   -7.2278    0.5584    1.0618 C   0  0  0  0  0  0  0  0  0  0  0  0
   -3.8447   -0.2838    2.1520 C   0  0  0  0  0  0  0  0  0  0  0  0
   -2.5377    0.0585    2.4674 C   0  0  0  0  0  0  0  0  0  0  0  0
   -1.5564    0.0132    1.4937 C   0  0  0  0  0  0  0  0  0  0  0  0
   -0.2364    0.3286    1.6908 O   0  0  0  0  0  0  0  0  0  0  0  0
    5.1803   -2.2962   -1.0332 H   0  0  0  0  0  0  0  0  0  0  0  0
    7.2862   -1.7702   -1.2555 H   0  0  0  0  0  0  0  0  0  0  0  0
    9.6440   -1.1124   -1.4681 H   0  0  0  0  0  0  0  0  0  0  0  0
   10.4350    0.9571   -0.5415 H   0  0  0  0  0  0  0  0  0  0  0  0
    8.8100    2.4576    0.6597 H   0  0  0  0  0  0  0  0  0  0  0  0
    0.9014   -1.3553    1.6468 H   0  0  0  0  0  0  0  0  0  0  0  0
    1.1869   -0.2551   -1.0164 H   0  0  0  0  0  0  0  0  0  0  0  0
    0.6645   -1.8721   -0.5230 H   0  0  0  0  0  0  0  0  0  0  0  0
   -0.8911    0.5255   -1.4102 H   0  0  0  0  0  0  0  0  0  0  0  0
   -1.2163   -1.2072   -1.5708 H   0  0  0  0  0  0  0  0  0  0  0  0
   -3.5327   -1.0293   -1.0866 H   0  0  0  0  0  0  0  0  0  0  0  0
   -5.9768   -0.3958   -1.9408 H   0  0  0  0  0  0  0  0  0  0  0  0
   -7.6022    1.2234   -2.7522 H   0  0  0  0  0  0  0  0  0  0  0  0
   -9.0100    2.4349   -1.0899 H   0  0  0  0  0  0  0  0  0  0  0  0
   -8.7582    2.0016    1.3071 H   0  0  0  0  0  0  0  0  0  0  0  0
   -7.0854    0.3379    2.1091 H   0  0  0  0  0  0  0  0  0  0  0  0
   -4.6004   -0.2460    2.9136 H   0  0  0  0  0  0  0  0  0  0  0  0
   -2.2566    0.3666    3.4722 H   0  0  0  0  0  0  0  0  0  0  0  0
  1  2  2  0
  2  3  1  0
  3  4  2  0
  4  5  1  0
  5  6  2  0
  6  7  1  0
  7  8  2  0
  8  9  1  0
  9 10  2  0
 10 11  1  0
 11 12  2  0
  6 13  1  0
  2 14  1  0
 14 15  1  0
 15 16  1  0
 16 17  1  0
 17 18  2  0
 18 19  1  0
 19 20  1  0
 20 21  1  0
 21 22  2  0
 22 23  1  0
 23 24  2  0
 24 25  1  0
 25 26  2  0
 19 27  2  0
 27 28  1  0
 28 29  2  0
 29 30  1  0
 13  3  1  0
 30 14  1  0
 12  7  1  0
 29 17  1  0
 26 21  1  0
  5 31  1  0
  8 32  1  0
  9 33  1  0
 10 34  1  0
 11 35  1  0
 14 36  1  0
 15 37  1  0
 15 38  1  0
 16 39  1  0
 16 40  1  0
 18 41  1  0
 22 42  1  0
 23 43  1  0
 24 44  1  0
 25 45  1  0
 26 46  1  0
 27 47  1  0
 28 48  1  0
M  END
$$$$
