@<TRIPOS>MOLECULE
*****
 48 52 0 0 0
SMALL
GASTEIGER

@<TRIPOS>ATOM
      1 O           2.0708    1.4366    1.7335 O.2     1  UNL1       -0.2830
      2 C           2.0469    0.3306    1.1412 C.2     1  UNL1        0.2574
      3 C           3.2824   -0.2211    0.5453 C.ar    1  UNL1        0.2680
      4 N           3.4059   -1.3711   -0.1060 N.ar    1  UNL1       -0.2142
      5 C           4.7114   -1.4820   -0.4804 C.ar    1  UNL1        0.0759
      6 C           5.3549   -0.3536   -0.0257 C.ar    1  UNL1        0.1737
      7 C           6.7629   -0.0125   -0.1805 C.ar    1  UNL1        0.1075
      8 C           7.6243   -0.8508   -0.8406 C.ar    1  UNL1       -0.0326
      9 C           8.9472   -0.4757   -0.9566 C.ar    1  UNL1       -0.0582
     10 C           9.3882    0.7108   -0.4223 C.ar    1  UNL1       -0.0436
     11 C           8.4966    1.5290    0.2341 C.ar    1  UNL1        0.0284
     12 N           7.2253    1.1429    0.3318 N.ar    1  UNL1       -0.2518
     13 O           4.4426    0.3617    0.5807 O.2     1  UNL1       -0.4314
     14 C           0.7656   -0.3993    1.0548 C.3     1  UNL1        0.1672
     15 C           0.4670   -0.7916   -0.3483 C.3     1  UNL1       -0.0041
     16 C          -0.9095   -0.4338   -0.8261 C.3     1  UNL1       -0.0203
     17 C          -1.9268   -0.3793    0.2200 C.ar    1  UNL1       -0.0021
     18 C          -3.2318   -0.7205   -0.0924 C.ar    1  UNL1       -0.0127
     19 C          -4.2101   -0.6749    0.8808 C.ar    1  UNL1        0.1289
     20 O          -5.5354   -1.0199    0.5697 O.3     1  UNL1       -0.4560
     21 C          -6.4551   -0.1053    0.1314 C.ar    1  UNL1        0.1284
     22 C          -6.5762    0.1191   -1.2185 C.ar    1  UNL1       -0.0193
     23 C          -7.4996    1.0395   -1.6873 C.ar    1  UNL1       -0.0583
     24 C          -8.2792    1.7097   -0.7566 C.ar    1  UNL1       -0.0615
     25 C          -8.1437    1.4712    0.5984 C.ar    1  UNL1       -0.0583
     26 C          -7.2278    0.5584    1.0618 C.ar    1  UNL1       -0.0193
     27 C          -3.8447   -0.2838    2.1520 C.ar    1  UNL1       -0.0159
     28 C          -2.5377    0.0585    2.4674 C.ar    1  UNL1       -0.0162
     29 C          -1.5564    0.0132    1.4937 C.ar    1  UNL1        0.1249
     30 O          -0.2364    0.3286    1.6908 O.3     1  UNL1       -0.4805
     31 H           5.1803   -2.2962   -1.0332 H       1  UNL1        0.0869
     32 H           7.2862   -1.7702   -1.2555 H       1  UNL1        0.0640
     33 H           9.6440   -1.1124   -1.4681 H       1  UNL1        0.0619
     34 H          10.4350    0.9571   -0.5415 H       1  UNL1        0.0633
     35 H           8.8100    2.4576    0.6597 H       1  UNL1        0.0830
     36 H           0.9014   -1.3553    1.6468 H       1  UNL1        0.0819
     37 H           1.1869   -0.2551   -1.0164 H       1  UNL1        0.0308
     38 H           0.6645   -1.8721   -0.5230 H       1  UNL1        0.0308
     39 H          -0.8911    0.5255   -1.4102 H       1  UNL1        0.0316
     40 H          -1.2163   -1.2072   -1.5708 H       1  UNL1        0.0316
     41 H          -3.5327   -1.0293   -1.0866 H       1  UNL1        0.0658
     42 H          -5.9768   -0.3958   -1.9408 H       1  UNL1        0.0654
     43 H          -7.6022    1.2234   -2.7522 H       1  UNL1        0.0619
     44 H          -9.0100    2.4349   -1.0899 H       1  UNL1        0.0618
     45 H          -8.7582    2.0016    1.3071 H       1  UNL1        0.0619
     46 H          -7.0854    0.3379    2.1091 H       1  UNL1        0.0654
     47 H          -4.6004   -0.2460    2.9136 H       1  UNL1        0.0655
     48 H          -2.2566    0.3666    3.4722 H       1  UNL1        0.0655
@<TRIPOS>BOND
     1     1     2    2
     2     2     3    1
     3     3     4   ar
     4     4     5   ar
     5     5     6   ar
     6     6     7    1
     7     7     8   ar
     8     8     9   ar
     9     9    10   ar
    10    10    11   ar
    11    11    12   ar
    12     6    13   ar
    13     2    14    1
    14    14    15    1
    15    15    16    1
    16    16    17    1
    17    17    18   ar
    18    18    19   ar
    19    19    20    1
    20    20    21    1
    21    21    22   ar
    22    22    23   ar
    23    23    24   ar
    24    24    25   ar
    25    25    26   ar
    26    19    27   ar
    27    27    28   ar
    28    28    29   ar
    29    29    30    1
    30    13     3   ar
    31    30    14    1
    32    12     7   ar
    33    29    17   ar
    34    26    21   ar
    35     5    31    1
    36     8    32    1
    37     9    33    1
    38    10    34    1
    39    11    35    1
    40    14    36    1
    41    15    37    1
    42    15    38    1
    43    16    39    1
    44    16    40    1
    45    18    41    1
    46    22    42    1
    47    23    43    1
    48    24    44    1
    49    25    45    1
    50    26    46    1
    51    27    47    1
    52    28    48    1
