@<TRIPOS>MOLECULE
*****
 96 100 0 0 0
SMALL
GASTEIGER

@<TRIPOS>ATOM
      1 C          -8.9271   -2.3887   -2.1347 C.3     1  UNL1       -0.0437
      2 C          -8.1162   -1.1795   -1.8370 C.2     1  UNL1       -0.0739
      3 C          -8.6398    0.0142   -1.6975 C.2     1  UNL1       -0.0812
      4 C          -7.9297    1.2332   -1.2316 C.3     1  UNL1       -0.0122
      5 C          -8.3052    1.4801    0.2034 C.3     1  UNL1       -0.0055
      6 C          -7.9640    0.2469    0.9553 C.ar    1  UNL1        0.0248
      7 N          -8.6086   -0.0919    2.0849 N.ar    1  UNL1       -0.3259
      8 C          -8.3257   -1.2041    2.7840 C.ar    1  UNL1        0.2489
      9 O          -8.9467   -1.5037    3.8480 O.2     1  UNL1       -0.2679
     10 C          -7.3459   -2.0954    2.3992 C.ar    1  UNL1        0.0031
     11 C          -6.6560   -1.7713    1.2268 C.ar    1  UNL1       -0.0498
     12 C          -6.9775   -0.6128    0.5325 C.ar    1  UNL1       -0.0039
     13 C          -6.1791   -0.3641   -0.7183 C.3     1  UNL1        0.0711
     14 C          -6.6051   -1.3901   -1.6960 C.3     1  UNL1       -0.0059
     15 C          -6.4399    0.9864   -1.3160 C.3     1  UNL1       -0.0083
     16 C          -5.5864    2.0974   -0.8546 C.3     1  UNL1       -0.0460
     17 C          -4.8893    1.9432    0.4484 C.3     1  UNL1       -0.0368
     18 C          -4.5211    0.5273    0.7956 C.3     1  UNL1        0.0156
     19 N          -4.7807   -0.3739   -0.3111 N.am    1  UNL1       -0.2900
     20 C          -3.8200   -1.1419   -0.9288 C.2     1  UNL1        0.2303
     21 O          -4.2398   -1.9930   -1.8573 O.2     1  UNL1       -0.2742
     22 C          -2.3745   -1.2126   -0.7567 C.3     1  UNL1        0.0757
     23 N          -1.7481   -0.2941    0.1017 N.3     1  UNL1       -0.2971
     24 C          -1.6662    1.0197   -0.4324 C.3     1  UNL1       -0.0123
     25 C          -0.5699   -0.8165    0.7106 C.3     1  UNL1       -0.0009
     26 C           0.5039   -1.0446   -0.3016 C.3     1  UNL1       -0.0402
     27 C           1.7443   -1.6237    0.3002 C.3     1  UNL1       -0.0519
     28 C           2.3361   -0.7316    1.3332 C.3     1  UNL1       -0.0530
     29 C           2.7259    0.6138    0.8089 C.3     1  UNL1       -0.0531
     30 C           3.7147    0.5237   -0.3061 C.3     1  UNL1       -0.0531
     31 C           4.9634   -0.1838    0.1135 C.3     1  UNL1       -0.0530
     32 C           5.9479   -0.2623   -1.0373 C.3     1  UNL1       -0.0519
     33 C           6.3830    1.0931   -1.5294 C.3     1  UNL1       -0.0402
     34 C           7.0664    1.8193   -0.4179 C.3     1  UNL1       -0.0011
     35 N           8.2016    1.0675    0.0472 N.3     1  UNL1       -0.3011
     36 C           8.7983    1.8176    1.1518 C.3     1  UNL1       -0.0124
     37 C           9.1586    0.8930   -0.9949 C.3     1  UNL1        0.0252
     38 C          10.3432    0.1528   -0.4415 C.ar    1  UNL1       -0.0153
     39 C          11.3992    0.8302    0.0908 C.ar    1  UNL1       -0.0545
     40 C          12.5040    0.1448    0.6061 C.ar    1  UNL1       -0.0433
     41 C          12.4418   -1.2472    0.5342 C.ar    1  UNL1        0.0276
     42 N          11.3851   -1.8914    0.0026 N.ar    1  UNL1       -0.2629
     43 C          10.3392   -1.2278   -0.4849 C.ar    1  UNL1        0.0320
     44 H          -8.9766   -2.6013   -3.2216 H       1  UNL1        0.0274
     45 H          -9.9853   -2.2674   -1.7921 H       1  UNL1        0.0274
     46 H          -8.5535   -3.2860   -1.5648 H       1  UNL1        0.0274
     47 H          -9.7038    0.1309   -1.9477 H       1  UNL1        0.0575
     48 H          -8.1531    2.0926   -1.8929 H       1  UNL1        0.0350
     49 H          -9.4177    1.6004    0.2416 H       1  UNL1        0.0333
     50 H          -7.8802    2.3922    0.6260 H       1  UNL1        0.0333
     51 H          -9.3671    0.5430    2.4320 H       1  UNL1        0.1686
     52 H          -7.1249   -2.9795    2.9602 H       1  UNL1        0.0672
     53 H          -5.8844   -2.4606    0.9137 H       1  UNL1        0.0623
     54 H          -6.4119   -2.4293   -1.4263 H       1  UNL1        0.0334
     55 H          -6.1542   -1.1898   -2.6999 H       1  UNL1        0.0334
     56 H          -6.2379    0.8675   -2.4265 H       1  UNL1        0.0331
     57 H          -4.8304    2.4235   -1.6316 H       1  UNL1        0.0269
     58 H          -6.2443    3.0141   -0.7594 H       1  UNL1        0.0269
     59 H          -5.4917    2.4319    1.2785 H       1  UNL1        0.0280
     60 H          -3.9593    2.5451    0.4264 H       1  UNL1        0.0280
     61 H          -5.3337    0.2320    1.5703 H       1  UNL1        0.0465
     62 H          -3.6113    0.3689    1.3455 H       1  UNL1        0.0465
     63 H          -2.0737   -2.2570   -0.3682 H       1  UNL1        0.0522
     64 H          -1.8555   -1.2294   -1.7848 H       1  UNL1        0.0522
     65 H          -0.7399    1.2022   -1.0555 H       1  UNL1        0.0391
     66 H          -2.4969    1.2135   -1.1196 H       1  UNL1        0.0391
     67 H          -1.7189    1.8072    0.3711 H       1  UNL1        0.0391
     68 H          -0.7761   -1.8033    1.1960 H       1  UNL1        0.0427
     69 H          -0.2479   -0.1228    1.5245 H       1  UNL1        0.0427
     70 H           0.1085   -1.8222   -1.0191 H       1  UNL1        0.0278
     71 H           0.7086   -0.1572   -0.9365 H       1  UNL1        0.0278
     72 H           1.4487   -2.5820    0.7925 H       1  UNL1        0.0266
     73 H           2.4759   -1.8824   -0.4959 H       1  UNL1        0.0266
     74 H           1.6107   -0.5935    2.1678 H       1  UNL1        0.0265
     75 H           3.2518   -1.1903    1.7774 H       1  UNL1        0.0265
     76 H           1.8446    1.2142    0.4809 H       1  UNL1        0.0265
     77 H           3.2112    1.1889    1.6354 H       1  UNL1        0.0265
     78 H           3.2920    0.0724   -1.2288 H       1  UNL1        0.0265
     79 H           4.0008    1.5751   -0.5673 H       1  UNL1        0.0265
     80 H           5.4445    0.3024    0.9599 H       1  UNL1        0.0265
     81 H           4.7348   -1.2522    0.3810 H       1  UNL1        0.0265
     82 H           6.8459   -0.8035   -0.6897 H       1  UNL1        0.0266
     83 H           5.4988   -0.8842   -1.8556 H       1  UNL1        0.0266
     84 H           7.0552    0.9694   -2.3780 H       1  UNL1        0.0278
     85 H           5.5112    1.6779   -1.9283 H       1  UNL1        0.0278
     86 H           7.3889    2.8496   -0.7574 H       1  UNL1        0.0426
     87 H           6.3927    2.0275    0.4436 H       1  UNL1        0.0426
     88 H           7.9551    2.0935    1.8465 H       1  UNL1        0.0391
     89 H           9.5694    1.2345    1.6804 H       1  UNL1        0.0391
     90 H           9.2564    2.7493    0.7796 H       1  UNL1        0.0391
     91 H           8.7796    0.2688   -1.8199 H       1  UNL1        0.0476
     92 H           9.4878    1.8665   -1.4063 H       1  UNL1        0.0476
     93 H          11.3984    1.9034    0.1226 H       1  UNL1        0.0622
     94 H          13.3576    0.6423    1.0345 H       1  UNL1        0.0633
     95 H          13.2960   -1.7765    0.9320 H       1  UNL1        0.0829
     96 H           9.5108   -1.7881   -0.9035 H       1  UNL1        0.0833
@<TRIPOS>BOND
     1     1     2    1
     2     2     3    2
     3     3     4    1
     4     4     5    1
     5     5     6    1
     6     6     7   ar
     7     7     8   ar
     8     8     9    2
     9     8    10   ar
    10    10    11   ar
    11    11    12   ar
    12    12    13    1
    13    13    14    1
    14    13    15    1
    15    15    16    1
    16    16    17    1
    17    17    18    1
    18    18    19    1
    19    19    20   am
    20    20    21    2
    21    20    22    1
    22    22    23    1
    23    23    24    1
    24    23    25    1
    25    25    26    1
    26    26    27    1
    27    27    28    1
    28    28    29    1
    29    29    30    1
    30    30    31    1
    31    31    32    1
    32    32    33    1
    33    33    34    1
    34    34    35    1
    35    35    36    1
    36    35    37    1
    37    37    38    1
    38    38    39   ar
    39    39    40   ar
    40    40    41   ar
    41    41    42   ar
    42    42    43   ar
    43    14     2    1
    44    43    38   ar
    45    15     4    1
    46    12     6   ar
    47    13    19    1
    48     1    44    1
    49     1    45    1
    50     1    46    1
    51     3    47    1
    52     4    48    1
    53     5    49    1
    54     5    50    1
    55     7    51    1
    56    10    52    1
    57    11    53    1
    58    14    54    1
    59    14    55    1
    60    15    56    1
    61    16    57    1
    62    16    58    1
    63    17    59    1
    64    17    60    1
    65    18    61    1
    66    18    62    1
    67    22    63    1
    68    22    64    1
    69    24    65    1
    70    24    66    1
    71    24    67    1
    72    25    68    1
    73    25    69    1
    74    26    70    1
    75    26    71    1
    76    27    72    1
    77    27    73    1
    78    28    74    1
    79    28    75    1
    80    29    76    1
    81    29    77    1
    82    30    78    1
    83    30    79    1
    84    31    80    1
    85    31    81    1
    86    32    82    1
    87    32    83    1
    88    33    84    1
    89    33    85    1
    90    34    86    1
    91    34    87    1
    92    36    88    1
    93    36    89    1
    94    36    90    1
    95    37    91    1
    96    37    92    1
    97    39    93    1
    98    40    94    1
    99    41    95    1
   100    43    96    1
