@<TRIPOS>MOLECULE
*****
 80 85 0 0 0
SMALL
GASTEIGER

@<TRIPOS>ATOM
      1 C          -2.9900   -2.3966    0.6290 C.3     1  UNL1       -0.0406
      2 N          -3.2696   -1.0218    0.9693 N.4     1  UNL1        0.2477
      3 C          -2.8586   -0.8720    2.3593 C.3     1  UNL1       -0.0406
      4 C          -2.5292   -0.0581    0.2097 C.3     1  UNL1       -0.0297
      5 C          -1.5778   -0.6030   -0.8015 C.3     1  UNL1       -0.0124
      6 C          -0.8292    0.5274   -1.5316 C.3     1  UNL1       -0.0481
      7 C          -0.0410    1.3677   -0.5831 C.3     1  UNL1       -0.0481
      8 C           1.0059    0.5991    0.1918 C.3     1  UNL1       -0.0124
      9 C           2.0122   -0.0481   -0.7007 C.3     1  UNL1       -0.0297
     10 N           3.0500   -0.7775   -0.0238 N.4     1  UNL1        0.2477
     11 C           2.5138   -1.7302    0.9198 C.3     1  UNL1       -0.0406
     12 C           3.7435   -1.5503   -1.0689 C.3     1  UNL1       -0.0406
     13 C           3.9957    0.0808    0.6467 C.3     1  UNL1        0.0333
     14 C           4.4231    1.2597   -0.1394 C.ar    1  UNL1        0.0126
     15 C           5.7728    1.1063   -0.4812 C.ar    1  UNL1       -0.0086
     16 C           6.5057    2.0257   -1.2389 C.ar    1  UNL1       -0.0536
     17 C           5.8982    3.1721   -1.6972 C.ar    1  UNL1       -0.0612
     18 C           4.5710    3.3754   -1.3878 C.ar    1  UNL1       -0.0613
     19 C           3.9169    2.4355   -0.6445 C.ar    1  UNL1       -0.0523
     20 C           6.3276   -0.1082    0.1056 C.ar    1  UNL1       -0.0086
     21 C           5.2966   -0.6920    0.8093 C.ar    1  UNL1        0.0126
     22 C           5.5948   -1.8505    1.4938 C.ar    1  UNL1       -0.0523
     23 C           6.8361   -2.4454    1.5120 C.ar    1  UNL1       -0.0613
     24 C           7.8565   -1.8512    0.8019 C.ar    1  UNL1       -0.0612
     25 C           7.5760   -0.6924    0.1134 C.ar    1  UNL1       -0.0536
     26 C          -4.6998   -0.8316    0.8224 C.3     1  UNL1        0.0333
     27 C          -5.1791    0.4817    1.3235 C.ar    1  UNL1        0.0126
     28 C          -5.7501    1.2256    0.2950 C.ar    1  UNL1       -0.0086
     29 C          -6.2720    2.5010    0.5205 C.ar    1  UNL1       -0.0536
     30 C          -6.2488    3.0760    1.7495 C.ar    1  UNL1       -0.0612
     31 C          -5.6976    2.3795    2.7864 C.ar    1  UNL1       -0.0613
     32 C          -5.1868    1.1211    2.5452 C.ar    1  UNL1       -0.0523
     33 C          -5.6801    0.4260   -0.9232 C.ar    1  UNL1       -0.0086
     34 C          -5.0661   -0.7938   -0.6145 C.ar    1  UNL1        0.0126
     35 C          -4.9654   -1.6231   -1.7119 C.ar    1  UNL1       -0.0523
     36 C          -5.3946   -1.3440   -2.9763 C.ar    1  UNL1       -0.0613
     37 C          -5.9860   -0.1421   -3.2259 C.ar    1  UNL1       -0.0612
     38 C          -6.1279    0.7444   -2.1931 C.ar    1  UNL1       -0.0536
     39 H          -2.4675   -2.5434   -0.3305 H       1  UNL1        0.0778
     40 H          -3.9203   -3.0305    0.6937 H       1  UNL1        0.0778
     41 H          -2.3059   -2.8963    1.3815 H       1  UNL1        0.0778
     42 H          -2.5798    0.1444    2.6227 H       1  UNL1        0.0778
     43 H          -1.9082   -1.4770    2.4575 H       1  UNL1        0.0778
     44 H          -3.5785   -1.3872    2.9933 H       1  UNL1        0.0778
     45 H          -2.0690    0.6974    0.8807 H       1  UNL1        0.0815
     46 H          -3.2816    0.5477   -0.3863 H       1  UNL1        0.0815
     47 H          -0.8366   -1.3171   -0.4378 H       1  UNL1        0.0317
     48 H          -2.1326   -1.0992   -1.6537 H       1  UNL1        0.0317
     49 H          -1.5936    1.1033   -2.0810 H       1  UNL1        0.0267
     50 H          -0.1964    0.0334   -2.2918 H       1  UNL1        0.0267
     51 H          -0.6672    1.9982    0.0655 H       1  UNL1        0.0267
     52 H           0.5515    2.0839   -1.2248 H       1  UNL1        0.0267
     53 H           1.5261    1.3008    0.8715 H       1  UNL1        0.0317
     54 H           0.4549   -0.1403    0.8244 H       1  UNL1        0.0317
     55 H           1.4124   -0.7675   -1.3649 H       1  UNL1        0.0815
     56 H           2.4271    0.6619   -1.4293 H       1  UNL1        0.0815
     57 H           1.4160   -1.9122    0.7115 H       1  UNL1        0.0778
     58 H           2.9802   -2.7112    0.7240 H       1  UNL1        0.0778
     59 H           2.6836   -1.4625    1.9629 H       1  UNL1        0.0778
     60 H           4.2018   -0.8919   -1.8155 H       1  UNL1        0.0778
     61 H           4.4238   -2.3083   -0.6384 H       1  UNL1        0.0778
     62 H           2.9337   -2.1275   -1.5696 H       1  UNL1        0.0778
     63 H           3.6486    0.3468    1.6568 H       1  UNL1        0.0958
     64 H           7.5320    1.8990   -1.4951 H       1  UNL1        0.0624
     65 H           6.4395    3.8823   -2.2752 H       1  UNL1        0.0618
     66 H           4.1047    4.2760   -1.7502 H       1  UNL1        0.0618
     67 H           2.8902    2.6920   -0.4379 H       1  UNL1        0.0623
     68 H           4.8695   -2.3839    2.0836 H       1  UNL1        0.0623
     69 H           7.0653   -3.3552    2.0506 H       1  UNL1        0.0618
     70 H           8.8489   -2.2709    0.7781 H       1  UNL1        0.0618
     71 H           8.3906   -0.2468   -0.4341 H       1  UNL1        0.0624
     72 H          -5.2542   -1.6015    1.3741 H       1  UNL1        0.0958
     73 H          -6.7141    3.0727   -0.2858 H       1  UNL1        0.0624
     74 H          -6.6565    4.0613    1.9064 H       1  UNL1        0.0618
     75 H          -5.6793    2.8353    3.7606 H       1  UNL1        0.0618
     76 H          -4.7727    0.6402    3.4206 H       1  UNL1        0.0623
     77 H          -4.5066   -2.5928   -1.5823 H       1  UNL1        0.0623
     78 H          -5.2853   -2.0406   -3.7959 H       1  UNL1        0.0618
     79 H          -6.3408    0.1220   -4.2107 H       1  UNL1        0.0618
     80 H          -6.6003    1.6925   -2.4138 H       1  UNL1        0.0624
@<TRIPOS>UNITY_ATOM_ATTR
2 1
charge 1
10 1
charge 1
@<TRIPOS>BOND
     1     1     2    1
     2     2     3    1
     3     2     4    1
     4     4     5    1
     5     5     6    1
     6     6     7    1
     7     7     8    1
     8     8     9    1
     9     9    10    1
    10    10    11    1
    11    10    12    1
    12    10    13    1
    13    13    14    1
    14    14    15   ar
    15    15    16   ar
    16    16    17   ar
    17    17    18   ar
    18    18    19   ar
    19    15    20    1
    20    20    21   ar
    21    21    22   ar
    22    22    23   ar
    23    23    24   ar
    24    24    25   ar
    25     2    26    1
    26    26    27    1
    27    27    28   ar
    28    28    29   ar
    29    29    30   ar
    30    30    31   ar
    31    31    32   ar
    32    28    33    1
    33    33    34   ar
    34    34    35   ar
    35    35    36   ar
    36    36    37   ar
    37    37    38   ar
    38    21    13    1
    39    34    26    1
    40    19    14   ar
    41    25    20   ar
    42    32    27   ar
    43    38    33   ar
    44     1    39    1
    45     1    40    1
    46     1    41    1
    47     3    42    1
    48     3    43    1
    49     3    44    1
    50     4    45    1
    51     4    46    1
    52     5    47    1
    53     5    48    1
    54     6    49    1
    55     6    50    1
    56     7    51    1
    57     7    52    1
    58     8    53    1
    59     8    54    1
    60     9    55    1
    61     9    56    1
    62    11    57    1
    63    11    58    1
    64    11    59    1
    65    12    60    1
    66    12    61    1
    67    12    62    1
    68    13    63    1
    69    16    64    1
    70    17    65    1
    71    18    66    1
    72    19    67    1
    73    22    68    1
    74    23    69    1
    75    24    70    1
    76    25    71    1
    77    26    72    1
    78    29    73    1
    79    30    74    1
    80    31    75    1
    81    32    76    1
    82    35    77    1
    83    36    78    1
    84    37    79    1
    85    38    80    1
