
     RDKit          3D

 80 85  0  0  0  0  0  0  0  0999 V2000
   -2.9900   -2.3966    0.6290 C   0  0  0  0  0  0  0  0  0  0  0  0
   -3.2696   -1.0218    0.9693 N   0  0  0  0  0  4  0  0  0  0  0  0
   -2.8586   -0.8720    2.3593 C   0  0  0  0  0  0  0  0  0  0  0  0
   -2.5292   -0.0581    0.2097 C   0  0  0  0  0  0  0  0  0  0  0  0
   -1.5778   -0.6030   -0.8015 C   0  0  0  0  0  0  0  0  0  0  0  0
   -0.8292    0.5274   -1.5316 C   0  0  0  0  0  0  0  0  0  0  0  0
   -0.0410    1.3677   -0.5831 C   0  0  0  0  0  0  0  0  0  0  0  0
    1.0059    0.5991    0.1918 C   0  0  0  0  0  0  0  0  0  0  0  0
    2.0122   -0.0481   -0.7007 C   0  0  0  0  0  0  0  0  0  0  0  0
    3.0500   -0.7775   -0.0238 N   0  0  0  0  0  4  0  0  0  0  0  0
    2.5138   -1.7302    0.9198 C   0  0  0  0  0  0  0  0  0  0  0  0
    3.7435   -1.5503   -1.0689 C   0  0  0  0  0  0  0  0  0  0  0  0
    3.9957    0.0808    0.6467 C   0  0  0  0  0  0  0  0  0  0  0  0
    4.4231    1.2597   -0.1394 C   0  0  0  0  0  0  0  0  0  0  0  0
    5.7728    1.1063   -0.4812 C   0  0  0  0  0  0  0  0  0  0  0  0
    6.5057    2.0257   -1.2389 C   0  0  0  0  0  0  0  0  0  0  0  0
    5.8982    3.1721   -1.6972 C   0  0  0  0  0  0  0  0  0  0  0  0
    4.5710    3.3754   -1.3878 C   0  0  0  0  0  0  0  0  0  0  0  0
    3.9169    2.4355   -0.6445 C   0  0  0  0  0  0  0  0  0  0  0  0
    6.3276   -0.1082    0.1056 C   0  0  0  0  0  0  0  0  0  0  0  0
    5.2966   -0.6920    0.8093 C   0  0  0  0  0  0  0  0  0  0  0  0
    5.5948   -1.8505    1.4938 C   0  0  0  0  0  0  0  0  0  0  0  0
    6.8361   -2.4454    1.5120 C   0  0  0  0  0  0  0  0  0  0  0  0
    7.8565   -1.8512    0.8019 C   0  0  0  0  0  0  0  0  0  0  0  0
    7.5760   -0.6924    0.1134 C   0  0  0  0  0  0  0  0  0  0  0  0
   -4.6998   -0.8316    0.8224 C   0  0  0  0  0  0  0  0  0  0  0  0
   -5.1791    0.4817    1.3235 C   0  0  0  0  0  0  0  0  0  0  0  0
   -5.7501    1.2256    0.2950 C   0  0  0  0  0  0  0  0  0  0  0  0
   -6.2720    2.5010    0.5205 C   0  0  0  0  0  0  0  0  0  0  0  0
   -6.2488    3.0760    1.7495 C   0  0  0  0  0  0  0  0  0  0  0  0
   -5.6976    2.3795    2.7864 C   0  0  0  0  0  0  0  0  0  0  0  0
   -5.1868    1.1211    2.5452 C   0  0  0  0  0  0  0  0  0  0  0  0
   -5.6801    0.4260   -0.9232 C   0  0  0  0  0  0  0  0  0  0  0  0
   -5.0661   -0.7938   -0.6145 C   0  0  0  0  0  0  0  0  0  0  0  0
   -4.9654   -1.6231   -1.7119 C   0  0  0  0  0  0  0  0  0  0  0  0
   -5.3946   -1.3440   -2.9763 C   0  0  0  0  0  0  0  0  0  0  0  0
   -5.9860   -0.1421   -3.2259 C   0  0  0  0  0  0  0  0  0  0  0  0
   -6.1279    0.7444   -2.1931 C   0  0  0  0  0  0  0  0  0  0  0  0
   -2.4675   -2.5434   -0.3305 H   0  0  0  0  0  0  0  0  0  0  0  0
   -3.9203   -3.0305    0.6937 H   0  0  0  0  0  0  0  0  0  0  0  0
   -2.3059   -2.8963    1.3815 H   0  0  0  0  0  0  0  0  0  0  0  0
   -2.5798    0.1444    2.6227 H   0  0  0  0  0  0  0  0  0  0  0  0
   -1.9082   -1.4770    2.4575 H   0  0  0  0  0  0  0  0  0  0  0  0
   -3.5785   -1.3872    2.9933 H   0  0  0  0  0  0  0  0  0  0  0  0
   -2.0690    0.6974    0.8807 H   0  0  0  0  0  0  0  0  0  0  0  0
   -3.2816    0.5477   -0.3863 H   0  0  0  0  0  0  0  0  0  0  0  0
   -0.8366   -1.3171   -0.4378 H   0  0  0  0  0  0  0  0  0  0  0  0
   -2.1326   -1.0992   -1.6537 H   0  0  0  0  0  0  0  0  0  0  0  0
   -1.5936    1.1033   -2.0810 H   0  0  0  0  0  0  0  0  0  0  0  0
   -0.1964    0.0334   -2.2918 H   0  0  0  0  0  0  0  0  0  0  0  0
   -0.6672    1.9982    0.0655 H   0  0  0  0  0  0  0  0  0  0  0  0
    0.5515    2.0839   -1.2248 H   0  0  0  0  0  0  0  0  0  0  0  0
    1.5261    1.3008    0.8715 H   0  0  0  0  0  0  0  0  0  0  0  0
    0.4549   -0.1403    0.8244 H   0  0  0  0  0  0  0  0  0  0  0  0
    1.4124   -0.7675   -1.3649 H   0  0  0  0  0  0  0  0  0  0  0  0
    2.4271    0.6619   -1.4293 H   0  0  0  0  0  0  0  0  0  0  0  0
    1.4160   -1.9122    0.7115 H   0  0  0  0  0  0  0  0  0  0  0  0
    2.9802   -2.7112    0.7240 H   0  0  0  0  0  0  0  0  0  0  0  0
    2.6836   -1.4625    1.9629 H   0  0  0  0  0  0  0  0  0  0  0  0
    4.2018   -0.8919   -1.8155 H   0  0  0  0  0  0  0  0  0  0  0  0
    4.4238   -2.3083   -0.6384 H   0  0  0  0  0  0  0  0  0  0  0  0
    2.9337   -2.1275   -1.5696 H   0  0  0  0  0  0  0  0  0  0  0  0
    3.6486    0.3468    1.6568 H   0  0  0  0  0  0  0  0  0  0  0  0
    7.5320    1.8990   -1.4951 H   0  0  0  0  0  0  0  0  0  0  0  0
    6.4395    3.8823   -2.2752 H   0  0  0  0  0  0  0  0  0  0  0  0
    4.1047    4.2760   -1.7502 H   0  0  0  0  0  0  0  0  0  0  0  0
    2.8902    2.6920   -0.4379 H   0  0  0  0  0  0  0  0  0  0  0  0
    4.8695   -2.3839    2.0836 H   0  0  0  0  0  0  0  0  0  0  0  0
    7.0653   -3.3552    2.0506 H   0  0  0  0  0  0  0  0  0  0  0  0
    8.8489   -2.2709    0.7781 H   0  0  0  0  0  0  0  0  0  0  0  0
    8.3906   -0.2468   -0.4341 H   0  0  0  0  0  0  0  0  0  0  0  0
   -5.2542   -1.6015    1.3741 H   0  0  0  0  0  0  0  0  0  0  0  0
   -6.7141    3.0727   -0.2858 H   0  0  0  0  0  0  0  0  0  0  0  0
   -6.6565    4.0613    1.9064 H   0  0  0  0  0  0  0  0  0  0  0  0
   -5.6793    2.8353    3.7606 H   0  0  0  0  0  0  0  0  0  0  0  0
   -4.7727    0.6402    3.4206 H   0  0  0  0  0  0  0  0  0  0  0  0
   -4.5066   -2.5928   -1.5823 H   0  0  0  0  0  0  0  0  0  0  0  0
   -5.2853   -2.0406   -3.7959 H   0  0  0  0  0  0  0  0  0  0  0  0
   -6.3408    0.1220   -4.2107 H   0  0  0  0  0  0  0  0  0  0  0  0
   -6.6003    1.6925   -2.4138 H   0  0  0  0  0  0  0  0  0  0  0  0
  1  2  1  0
  2  3  1  0
  2  4  1  0
  4  5  1  0
  5  6  1  0
  6  7  1  0
  7  8  1  0
  8  9  1  0
  9 10  1  0
 10 11  1  0
 10 12  1  0
 10 13  1  0
 13 14  1  0
 14 15  1  0
 15 16  2  0
 16 17  1  0
 17 18  2  0
 18 19  1  0
 15 20  1  0
 20 21  2  0
 21 22  1  0
 22 23  2  0
 23 24  1  0
 24 25  2  0
  2 26  1  0
 26 27  1  0
 27 28  1  0
 28 29  2  0
 29 30  1  0
 30 31  2  0
 31 32  1  0
 28 33  1  0
 33 34  2  0
 34 35  1  0
 35 36  2  0
 36 37  1  0
 37 38  2  0
 21 13  1  0
 34 26  1  0
 19 14  2  0
 25 20  1  0
 32 27  2  0
 38 33  1  0
  1 39  1  0
  1 40  1  0
  1 41  1  0
  3 42  1  0
  3 43  1  0
  3 44  1  0
  4 45  1  0
  4 46  1  0
  5 47  1  0
  5 48  1  0
  6 49  1  0
  6 50  1  0
  7 51  1  0
  7 52  1  0
  8 53  1  0
  8 54  1  0
  9 55  1  0
  9 56  1  0
 11 57  1  0
 11 58  1  0
 11 59  1  0
 12 60  1  0
 12 61  1  0
 12 62  1  0
 13 63  1  0
 16 64  1  0
 17 65  1  0
 18 66  1  0
 19 67  1  0
 22 68  1  0
 23 69  1  0
 24 70  1  0
 25 71  1  0
 26 72  1  0
 29 73  1  0
 30 74  1  0
 31 75  1  0
 32 76  1  0
 35 77  1  0
 36 78  1  0
 37 79  1  0
 38 80  1  0
M  CHG  2   2   1  10   1
M  END
$$$$
