
     RDKit          3D

 63 69  0  0  0  0  0  0  0  0999 V2000
    2.0447   -0.0705   -2.8855 N   0  0  0  0  0  0  0  0  0  0  0  0
    0.6517    0.2045   -2.8546 C   0  0  0  0  0  0  0  0  0  0  0  0
    0.1789    0.8707   -3.9480 N   0  0  0  0  0  0  0  0  0  0  0  0
   -1.1266    1.1378   -4.0020 C   0  0  0  0  0  0  0  0  0  0  0  0
   -1.9511    0.7397   -2.9680 C   0  0  0  0  0  0  0  0  0  0  0  0
   -1.4892    0.0831   -1.8882 N   0  0  0  0  0  0  0  0  0  0  0  0
   -0.1702   -0.1850   -1.8350 C   0  0  0  0  0  0  0  0  0  0  0  0
    0.0283   -0.8559   -0.6577 C   0  0  0  0  0  0  0  0  0  0  0  0
    1.3079   -1.3481   -0.1667 C   0  0  0  0  0  0  0  0  0  0  0  0
    1.4555   -2.6798    0.2179 C   0  0  0  0  0  0  0  0  0  0  0  0
    2.6620   -3.1268    0.7149 C   0  0  0  0  0  0  0  0  0  0  0  0
    3.7700   -2.3039    0.8580 C   0  0  0  0  0  0  0  0  0  0  0  0
    4.9712   -2.7501    1.3539 C   0  0  0  0  0  0  0  0  0  0  0  0
    6.0070   -1.8285    1.4491 C   0  0  0  0  0  0  0  0  0  0  0  0
    5.8629   -0.5219    1.0711 C   0  0  0  0  0  0  0  0  0  0  0  0
    6.9684    0.4479    1.1697 C   0  0  0  0  0  0  0  0  0  0  0  0
    6.7487    1.7663    0.7556 C   0  0  0  0  0  0  0  0  0  0  0  0
    7.7453    2.7070    0.8273 C   0  0  0  0  0  0  0  0  0  0  0  0
    8.9972    2.3723    1.3144 C   0  0  0  0  0  0  0  0  0  0  0  0
    9.2037    1.0816    1.7179 C   0  0  0  0  0  0  0  0  0  0  0  0
    8.2139    0.1436    1.6467 C   0  0  0  0  0  0  0  0  0  0  0  0
    4.6638   -0.1556    0.5968 N   0  0  0  0  0  0  0  0  0  0  0  0
    3.6152   -1.0041    0.4787 C   0  0  0  0  0  0  0  0  0  0  0  0
    2.3982   -0.5236   -0.0292 C   0  0  0  0  0  0  0  0  0  0  0  0
   -1.1820   -0.9736   -0.0412 N   0  0  0  0  0  0  0  0  0  0  0  0
   -2.1223   -0.3943   -0.7971 C   0  0  0  0  0  0  0  0  0  0  0  0
   -3.5612   -0.2395   -0.5623 C   0  0  1  0  0  0  0  0  0  0  0  0
   -4.4011   -1.4787   -0.6031 C   0  0  0  0  0  0  0  0  0  0  0  0
   -5.2269   -0.8943    0.5613 C   0  0  2  0  0  0  0  0  0  0  0  0
   -6.4013   -0.1824   -0.0064 C   0  0  0  0  0  0  0  0  0  0  0  0
   -7.3271    0.4008    0.8747 N   0  0  0  0  0  0  0  0  0  0  0  0
   -7.0683    1.5069    1.6966 C   0  0  0  0  0  0  0  0  0  0  0  0
   -7.7168    2.4856    0.7278 C   0  0  0  0  0  0  0  0  0  0  0  0
   -8.2802    1.2271    0.1010 C   0  0  0  0  0  0  0  0  0  0  0  0
   -3.9989   -0.0720    0.8819 C   0  0  0  0  0  0  0  0  0  0  0  0
    2.7901    0.6434   -2.9219 H   0  0  0  0  0  0  0  0  0  0  0  0
    2.3294   -1.0773   -2.8713 H   0  0  0  0  0  0  0  0  0  0  0  0
   -1.5451    1.6627   -4.8455 H   0  0  0  0  0  0  0  0  0  0  0  0
   -3.0102    0.9776   -3.0520 H   0  0  0  0  0  0  0  0  0  0  0  0
    0.5902   -3.3272    0.1038 H   0  0  0  0  0  0  0  0  0  0  0  0
    2.7380   -4.1621    1.0004 H   0  0  0  0  0  0  0  0  0  0  0  0
    5.0894   -3.7924    1.6554 H   0  0  0  0  0  0  0  0  0  0  0  0
    6.9360   -2.2131    1.8431 H   0  0  0  0  0  0  0  0  0  0  0  0
    5.7672    2.0326    0.3728 H   0  0  0  0  0  0  0  0  0  0  0  0
    7.6120    3.7368    0.5149 H   0  0  0  0  0  0  0  0  0  0  0  0
    9.8158    3.0810    1.3895 H   0  0  0  0  0  0  0  0  0  0  0  0
   10.1940    0.8085    2.1069 H   0  0  0  0  0  0  0  0  0  0  0  0
    8.4142   -0.8828    1.9824 H   0  0  0  0  0  0  0  0  0  0  0  0
    2.3468    0.5230   -0.2873 H   0  0  0  0  0  0  0  0  0  0  0  0
   -4.0337    0.5656   -1.1917 H   0  0  0  0  0  0  0  0  0  0  0  0
   -3.8942   -2.4221   -0.3570 H   0  0  0  0  0  0  0  0  0  0  0  0
   -4.9618   -1.5517   -1.5609 H   0  0  0  0  0  0  0  0  0  0  0  0
   -5.4430   -1.7209    1.2699 H   0  0  0  0  0  0  0  0  0  0  0  0
   -6.9683   -0.9595   -0.6160 H   0  0  0  0  0  0  0  0  0  0  0  0
   -6.0105    0.5235   -0.7819 H   0  0  0  0  0  0  0  0  0  0  0  0
   -6.0762    1.7731    2.0345 H   0  0  0  0  0  0  0  0  0  0  0  0
   -7.7475    1.4930    2.6168 H   0  0  0  0  0  0  0  0  0  0  0  0
   -7.0174    3.0658    0.1260 H   0  0  0  0  0  0  0  0  0  0  0  0
   -8.5151    3.1127    1.1235 H   0  0  0  0  0  0  0  0  0  0  0  0
   -8.1090    1.2441   -0.9752 H   0  0  0  0  0  0  0  0  0  0  0  0
   -9.3016    0.9688    0.3788 H   0  0  0  0  0  0  0  0  0  0  0  0
   -4.1252    0.9734    1.1467 H   0  0  0  0  0  0  0  0  0  0  0  0
   -3.3356   -0.6627    1.5681 H   0  0  0  0  0  0  0  0  0  0  0  0
  1  2  1  0
  2  3  2  0
  3  4  1  0
  4  5  2  0
  5  6  1  0
  6  7  1  0
  7  8  2  0
  8  9  1  0
  9 10  2  0
 10 11  1  0
 11 12  2  0
 12 13  1  0
 13 14  2  0
 14 15  1  0
 15 16  1  0
 16 17  2  0
 17 18  1  0
 18 19  2  0
 19 20  1  0
 20 21  2  0
 15 22  2  0
 22 23  1  0
 23 24  2  0
  8 25  1  0
 25 26  2  0
 26 27  1  0
 27 28  1  0
 28 29  1  0
 29 30  1  0
 30 31  1  0
 31 32  1  0
 32 33  1  0
 33 34  1  0
 29 35  1  0
  7  2  1  0
 24  9  1  0
 35 27  1  0
 26  6  1  0
 34 31  1  0
 23 12  1  0
 21 16  1  0
  1 36  1  0
  1 37  1  0
  4 38  1  0
  5 39  1  0
 10 40  1  0
 11 41  1  0
 13 42  1  0
 14 43  1  0
 17 44  1  0
 18 45  1  0
 19 46  1  0
 20 47  1  0
 21 48  1  0
 24 49  1  0
 27 50  1  6
 28 51  1  0
 28 52  1  0
 29 53  1  1
 30 54  1  0
 30 55  1  0
 32 56  1  0
 32 57  1  0
 33 58  1  0
 33 59  1  0
 34 60  1  0
 34 61  1  0
 35 62  1  0
 35 63  1  0
M  END
$$$$
