@<TRIPOS>MOLECULE
*****
 63 69 0 0 0
SMALL
GASTEIGER

@<TRIPOS>ATOM
      1 N           2.0447   -0.0705   -2.8855 N.pl3   1  UNL1       -0.3414
      2 C           0.6517    0.2045   -2.8546 C.ar    1  UNL1        0.1424
      3 N           0.1789    0.8707   -3.9480 N.ar    1  UNL1       -0.2371
      4 C          -1.1266    1.1378   -4.0020 C.ar    1  UNL1        0.0463
      5 C          -1.9511    0.7397   -2.9680 C.ar    1  UNL1        0.0297
      6 N          -1.4892    0.0831   -1.8882 N.ar    1  UNL1       -0.2982
      7 C          -0.1702   -0.1850   -1.8350 C.ar    1  UNL1        0.1135
      8 C           0.0283   -0.8559   -0.6577 C.ar    1  UNL1        0.1002
      9 C           1.3079   -1.3481   -0.1667 C.ar    1  UNL1        0.0046
     10 C           1.4555   -2.6798    0.2179 C.ar    1  UNL1       -0.0518
     11 C           2.6620   -3.1268    0.7149 C.ar    1  UNL1       -0.0519
     12 C           3.7700   -2.3039    0.8580 C.ar    1  UNL1        0.0005
     13 C           4.9712   -2.7501    1.3539 C.ar    1  UNL1       -0.0505
     14 C           6.0070   -1.8285    1.4491 C.ar    1  UNL1       -0.0351
     15 C           5.8629   -0.5219    1.0711 C.ar    1  UNL1        0.0717
     16 C           6.9684    0.4479    1.1697 C.ar    1  UNL1        0.0004
     17 C           6.7487    1.7663    0.7556 C.ar    1  UNL1       -0.0526
     18 C           7.7453    2.7070    0.8273 C.ar    1  UNL1       -0.0611
     19 C           8.9972    2.3723    1.3144 C.ar    1  UNL1       -0.0617
     20 C           9.2037    1.0816    1.7179 C.ar    1  UNL1       -0.0611
     21 C           8.2139    0.1436    1.6467 C.ar    1  UNL1       -0.0526
     22 N           4.6638   -0.1556    0.5968 N.ar    1  UNL1       -0.2467
     23 C           3.6152   -1.0041    0.4787 C.ar    1  UNL1        0.0723
     24 C           2.3982   -0.5236   -0.0292 C.ar    1  UNL1       -0.0265
     25 N          -1.1820   -0.9736   -0.0412 N.ar    1  UNL1       -0.2309
     26 C          -2.1223   -0.3943   -0.7971 C.ar    1  UNL1        0.1181
     27 C          -3.5612   -0.2395   -0.5623 C.3     1  UNL1        0.0182
     28 C          -4.4011   -1.4787   -0.6031 C.3     1  UNL1       -0.0393
     29 C          -5.2269   -0.8943    0.5613 C.3     1  UNL1       -0.0270
     30 C          -6.4013   -0.1824   -0.0064 C.3     1  UNL1        0.0018
     31 N          -7.3271    0.4008    0.8747 N.3     1  UNL1       -0.3020
     32 C          -7.0683    1.5069    1.6966 C.3     1  UNL1        0.0001
     33 C          -7.7168    2.4856    0.7278 C.3     1  UNL1       -0.0274
     34 C          -8.2802    1.2271    0.1010 C.3     1  UNL1        0.0001
     35 C          -3.9989   -0.0720    0.8819 C.3     1  UNL1       -0.0393
     36 H           2.7901    0.6434   -2.9219 H       1  UNL1        0.1438
     37 H           2.3294   -1.0773   -2.8713 H       1  UNL1        0.1438
     38 H          -1.5451    1.6627   -4.8455 H       1  UNL1        0.0845
     39 H          -3.0102    0.9776   -3.0520 H       1  UNL1        0.0829
     40 H           0.5902   -3.3272    0.1038 H       1  UNL1        0.0624
     41 H           2.7380   -4.1621    1.0004 H       1  UNL1        0.0624
     42 H           5.0894   -3.7924    1.6554 H       1  UNL1        0.0625
     43 H           6.9360   -2.2131    1.8431 H       1  UNL1        0.0639
     44 H           5.7672    2.0326    0.3728 H       1  UNL1        0.0624
     45 H           7.6120    3.7368    0.5149 H       1  UNL1        0.0618
     46 H           9.8158    3.0810    1.3895 H       1  UNL1        0.0618
     47 H          10.1940    0.8085    2.1069 H       1  UNL1        0.0618
     48 H           8.4142   -0.8828    1.9824 H       1  UNL1        0.0624
     49 H           2.3468    0.5230   -0.2873 H       1  UNL1        0.0645
     50 H          -4.0337    0.5656   -1.1917 H       1  UNL1        0.0379
     51 H          -3.8942   -2.4221   -0.3570 H       1  UNL1        0.0275
     52 H          -4.9618   -1.5517   -1.5609 H       1  UNL1        0.0275
     53 H          -5.4430   -1.7209    1.2699 H       1  UNL1        0.0313
     54 H          -6.9683   -0.9595   -0.6160 H       1  UNL1        0.0429
     55 H          -6.0105    0.5235   -0.7819 H       1  UNL1        0.0429
     56 H          -6.0762    1.7731    2.0345 H       1  UNL1        0.0427
     57 H          -7.7475    1.4930    2.6168 H       1  UNL1        0.0427
     58 H          -7.0174    3.0658    0.1260 H       1  UNL1        0.0290
     59 H          -8.5151    3.1127    1.1235 H       1  UNL1        0.0290
     60 H          -8.1090    1.2441   -0.9752 H       1  UNL1        0.0427
     61 H          -9.3016    0.9688    0.3788 H       1  UNL1        0.0427
     62 H          -4.1252    0.9734    1.1467 H       1  UNL1        0.0275
     63 H          -3.3356   -0.6627    1.5681 H       1  UNL1        0.0275
@<TRIPOS>BOND
     1     1     2    1
     2     2     3   ar
     3     3     4   ar
     4     4     5   ar
     5     5     6   ar
     6     6     7   ar
     7     7     8   ar
     8     8     9    1
     9     9    10   ar
    10    10    11   ar
    11    11    12   ar
    12    12    13   ar
    13    13    14   ar
    14    14    15   ar
    15    15    16    1
    16    16    17   ar
    17    17    18   ar
    18    18    19   ar
    19    19    20   ar
    20    20    21   ar
    21    15    22   ar
    22    22    23   ar
    23    23    24   ar
    24     8    25   ar
    25    25    26   ar
    26    26    27    1
    27    27    28    1
    28    28    29    1
    29    29    30    1
    30    30    31    1
    31    31    32    1
    32    32    33    1
    33    33    34    1
    34    29    35    1
    35     7     2   ar
    36    24     9   ar
    37    35    27    1
    38    26     6   ar
    39    34    31    1
    40    23    12   ar
    41    21    16   ar
    42     1    36    1
    43     1    37    1
    44     4    38    1
    45     5    39    1
    46    10    40    1
    47    11    41    1
    48    13    42    1
    49    14    43    1
    50    17    44    1
    51    18    45    1
    52    19    46    1
    53    20    47    1
    54    21    48    1
    55    24    49    1
    56    27    50    1
    57    28    51    1
    58    28    52    1
    59    29    53    1
    60    30    54    1
    61    30    55    1
    62    32    56    1
    63    32    57    1
    64    33    58    1
    65    33    59    1
    66    34    60    1
    67    34    61    1
    68    35    62    1
    69    35    63    1
