@<TRIPOS>MOLECULE
*****
 47 50 0 0 0
SMALL
GASTEIGER

@<TRIPOS>ATOM
      1 C           4.5313   -2.2537    1.7651 C.3     1  UNL1        0.0309
      2 N           3.9493   -1.1619    0.9766 N.ar    1  UNL1       -0.2660
      3 N           2.6643   -0.9079    0.7968 N.ar    1  UNL1       -0.1656
      4 C           2.5194    0.1826    0.0078 C.ar    1  UNL1        0.1547
      5 C           1.2731    0.8281   -0.4555 C.2     1  UNL1        0.2650
      6 O           1.3394    1.8618   -1.2040 O.2     1  UNL1       -0.2684
      7 N           0.0211    0.2908   -0.0625 N.am    1  UNL1       -0.3071
      8 C          -1.2275    0.9247   -0.5175 C.3     1  UNL1        0.0263
      9 C          -1.9614    1.4683    0.6505 C.3     1  UNL1       -0.0188
     10 C          -3.2764    0.7099    0.8868 C.3     1  UNL1        0.0121
     11 C          -3.0549   -0.6586    1.3811 C.3     1  UNL1       -0.0372
     12 C          -3.3725   -1.7918    0.4717 C.3     1  UNL1       -0.0502
     13 C          -3.9524   -1.4196   -0.8606 C.3     1  UNL1       -0.0372
     14 C          -3.4284   -0.0471   -1.3005 C.3     1  UNL1        0.0121
     15 C          -1.9517   -0.0469   -1.3807 C.3     1  UNL1       -0.0188
     16 N          -3.9870    0.8672   -0.3419 N.3     1  UNL1       -0.2993
     17 C          -5.3886    0.6777   -0.1854 C.3     1  UNL1       -0.0122
     18 C           3.7937    0.6102   -0.3058 C.ar    1  UNL1        0.0321
     19 C           4.6754   -0.2600    0.3213 C.ar    1  UNL1        0.0693
     20 C           6.0505   -0.0557    0.1690 C.ar    1  UNL1       -0.0360
     21 C           6.4991    0.9940   -0.5923 C.ar    1  UNL1       -0.0597
     22 C           5.6435    1.8746   -1.2270 C.ar    1  UNL1       -0.0610
     23 C           4.2810    1.6607   -1.0679 C.ar    1  UNL1       -0.0503
     24 H           3.7517   -2.7742    2.3473 H       1  UNL1        0.0473
     25 H           5.3121   -1.8296    2.4353 H       1  UNL1        0.0473
     26 H           5.0136   -2.9871    1.0888 H       1  UNL1        0.0473
     27 H           0.0524   -0.5674    0.5586 H       1  UNL1        0.1493
     28 H          -0.8680    1.7752   -1.1350 H       1  UNL1        0.0499
     29 H          -1.3898    1.4854    1.5901 H       1  UNL1        0.0298
     30 H          -2.2944    2.5063    0.4422 H       1  UNL1        0.0298
     31 H          -3.8116    1.3517    1.6456 H       1  UNL1        0.0463
     32 H          -2.0057   -0.7412    1.7801 H       1  UNL1        0.0280
     33 H          -3.6767   -0.7966    2.3153 H       1  UNL1        0.0280
     34 H          -4.0690   -2.5278    0.9259 H       1  UNL1        0.0266
     35 H          -2.4393   -2.3711    0.2780 H       1  UNL1        0.0266
     36 H          -5.0441   -1.4066   -0.8654 H       1  UNL1        0.0280
     37 H          -3.6279   -2.1155   -1.6816 H       1  UNL1        0.0280
     38 H          -3.9239    0.1498   -2.2749 H       1  UNL1        0.0463
     39 H          -1.5800   -1.0768   -1.1925 H       1  UNL1        0.0298
     40 H          -1.6674    0.1294   -2.4566 H       1  UNL1        0.0298
     41 H          -5.6251   -0.0550    0.6266 H       1  UNL1        0.0391
     42 H          -5.8102    1.6609    0.1740 H       1  UNL1        0.0391
     43 H          -5.9319    0.4157   -1.1135 H       1  UNL1        0.0391
     44 H           6.7544   -0.7282    0.6537 H       1  UNL1        0.0639
     45 H           7.5624    1.1334   -0.6966 H       1  UNL1        0.0618
     46 H           6.0657    2.6876   -1.8169 H       1  UNL1        0.0618
     47 H           3.6124    2.3344   -1.5534 H       1  UNL1        0.0625
@<TRIPOS>BOND
     1     1     2    1
     2     2     3   ar
     3     3     4   ar
     4     4     5    1
     5     5     6    2
     6     5     7   am
     7     7     8    1
     8     8     9    1
     9     9    10    1
    10    10    11    1
    11    11    12    1
    12    12    13    1
    13    13    14    1
    14    14    15    1
    15    14    16    1
    16    16    17    1
    17     4    18   ar
    18    18    19   ar
    19    19    20   ar
    20    20    21   ar
    21    21    22   ar
    22    22    23   ar
    23    19     2   ar
    24    15     8    1
    25    23    18   ar
    26    16    10    1
    27     1    24    1
    28     1    25    1
    29     1    26    1
    30     7    27    1
    31     8    28    1
    32     9    29    1
    33     9    30    1
    34    10    31    1
    35    11    32    1
    36    11    33    1
    37    12    34    1
    38    12    35    1
    39    13    36    1
    40    13    37    1
    41    14    38    1
    42    15    39    1
    43    15    40    1
    44    17    41    1
    45    17    42    1
    46    17    43    1
    47    20    44    1
    48    21    45    1
    49    22    46    1
    50    23    47    1
