@<TRIPOS>MOLECULE
*****
 40 42 0 0 0
SMALL
GASTEIGER

@<TRIPOS>ATOM
      1 C          -0.9763    3.3475    2.2040 C.3     1  UNL1        0.0817
      2 O          -1.1152    2.5417    1.0529 O.3     1  UNL1       -0.4677
      3 C          -0.2622    1.4354    0.7997 C.2     1  UNL1        0.3120
      4 O           0.5921    1.2867    1.7067 O.2     1  UNL1       -0.2505
      5 C          -0.4368    0.6281   -0.3998 C.3     1  UNL1        0.0787
      6 C          -1.8227   -0.0479   -0.4372 C.3     1  UNL1        0.0239
      7 C          -2.0793   -0.8358    0.8063 C.3     1  UNL1       -0.0351
      8 C          -2.0770   -2.2734    0.3282 C.3     1  UNL1       -0.0359
      9 C          -1.1592   -2.1547   -0.8693 C.3     1  UNL1        0.0110
     10 C           0.2275   -1.7970   -0.3782 C.3     1  UNL1       -0.0297
     11 C           0.5945   -0.3808   -0.7273 C.3     1  UNL1       -0.0001
     12 C           1.9124    0.0488   -0.3030 C.ar    1  UNL1       -0.0434
     13 C           2.4960   -0.3994    0.8684 C.ar    1  UNL1       -0.0583
     14 C           3.7490    0.0677    1.1950 C.ar    1  UNL1       -0.0615
     15 C           4.4296    0.9623    0.3911 C.ar    1  UNL1       -0.0617
     16 C           3.8619    1.4172   -0.7776 C.ar    1  UNL1       -0.0615
     17 C           2.6113    0.9567   -1.1122 C.ar    1  UNL1       -0.0583
     18 N          -1.6962   -0.9919   -1.5301 N.3     1  UNL1       -0.2986
     19 C          -2.9089   -1.2195   -2.2411 C.3     1  UNL1       -0.0122
     20 H          -0.2262    4.1588    2.0630 H       1  UNL1        0.0661
     21 H          -1.9850    3.8227    2.3650 H       1  UNL1        0.0661
     22 H          -0.7356    2.7115    3.0637 H       1  UNL1        0.0661
     23 H          -0.5372    1.3794   -1.2496 H       1  UNL1        0.0435
     24 H          -2.6157    0.6972   -0.6031 H       1  UNL1        0.0471
     25 H          -1.2293   -0.7696    1.5414 H       1  UNL1        0.0281
     26 H          -3.0334   -0.5640    1.3055 H       1  UNL1        0.0281
     27 H          -1.5927   -2.9523    1.0510 H       1  UNL1        0.0281
     28 H          -3.0752   -2.6417    0.0742 H       1  UNL1        0.0281
     29 H          -1.1695   -3.0653   -1.4805 H       1  UNL1        0.0463
     30 H           0.2973   -2.0541    0.6755 H       1  UNL1        0.0286
     31 H           0.9317   -2.4602   -0.9263 H       1  UNL1        0.0286
     32 H           0.6476   -0.3948   -1.8746 H       1  UNL1        0.0358
     33 H           1.9142   -1.0953    1.4462 H       1  UNL1        0.0620
     34 H           4.1712   -0.3127    2.1287 H       1  UNL1        0.0618
     35 H           5.4196    1.2844    0.7212 H       1  UNL1        0.0618
     36 H           4.4115    2.1217   -1.3994 H       1  UNL1        0.0618
     37 H           2.1456    1.3111   -2.0421 H       1  UNL1        0.0620
     38 H          -3.5011   -2.0731   -1.9070 H       1  UNL1        0.0391
     39 H          -2.6563   -1.3948   -3.3131 H       1  UNL1        0.0391
     40 H          -3.5219   -0.3005   -2.2162 H       1  UNL1        0.0391
@<TRIPOS>BOND
     1     1     2    1
     2     2     3    1
     3     3     4    2
     4     3     5    1
     5     5     6    1
     6     6     7    1
     7     7     8    1
     8     8     9    1
     9     9    10    1
    10    10    11    1
    11    11    12    1
    12    12    13   ar
    13    13    14   ar
    14    14    15   ar
    15    15    16   ar
    16    16    17   ar
    17     9    18    1
    18    18    19    1
    19    11     5    1
    20    17    12   ar
    21    18     6    1
    22     1    20    1
    23     1    21    1
    24     1    22    1
    25     5    23    1
    26     6    24    1
    27     7    25    1
    28     7    26    1
    29     8    27    1
    30     8    28    1
    31     9    29    1
    32    10    30    1
    33    10    31    1
    34    11    32    1
    35    13    33    1
    36    14    34    1
    37    15    35    1
    38    16    36    1
    39    17    37    1
    40    19    38    1
    41    19    39    1
    42    19    40    1
