
     RDKit          3D

 52 56  0  0  0  0  0  0  0  0999 V2000
   -1.9930    0.7389   -1.6699 N   0  0  0  0  0  0  0  0  0  0  0  0
   -2.8074    1.3666   -0.6694 C   0  0  1  0  0  0  0  0  0  0  0  0
   -4.2398    1.2892   -1.1718 C   0  0  0  0  0  0  0  0  0  0  0  0
   -5.2547    1.5908   -0.0964 C   0  0  0  0  0  0  0  0  0  0  0  0
   -5.0413    0.6698    1.1139 C   0  0  0  0  0  0  0  0  0  0  0  0
   -3.6884    0.9695    1.6691 C   0  0  0  0  0  0  0  0  0  0  0  0
   -2.6342    0.6568    0.6414 C   0  0  1  0  0  0  0  0  0  0  0  0
   -2.5142   -0.7622    0.4202 N   0  0  0  0  0  0  0  0  0  0  0  0
   -1.2779   -1.2996   -0.0438 C   0  0  0  0  0  0  0  0  0  0  0  0
   -1.1892   -2.6549   -0.2939 C   0  0  0  0  0  0  0  0  0  0  0  0
    0.0225   -3.1718   -0.6982 C   0  0  0  0  0  0  0  0  0  0  0  0
    0.1250   -4.4923   -0.9514 N   0  0  0  0  0  0  0  0  0  0  0  0
    1.3109   -4.9708   -1.3482 C   0  0  0  0  0  0  0  0  0  0  0  0
    2.3612   -4.1403   -1.4850 N   0  0  0  0  0  0  0  0  0  0  0  0
    2.3103   -2.8171   -1.2453 C   0  0  0  0  0  0  0  0  0  0  0  0
    3.3006   -2.0590   -1.3789 O   0  0  0  0  0  0  0  0  0  0  0  0
    1.0932   -2.3046   -0.8342 C   0  0  0  0  0  0  0  0  0  0  0  0
    0.9987   -0.9609   -0.5851 C   0  0  0  0  0  0  0  0  0  0  0  0
    2.1149   -0.1012   -0.7135 N   0  0  0  0  0  0  0  0  0  0  0  0
    2.7679    0.4973    0.3955 C   0  0  0  0  0  0  0  0  0  0  0  0
    2.3510    0.2981    1.6975 C   0  0  0  0  0  0  0  0  0  0  0  0
    3.0128    0.9197    2.7352 C   0  0  0  0  0  0  0  0  0  0  0  0
    4.0986    1.7495    2.5061 C   0  0  0  0  0  0  0  0  0  0  0  0
    4.5169    1.9510    1.2162 C   0  0  0  0  0  0  0  0  0  0  0  0
    5.5573    2.7171    0.7232 C   0  0  0  0  0  0  0  0  0  0  0  0
    5.5153    2.5493   -0.6384 C   0  0  0  0  0  0  0  0  0  0  0  0
    4.4934    1.7183   -0.9408 N   0  0  0  0  0  0  0  0  0  0  0  0
    3.8477    1.3228    0.1750 C   0  0  0  0  0  0  0  0  0  0  0  0
   -0.2024   -0.5070   -0.1939 N   0  0  0  0  0  0  0  0  0  0  0  0
   -1.3554    1.3621   -2.1874 H   0  0  0  0  0  0  0  0  0  0  0  0
   -2.5097    0.0778   -2.2930 H   0  0  0  0  0  0  0  0  0  0  0  0
   -2.4692    2.4140   -0.5629 H   0  0  0  0  0  0  0  0  0  0  0  0
   -4.4346    0.2650   -1.5448 H   0  0  0  0  0  0  0  0  0  0  0  0
   -4.3642    2.0171   -1.9875 H   0  0  0  0  0  0  0  0  0  0  0  0
   -5.1889    2.6256    0.2774 H   0  0  0  0  0  0  0  0  0  0  0  0
   -6.2560    1.3275   -0.5150 H   0  0  0  0  0  0  0  0  0  0  0  0
   -5.8633    0.8952    1.8411 H   0  0  0  0  0  0  0  0  0  0  0  0
   -5.0614   -0.4068    0.8083 H   0  0  0  0  0  0  0  0  0  0  0  0
   -3.4399    0.3509    2.5597 H   0  0  0  0  0  0  0  0  0  0  0  0
   -3.6248    2.0577    1.9225 H   0  0  0  0  0  0  0  0  0  0  0  0
   -1.6361    1.0573    1.0476 H   0  0  0  0  0  0  0  0  0  0  0  0
   -3.3120   -1.4026    0.5909 H   0  0  0  0  0  0  0  0  0  0  0  0
   -2.0697   -3.2891   -0.1678 H   0  0  0  0  0  0  0  0  0  0  0  0
    1.4615   -6.0390   -1.5711 H   0  0  0  0  0  0  0  0  0  0  0  0
    3.3060   -4.4971   -1.7961 H   0  0  0  0  0  0  0  0  0  0  0  0
    2.4679    0.0986   -1.6719 H   0  0  0  0  0  0  0  0  0  0  0  0
    1.4980   -0.3574    1.8345 H   0  0  0  0  0  0  0  0  0  0  0  0
    2.6841    0.7612    3.7589 H   0  0  0  0  0  0  0  0  0  0  0  0
    4.5984    2.2284    3.3573 H   0  0  0  0  0  0  0  0  0  0  0  0
    6.2728    3.3325    1.2450 H   0  0  0  0  0  0  0  0  0  0  0  0
    6.1632    2.9820   -1.3962 H   0  0  0  0  0  0  0  0  0  0  0  0
    4.1775    1.3761   -1.8845 H   0  0  0  0  0  0  0  0  0  0  0  0
  1  2  1  0
  2  3  1  0
  3  4  1  0
  4  5  1  0
  5  6  1  0
  6  7  1  0
  7  8  1  0
  8  9  1  0
  9 10  2  0
 10 11  1  0
 11 12  1  0
 12 13  2  0
 13 14  1  0
 14 15  1  0
 15 16  2  0
 15 17  1  0
 17 18  1  0
 18 19  1  0
 19 20  1  0
 20 21  2  0
 21 22  1  0
 22 23  2  0
 23 24  1  0
 24 25  1  0
 25 26  2  0
 26 27  1  0
 27 28  1  0
 18 29  2  0
  7  2  1  0
 29  9  1  0
 17 11  2  0
 28 20  1  0
 28 24  2  0
  1 30  1  0
  1 31  1  0
  2 32  1  1
  3 33  1  0
  3 34  1  0
  4 35  1  0
  4 36  1  0
  5 37  1  0
  5 38  1  0
  6 39  1  0
  6 40  1  0
  7 41  1  1
  8 42  1  0
 10 43  1  0
 13 44  1  0
 14 45  1  0
 19 46  1  0
 21 47  1  0
 22 48  1  0
 23 49  1  0
 25 50  1  0
 26 51  1  0
 27 52  1  0
M  END
$$$$
