@<TRIPOS>MOLECULE
*****
 52 56 0 0 0
SMALL
GASTEIGER

@<TRIPOS>ATOM
      1 N          -1.9930    0.7389   -1.6699 N.3     1  UNL1       -0.3257
      2 C          -2.8074    1.3666   -0.6694 C.3     1  UNL1        0.0234
      3 C          -4.2398    1.2892   -1.1718 C.3     1  UNL1       -0.0360
      4 C          -5.2547    1.5908   -0.0964 C.3     1  UNL1       -0.0515
      5 C          -5.0413    0.6698    1.1139 C.3     1  UNL1       -0.0513
      6 C          -3.6884    0.9695    1.6691 C.3     1  UNL1       -0.0331
      7 C          -2.6342    0.6568    0.6414 C.3     1  UNL1        0.0371
      8 N          -2.5142   -0.7622    0.4202 N.pl3   1  UNL1       -0.3246
      9 C          -1.2779   -1.2996   -0.0438 C.ar    1  UNL1        0.1231
     10 C          -1.1892   -2.6549   -0.2939 C.ar    1  UNL1        0.0044
     11 C           0.0225   -3.1718   -0.6982 C.ar    1  UNL1        0.0844
     12 N           0.1250   -4.4923   -0.9514 N.ar    1  UNL1       -0.2369
     13 C           1.3109   -4.9708   -1.3482 C.ar    1  UNL1        0.0966
     14 N           2.3612   -4.1403   -1.4850 N.ar    1  UNL1       -0.3128
     15 C           2.3103   -2.8171   -1.2453 C.ar    1  UNL1        0.2624
     16 O           3.3006   -2.0590   -1.3789 O.2     1  UNL1       -0.2670
     17 C           1.0932   -2.3046   -0.8342 C.ar    1  UNL1        0.1047
     18 C           0.9987   -0.9609   -0.5851 C.ar    1  UNL1        0.1395
     19 N           2.1149   -0.1012   -0.7135 N.pl3   1  UNL1       -0.2971
     20 C           2.7679    0.4973    0.3955 C.ar    1  UNL1        0.0566
     21 C           2.3510    0.2981    1.6975 C.ar    1  UNL1       -0.0385
     22 C           3.0128    0.9197    2.7352 C.ar    1  UNL1       -0.0593
     23 C           4.0986    1.7495    2.5061 C.ar    1  UNL1       -0.0525
     24 C           4.5169    1.9510    1.2162 C.ar    1  UNL1        0.0015
     25 C           5.5573    2.7171    0.7232 C.ar    1  UNL1       -0.0366
     26 C           5.5153    2.5493   -0.6384 C.ar    1  UNL1        0.0028
     27 N           4.4934    1.7183   -0.9408 N.ar    1  UNL1       -0.3592
     28 C           3.8477    1.3228    0.1750 C.ar    1  UNL1        0.0679
     29 N          -0.2024   -0.5070   -0.1939 N.ar    1  UNL1       -0.2165
     30 H          -1.3554    1.3621   -2.1874 H       1  UNL1        0.1185
     31 H          -2.5097    0.0778   -2.2930 H       1  UNL1        0.1185
     32 H          -2.4692    2.4140   -0.5629 H       1  UNL1        0.0476
     33 H          -4.4346    0.2650   -1.5448 H       1  UNL1        0.0281
     34 H          -4.3642    2.0171   -1.9875 H       1  UNL1        0.0281
     35 H          -5.1889    2.6256    0.2774 H       1  UNL1        0.0266
     36 H          -6.2560    1.3275   -0.5150 H       1  UNL1        0.0266
     37 H          -5.8633    0.8952    1.8411 H       1  UNL1        0.0266
     38 H          -5.0614   -0.4068    0.8083 H       1  UNL1        0.0266
     39 H          -3.4399    0.3509    2.5597 H       1  UNL1        0.0284
     40 H          -3.6248    2.0577    1.9225 H       1  UNL1        0.0284
     41 H          -1.6361    1.0573    1.0476 H       1  UNL1        0.0513
     42 H          -3.3120   -1.4026    0.5909 H       1  UNL1        0.1478
     43 H          -2.0697   -3.2891   -0.1678 H       1  UNL1        0.0673
     44 H           1.4615   -6.0390   -1.5711 H       1  UNL1        0.1028
     45 H           3.3060   -4.4971   -1.7961 H       1  UNL1        0.1698
     46 H           2.4679    0.0986   -1.6719 H       1  UNL1        0.1536
     47 H           1.4980   -0.3574    1.8345 H       1  UNL1        0.0637
     48 H           2.6841    0.7612    3.7589 H       1  UNL1        0.0618
     49 H           4.5984    2.2284    3.3573 H       1  UNL1        0.0624
     50 H           6.2728    3.3325    1.2450 H       1  UNL1        0.0638
     51 H           6.1632    2.9820   -1.3962 H       1  UNL1        0.0807
     52 H           4.1775    1.3761   -1.8845 H       1  UNL1        0.1654
@<TRIPOS>BOND
     1     1     2    1
     2     2     3    1
     3     3     4    1
     4     4     5    1
     5     5     6    1
     6     6     7    1
     7     7     8    1
     8     8     9    1
     9     9    10   ar
    10    10    11   ar
    11    11    12   ar
    12    12    13   ar
    13    13    14   ar
    14    14    15   ar
    15    15    16    2
    16    15    17   ar
    17    17    18   ar
    18    18    19    1
    19    19    20    1
    20    20    21   ar
    21    21    22   ar
    22    22    23   ar
    23    23    24   ar
    24    24    25   ar
    25    25    26   ar
    26    26    27   ar
    27    27    28   ar
    28    18    29   ar
    29     7     2    1
    30    29     9   ar
    31    17    11   ar
    32    28    20   ar
    33    28    24   ar
    34     1    30    1
    35     1    31    1
    36     2    32    1
    37     3    33    1
    38     3    34    1
    39     4    35    1
    40     4    36    1
    41     5    37    1
    42     5    38    1
    43     6    39    1
    44     6    40    1
    45     7    41    1
    46     8    42    1
    47    10    43    1
    48    13    44    1
    49    14    45    1
    50    19    46    1
    51    21    47    1
    52    22    48    1
    53    23    49    1
    54    25    50    1
    55    26    51    1
    56    27    52    1
