@<TRIPOS>MOLECULE
*****
 45 48 0 0 0
SMALL
GASTEIGER

@<TRIPOS>ATOM
      1 C          -3.4261   -0.6152   -2.1961 C.3     1  UNL1       -0.0633
      2 C          -3.5933   -0.7789   -0.6968 C.3     1  UNL1       -0.0328
      3 C          -2.3774   -0.2700    0.0739 C.3     1  UNL1        0.0588
      4 C          -2.7386   -0.5519    1.5447 C.3     1  UNL1        0.0650
      5 O          -3.9074    0.1362    1.9137 O.3     1  UNL1       -0.3930
      6 N          -1.2258   -1.0583   -0.2995 N.ar    1  UNL1       -0.3231
      7 C          -1.1691   -2.3591   -0.6029 C.ar    1  UNL1        0.0974
      8 N           0.0925   -2.7133   -0.8671 N.ar    1  UNL1       -0.2351
      9 C           0.8937   -1.5956   -0.7354 C.ar    1  UNL1        0.0982
     10 C           2.3412   -1.6468   -0.9521 C.ar    1  UNL1        0.0027
     11 C           2.9093   -1.1171   -2.0253 C.ar    1  UNL1       -0.0498
     12 C           4.3270   -1.2286   -2.2350 C.ar    1  UNL1       -0.0258
     13 C           4.9740   -1.8921   -1.2539 C.ar    1  UNL1        0.1234
     14 F           6.3471   -2.0254   -1.4537 F       1  UNL1       -0.2055
     15 C           4.4571   -2.4628   -0.1153 C.ar    1  UNL1       -0.0258
     16 C           3.0481   -2.3394    0.0604 C.ar    1  UNL1       -0.0498
     17 C           0.0578   -0.5850   -0.3864 C.ar    1  UNL1        0.0969
     18 C           0.3628    0.7826   -0.1143 C.ar    1  UNL1        0.1103
     19 C           0.9332    1.7215   -1.0409 C.ar    1  UNL1       -0.0290
     20 C           1.1326    2.9959   -0.5976 C.ar    1  UNL1       -0.0153
     21 C           0.8056    3.3804    0.6885 C.ar    1  UNL1        0.1555
     22 N           0.8779    4.5181    1.4246 N.ar    1  UNL1       -0.2333
     23 C           0.3757    4.2860    2.7024 C.ar    1  UNL1        0.0659
     24 C          -0.0139    2.9918    2.7459 C.ar    1  UNL1        0.1618
     25 C          -0.7358    2.2023    3.7760 C.1     1  UNL1        0.1208
     26 N          -1.2793    1.5934    4.5386 N.1     1  UNL1       -0.1892
     27 N           0.2594    2.4590    1.5487 N.ar    1  UNL1       -0.2023
     28 N           0.0901    1.2628    1.0743 N.ar    1  UNL1       -0.1623
     29 H          -3.3595   -1.6535   -2.6140 H       1  UNL1        0.0230
     30 H          -4.3350   -0.1450   -2.6310 H       1  UNL1        0.0230
     31 H          -2.5001   -0.0911   -2.4461 H       1  UNL1        0.0230
     32 H          -4.4659   -0.2136   -0.3260 H       1  UNL1        0.0283
     33 H          -3.6908   -1.8588   -0.4531 H       1  UNL1        0.0283
     34 H          -2.2591    0.8051   -0.0272 H       1  UNL1        0.0551
     35 H          -1.9334   -0.1172    2.1588 H       1  UNL1        0.0578
     36 H          -2.8189   -1.6144    1.7529 H       1  UNL1        0.0578
     37 H          -4.0912   -0.1991    2.8526 H       1  UNL1        0.2095
     38 H          -2.0569   -3.0127   -0.6196 H       1  UNL1        0.1029
     39 H           2.3374   -0.5958   -2.7967 H       1  UNL1        0.0625
     40 H           4.7005   -0.7760   -3.1112 H       1  UNL1        0.0646
     41 H           5.0632   -2.9635    0.5954 H       1  UNL1        0.0646
     42 H           2.5658   -2.7563    0.9192 H       1  UNL1        0.0625
     43 H           1.1352    1.3678   -2.0142 H       1  UNL1        0.0641
     44 H           1.5840    3.7492   -1.2606 H       1  UNL1        0.0655
     45 H           0.3064    4.9845    3.5013 H       1  UNL1        0.0859
@<TRIPOS>BOND
     1     1     2    1
     2     2     3    1
     3     3     4    1
     4     4     5    1
     5     3     6    1
     6     6     7   ar
     7     7     8   ar
     8     8     9   ar
     9     9    10    1
    10    10    11   ar
    11    11    12   ar
    12    12    13   ar
    13    13    14    1
    14    13    15   ar
    15    15    16   ar
    16     9    17   ar
    17    17    18    1
    18    18    19   ar
    19    19    20   ar
    20    20    21   ar
    21    21    22   ar
    22    22    23   ar
    23    23    24   ar
    24    24    25    1
    25    25    26    3
    26    24    27   ar
    27    27    28   ar
    28    17     6   ar
    29    28    18   ar
    30    16    10   ar
    31    27    21   ar
    32     1    29    1
    33     1    30    1
    34     1    31    1
    35     2    32    1
    36     2    33    1
    37     3    34    1
    38     4    35    1
    39     4    36    1
    40     5    37    1
    41     7    38    1
    42    11    39    1
    43    12    40    1
    44    15    41    1
    45    16    42    1
    46    19    43    1
    47    20    44    1
    48    23    45    1
