
     RDKit          3D

 45 48  0  0  0  0  0  0  0  0999 V2000
   -3.4261   -0.6152   -2.1961 C   0  0  0  0  0  0  0  0  0  0  0  0
   -3.5933   -0.7789   -0.6968 C   0  0  0  0  0  0  0  0  0  0  0  0
   -2.3774   -0.2700    0.0739 C   0  0  1  0  0  0  0  0  0  0  0  0
   -2.7386   -0.5519    1.5447 C   0  0  0  0  0  0  0  0  0  0  0  0
   -3.9074    0.1362    1.9137 O   0  0  0  0  0  0  0  0  0  0  0  0
   -1.2258   -1.0583   -0.2995 N   0  0  0  0  0  0  0  0  0  0  0  0
   -1.1691   -2.3591   -0.6029 C   0  0  0  0  0  0  0  0  0  0  0  0
    0.0925   -2.7133   -0.8671 N   0  0  0  0  0  0  0  0  0  0  0  0
    0.8937   -1.5956   -0.7354 C   0  0  0  0  0  0  0  0  0  0  0  0
    2.3412   -1.6468   -0.9521 C   0  0  0  0  0  0  0  0  0  0  0  0
    2.9093   -1.1171   -2.0253 C   0  0  0  0  0  0  0  0  0  0  0  0
    4.3270   -1.2286   -2.2350 C   0  0  0  0  0  0  0  0  0  0  0  0
    4.9740   -1.8921   -1.2539 C   0  0  0  0  0  0  0  0  0  0  0  0
    6.3471   -2.0254   -1.4537 F   0  0  0  0  0  0  0  0  0  0  0  0
    4.4571   -2.4628   -0.1153 C   0  0  0  0  0  0  0  0  0  0  0  0
    3.0481   -2.3394    0.0604 C   0  0  0  0  0  0  0  0  0  0  0  0
    0.0578   -0.5850   -0.3864 C   0  0  0  0  0  0  0  0  0  0  0  0
    0.3628    0.7826   -0.1143 C   0  0  0  0  0  0  0  0  0  0  0  0
    0.9332    1.7215   -1.0409 C   0  0  0  0  0  0  0  0  0  0  0  0
    1.1326    2.9959   -0.5976 C   0  0  0  0  0  0  0  0  0  0  0  0
    0.8056    3.3804    0.6885 C   0  0  0  0  0  0  0  0  0  0  0  0
    0.8779    4.5181    1.4246 N   0  0  0  0  0  0  0  0  0  0  0  0
    0.3757    4.2860    2.7024 C   0  0  0  0  0  0  0  0  0  0  0  0
   -0.0139    2.9918    2.7459 C   0  0  0  0  0  0  0  0  0  0  0  0
   -0.7358    2.2023    3.7760 C   0  0  0  0  0  0  0  0  0  0  0  0
   -1.2793    1.5934    4.5386 N   0  0  0  0  0  0  0  0  0  0  0  0
    0.2594    2.4590    1.5487 N   0  0  0  0  0  0  0  0  0  0  0  0
    0.0901    1.2628    1.0743 N   0  0  0  0  0  0  0  0  0  0  0  0
   -3.3595   -1.6535   -2.6140 H   0  0  0  0  0  0  0  0  0  0  0  0
   -4.3350   -0.1450   -2.6310 H   0  0  0  0  0  0  0  0  0  0  0  0
   -2.5001   -0.0911   -2.4461 H   0  0  0  0  0  0  0  0  0  0  0  0
   -4.4659   -0.2136   -0.3260 H   0  0  0  0  0  0  0  0  0  0  0  0
   -3.6908   -1.8588   -0.4531 H   0  0  0  0  0  0  0  0  0  0  0  0
   -2.2591    0.8051   -0.0272 H   0  0  0  0  0  0  0  0  0  0  0  0
   -1.9334   -0.1172    2.1588 H   0  0  0  0  0  0  0  0  0  0  0  0
   -2.8189   -1.6144    1.7529 H   0  0  0  0  0  0  0  0  0  0  0  0
   -4.0912   -0.1991    2.8526 H   0  0  0  0  0  0  0  0  0  0  0  0
   -2.0569   -3.0127   -0.6196 H   0  0  0  0  0  0  0  0  0  0  0  0
    2.3374   -0.5958   -2.7967 H   0  0  0  0  0  0  0  0  0  0  0  0
    4.7005   -0.7760   -3.1112 H   0  0  0  0  0  0  0  0  0  0  0  0
    5.0632   -2.9635    0.5954 H   0  0  0  0  0  0  0  0  0  0  0  0
    2.5658   -2.7563    0.9192 H   0  0  0  0  0  0  0  0  0  0  0  0
    1.1352    1.3678   -2.0142 H   0  0  0  0  0  0  0  0  0  0  0  0
    1.5840    3.7492   -1.2606 H   0  0  0  0  0  0  0  0  0  0  0  0
    0.3064    4.9845    3.5013 H   0  0  0  0  0  0  0  0  0  0  0  0
  1  2  1  0
  2  3  1  0
  3  4  1  0
  4  5  1  0
  3  6  1  0
  6  7  1  0
  7  8  2  0
  8  9  1  0
  9 10  1  0
 10 11  2  0
 11 12  1  0
 12 13  2  0
 13 14  1  0
 13 15  1  0
 15 16  2  0
  9 17  2  0
 17 18  1  0
 18 19  1  0
 19 20  2  0
 20 21  1  0
 21 22  2  0
 22 23  1  0
 23 24  2  0
 24 25  1  0
 25 26  3  0
 24 27  1  0
 27 28  1  0
 17  6  1  0
 28 18  2  0
 16 10  1  0
 27 21  1  0
  1 29  1  0
  1 30  1  0
  1 31  1  0
  2 32  1  0
  2 33  1  0
  3 34  1  1
  4 35  1  0
  4 36  1  0
  5 37  1  0
  7 38  1  0
 11 39  1  0
 12 40  1  0
 15 41  1  0
 16 42  1  0
 19 43  1  0
 20 44  1  0
 23 45  1  0
M  END
$$$$
