@<TRIPOS>MOLECULE
*****
 43 47 0 0 0
SMALL
GASTEIGER

@<TRIPOS>ATOM
      1 O           1.1356   -3.8102   -0.4538 O.2     1  UNL1       -0.2656
      2 C           0.5823   -2.6806   -0.2993 C.ar    1  UNL1        0.2748
      3 N          -0.7330   -2.5035   -0.2992 N.ar    1  UNL1       -0.3203
      4 C          -1.3070   -1.3035   -0.1344 C.ar    1  UNL1        0.0519
      5 C          -2.6781   -1.1982   -0.1437 C.ar    1  UNL1       -0.0299
      6 C          -3.2683    0.0524    0.0318 C.ar    1  UNL1       -0.0159
      7 C          -4.7169    0.1946    0.0254 C.ar    1  UNL1       -0.0178
      8 C          -5.5281   -0.6229   -0.7507 C.ar    1  UNL1       -0.0540
      9 C          -6.9007   -0.5218   -0.7729 C.ar    1  UNL1       -0.0612
     10 C          -7.4621    0.4503    0.0266 C.ar    1  UNL1       -0.0617
     11 C          -6.7002    1.2896    0.8181 C.ar    1  UNL1       -0.0612
     12 C          -5.3295    1.1586    0.8145 C.ar    1  UNL1       -0.0540
     13 C          -2.4577    1.1337    0.2073 C.ar    1  UNL1       -0.0533
     14 C          -1.0780    1.0112    0.2140 C.ar    1  UNL1       -0.0499
     15 C          -0.4782   -0.2207    0.0410 C.ar    1  UNL1        0.0260
     16 C           0.8922   -0.3319    0.0519 C.ar    1  UNL1        0.1039
     17 N           1.9261    0.5024    0.1927 N.ar    1  UNL1       -0.2266
     18 C           3.1072   -0.1695    0.1155 C.ar    1  UNL1        0.1474
     19 C           4.3860    0.5394    0.1710 C.ar    1  UNL1        0.1124
     20 C           4.4360    1.7590    0.8681 C.ar    1  UNL1        0.0581
     21 CL          2.9559    2.3394    1.5912 Cl      1  UNL1       -0.0826
     22 C           5.5657    2.4977    1.0049 C.ar    1  UNL1       -0.0423
     23 C           6.7299    2.0445    0.4387 C.ar    1  UNL1       -0.0539
     24 C           6.7190    0.8659   -0.2487 C.ar    1  UNL1        0.0164
     25 C           5.5433    0.0868   -0.4006 C.ar    1  UNL1        0.2851
     26 N           5.6755   -1.0613   -1.1961 N.pl3   1  UNL1        0.0804
     27 O           6.8122   -1.6421   -1.1460 O.2     1  UNL1        0.0415
     28 O           4.7565   -1.6429   -1.9993 O.co2   1  UNL1       -0.5760
     29 N           2.7653   -1.4332   -0.0729 N.ar    1  UNL1       -0.3334
     30 C           1.4183   -1.5866   -0.1219 C.ar    1  UNL1        0.1322
     31 H          -1.3459   -3.3165   -0.4307 H       1  UNL1        0.1690
     32 H          -3.3203   -2.0421   -0.2794 H       1  UNL1        0.0644
     33 H          -5.0711   -1.3952   -1.3849 H       1  UNL1        0.0624
     34 H          -7.5090   -1.1853   -1.3976 H       1  UNL1        0.0618
     35 H          -8.5433    0.5444    0.0241 H       1  UNL1        0.0618
     36 H          -7.1654    2.0604    1.4520 H       1  UNL1        0.0618
     37 H          -4.6822    1.7857    1.4124 H       1  UNL1        0.0624
     38 H          -2.9207    2.1121    0.3444 H       1  UNL1        0.0624
     39 H          -0.4683    1.9028    0.3579 H       1  UNL1        0.0625
     40 H           5.5831    3.4556    1.5609 H       1  UNL1        0.0632
     41 H           7.6313    2.6141    0.5436 H       1  UNL1        0.0620
     42 H           7.6494    0.5251   -0.6883 H       1  UNL1        0.0685
     43 H           3.3933   -2.2576   -0.1334 H       1  UNL1        0.1675
@<TRIPOS>UNITY_ATOM_ATTR
26 1
charge 1
28 1
charge -1
@<TRIPOS>BOND
     1     1     2    2
     2     2     3   ar
     3     3     4   ar
     4     4     5   ar
     5     5     6   ar
     6     6     7    1
     7     7     8   ar
     8     8     9   ar
     9     9    10   ar
    10    10    11   ar
    11    11    12   ar
    12     6    13   ar
    13    13    14   ar
    14    14    15   ar
    15    15    16   ar
    16    16    17   ar
    17    17    18   ar
    18    18    19    1
    19    19    20   ar
    20    20    21    1
    21    20    22   ar
    22    22    23   ar
    23    23    24   ar
    24    24    25   ar
    25    25    26    1
    26    26    27    2
    27    26    28    1
    28    18    29   ar
    29    29    30   ar
    30    30     2   ar
    31    15     4   ar
    32    30    16   ar
    33    12     7   ar
    34    25    19   ar
    35     3    31    1
    36     5    32    1
    37     8    33    1
    38     9    34    1
    39    10    35    1
    40    11    36    1
    41    12    37    1
    42    13    38    1
    43    14    39    1
    44    22    40    1
    45    23    41    1
    46    24    42    1
    47    29    43    1
