
     RDKit          3D

 47 48  0  0  0  0  0  0  0  0999 V2000
    7.2999   -2.4263   -1.3955 C   0  0  0  0  0  0  0  0  0  0  0  0
    7.7336   -1.4424   -0.4816 O   0  0  0  0  0  0  0  0  0  0  0  0
    6.8246   -0.5022   -0.0078 C   0  0  0  0  0  0  0  0  0  0  0  0
    5.5254   -0.5391   -0.4296 C   0  0  0  0  0  0  0  0  0  0  0  0
    4.6403    0.4283    0.0733 C   0  0  0  0  0  0  0  0  0  0  0  0
    3.2633    0.3844   -0.3723 C   0  0  0  0  0  0  0  0  0  0  0  0
    2.3647    1.2426    0.0332 C   0  0  0  0  0  0  0  0  0  0  0  0
    0.9817    1.1472   -0.4538 C   0  0  0  0  0  0  0  0  0  0  0  0
    0.6708    0.2483   -1.2518 O   0  0  0  0  0  0  0  0  0  0  0  0
   -0.0047    2.1320    0.0257 C   0  0  0  0  0  0  0  0  0  0  0  0
   -1.3230    1.8283   -0.5813 C   0  0  0  0  0  0  0  0  0  0  0  0
   -1.5654    2.2420   -1.7291 O   0  0  0  0  0  0  0  0  0  0  0  0
   -2.3621    1.0585    0.1104 C   0  0  0  0  0  0  0  0  0  0  0  0
   -3.5220    0.7981   -0.4368 C   0  0  0  0  0  0  0  0  0  0  0  0
   -4.5494    0.0407    0.2384 C   0  0  0  0  0  0  0  0  0  0  0  0
   -4.3639   -0.4583    1.4994 C   0  0  0  0  0  0  0  0  0  0  0  0
   -5.3684   -1.1920    2.1479 C   0  0  0  0  0  0  0  0  0  0  0  0
   -6.5575   -1.4187    1.5192 C   0  0  0  0  0  0  0  0  0  0  0  0
   -7.5639   -2.1383    2.1349 O   0  0  0  0  0  0  0  0  0  0  0  0
   -6.7668   -0.9192    0.2351 C   0  0  0  0  0  0  0  0  0  0  0  0
   -7.9945   -1.1797   -0.3562 O   0  0  0  0  0  0  0  0  0  0  0  0
   -8.2063   -0.6681   -1.6669 C   0  0  0  0  0  0  0  0  0  0  0  0
   -5.7632   -0.1995   -0.3841 C   0  0  0  0  0  0  0  0  0  0  0  0
    5.0745    1.3727    0.9563 C   0  0  0  0  0  0  0  0  0  0  0  0
    6.4173    1.3903    1.3760 C   0  0  0  0  0  0  0  0  0  0  0  0
    7.2783    0.4496    0.8871 C   0  0  0  0  0  0  0  0  0  0  0  0
    8.5994    0.4746    1.3060 O   0  0  0  0  0  0  0  0  0  0  0  0
    6.4334   -2.9626   -0.9494 H   0  0  0  0  0  0  0  0  0  0  0  0
    8.1397   -3.1183   -1.6038 H   0  0  0  0  0  0  0  0  0  0  0  0
    6.9754   -1.9726   -2.3410 H   0  0  0  0  0  0  0  0  0  0  0  0
    5.1538   -1.2885   -1.1391 H   0  0  0  0  0  0  0  0  0  0  0  0
    2.9265   -0.3868   -1.0777 H   0  0  0  0  0  0  0  0  0  0  0  0
    2.6410    2.0164    0.7215 H   0  0  0  0  0  0  0  0  0  0  0  0
    0.2769    3.1569   -0.3286 H   0  0  0  0  0  0  0  0  0  0  0  0
   -0.0733    2.1693    1.1366 H   0  0  0  0  0  0  0  0  0  0  0  0
   -2.0920    0.7267    1.1019 H   0  0  0  0  0  0  0  0  0  0  0  0
   -3.6902    1.1849   -1.4529 H   0  0  0  0  0  0  0  0  0  0  0  0
   -3.4603   -0.3269    2.0665 H   0  0  0  0  0  0  0  0  0  0  0  0
   -5.2020   -1.5771    3.1432 H   0  0  0  0  0  0  0  0  0  0  0  0
   -8.0613   -2.8410    1.5684 H   0  0  0  0  0  0  0  0  0  0  0  0
   -9.1751   -1.0527   -2.0374 H   0  0  0  0  0  0  0  0  0  0  0  0
   -8.2748    0.4357   -1.5935 H   0  0  0  0  0  0  0  0  0  0  0  0
   -7.3723   -0.9337   -2.3261 H   0  0  0  0  0  0  0  0  0  0  0  0
   -5.9450    0.1855   -1.3931 H   0  0  0  0  0  0  0  0  0  0  0  0
    4.4393    2.1320    1.3691 H   0  0  0  0  0  0  0  0  0  0  0  0
    6.7199    2.1494    2.0721 H   0  0  0  0  0  0  0  0  0  0  0  0
    8.8775    0.1496    2.2309 H   0  0  0  0  0  0  0  0  0  0  0  0
  1  2  1  0
  2  3  1  0
  3  4  2  0
  4  5  1  0
  5  6  1  0
  6  7  2  3
  7  8  1  0
  8  9  2  0
  8 10  1  0
 10 11  1  0
 11 12  2  0
 11 13  1  0
 13 14  2  3
 14 15  1  0
 15 16  2  0
 16 17  1  0
 17 18  2  0
 18 19  1  0
 18 20  1  0
 20 21  1  0
 21 22  1  0
 20 23  2  0
  5 24  2  0
 24 25  1  0
 25 26  2  0
 26 27  1  0
 26  3  1  0
 23 15  1  0
  1 28  1  0
  1 29  1  0
  1 30  1  0
  4 31  1  0
  6 32  1  0
  7 33  1  0
 10 34  1  0
 10 35  1  0
 13 36  1  0
 14 37  1  0
 16 38  1  0
 17 39  1  0
 19 40  1  0
 22 41  1  0
 22 42  1  0
 22 43  1  0
 23 44  1  0
 24 45  1  0
 25 46  1  0
 27 47  1  0
M  END
$$$$
