@<TRIPOS>MOLECULE
*****
 47 48 0 0 0
SMALL
GASTEIGER

@<TRIPOS>ATOM
      1 C           7.2999   -2.4263   -1.3955 C.3     1  UNL1        0.0790
      2 O           7.7336   -1.4424   -0.4816 O.3     1  UNL1       -0.4914
      3 C           6.8246   -0.5022   -0.0078 C.ar    1  UNL1        0.1618
      4 C           5.5254   -0.5391   -0.4296 C.ar    1  UNL1       -0.0092
      5 C           4.6403    0.4283    0.0733 C.ar    1  UNL1       -0.0212
      6 C           3.2633    0.3844   -0.3723 C.2     1  UNL1       -0.0512
      7 C           2.3647    1.2426    0.0332 C.2     1  UNL1       -0.0182
      8 C           0.9817    1.1472   -0.4538 C.2     1  UNL1        0.1635
      9 O           0.6708    0.2483   -1.2518 O.2     1  UNL1       -0.2922
     10 C          -0.0047    2.1320    0.0257 C.3     1  UNL1        0.0724
     11 C          -1.3230    1.8283   -0.5813 C.2     1  UNL1        0.1635
     12 O          -1.5654    2.2420   -1.7291 O.2     1  UNL1       -0.2922
     13 C          -2.3621    1.0585    0.1104 C.2     1  UNL1       -0.0182
     14 C          -3.5220    0.7981   -0.4368 C.2     1  UNL1       -0.0512
     15 C          -4.5494    0.0407    0.2384 C.ar    1  UNL1       -0.0212
     16 C          -4.3639   -0.4583    1.4994 C.ar    1  UNL1       -0.0509
     17 C          -5.3684   -1.1920    2.1479 C.ar    1  UNL1       -0.0160
     18 C          -6.5575   -1.4187    1.5192 C.ar    1  UNL1        0.1585
     19 O          -7.5639   -2.1383    2.1349 O.3     1  UNL1       -0.5033
     20 C          -6.7668   -0.9192    0.2351 C.ar    1  UNL1        0.1618
     21 O          -7.9945   -1.1797   -0.3562 O.3     1  UNL1       -0.4914
     22 C          -8.2063   -0.6681   -1.6669 C.3     1  UNL1        0.0790
     23 C          -5.7632   -0.1995   -0.3841 C.ar    1  UNL1       -0.0092
     24 C           5.0745    1.3727    0.9563 C.ar    1  UNL1       -0.0509
     25 C           6.4173    1.3903    1.3760 C.ar    1  UNL1       -0.0160
     26 C           7.2783    0.4496    0.8871 C.ar    1  UNL1        0.1585
     27 O           8.5994    0.4746    1.3060 O.3     1  UNL1       -0.5033
     28 H           6.4334   -2.9626   -0.9494 H       1  UNL1        0.0660
     29 H           8.1397   -3.1183   -1.6038 H       1  UNL1        0.0660
     30 H           6.9754   -1.9726   -2.3410 H       1  UNL1        0.0660
     31 H           5.1538   -1.2885   -1.1391 H       1  UNL1        0.0661
     32 H           2.9265   -0.3868   -1.0777 H       1  UNL1        0.0625
     33 H           2.6410    2.0164    0.7215 H       1  UNL1        0.0653
     34 H           0.2769    3.1569   -0.3286 H       1  UNL1        0.0426
     35 H          -0.0733    2.1693    1.1366 H       1  UNL1        0.0426
     36 H          -2.0920    0.7267    1.1019 H       1  UNL1        0.0653
     37 H          -3.6902    1.1849   -1.4529 H       1  UNL1        0.0625
     38 H          -3.4603   -0.3269    2.0665 H       1  UNL1        0.0625
     39 H          -5.2020   -1.5771    3.1432 H       1  UNL1        0.0655
     40 H          -8.0613   -2.8410    1.5684 H       1  UNL1        0.2923
     41 H          -9.1751   -1.0527   -2.0374 H       1  UNL1        0.0660
     42 H          -8.2748    0.4357   -1.5935 H       1  UNL1        0.0660
     43 H          -7.3723   -0.9337   -2.3261 H       1  UNL1        0.0660
     44 H          -5.9450    0.1855   -1.3931 H       1  UNL1        0.0661
     45 H           4.4393    2.1320    1.3691 H       1  UNL1        0.0625
     46 H           6.7199    2.1494    2.0721 H       1  UNL1        0.0655
     47 H           8.8775    0.1496    2.2309 H       1  UNL1        0.2923
@<TRIPOS>BOND
     1     1     2    1
     2     2     3    1
     3     3     4   ar
     4     4     5   ar
     5     5     6    1
     6     6     7    2
     7     7     8    1
     8     8     9    2
     9     8    10    1
    10    10    11    1
    11    11    12    2
    12    11    13    1
    13    13    14    2
    14    14    15    1
    15    15    16   ar
    16    16    17   ar
    17    17    18   ar
    18    18    19    1
    19    18    20   ar
    20    20    21    1
    21    21    22    1
    22    20    23   ar
    23     5    24   ar
    24    24    25   ar
    25    25    26   ar
    26    26    27    1
    27    26     3   ar
    28    23    15   ar
    29     1    28    1
    30     1    29    1
    31     1    30    1
    32     4    31    1
    33     6    32    1
    34     7    33    1
    35    10    34    1
    36    10    35    1
    37    13    36    1
    38    14    37    1
    39    16    38    1
    40    17    39    1
    41    19    40    1
    42    22    41    1
    43    22    42    1
    44    22    43    1
    45    23    44    1
    46    24    45    1
    47    25    46    1
    48    27    47    1
