
     RDKit          3D

 61 65  0  0  0  0  0  0  0  0999 V2000
    7.9729    0.4201   -1.1855 C   0  0  0  0  0  0  0  0  0  0  0  0
    6.8130    0.9050   -2.0229 C   0  0  0  0  0  0  0  0  0  0  0  0
    5.6375    0.1425   -1.8997 N   0  0  0  0  0  0  0  0  0  0  0  0
    4.5892    0.6068   -2.7200 C   0  0  0  0  0  0  0  0  0  0  0  0
    3.2260    0.6585   -2.1651 C   0  0  0  0  0  0  0  0  0  0  0  0
    2.9794   -0.2275   -0.9362 C   0  0  0  0  0  0  0  0  0  0  0  0
    1.6368   -0.0529   -0.5536 N   0  0  0  0  0  0  0  0  0  0  0  0
    1.0039    0.0581    0.6894 C   0  0  0  0  0  0  0  0  0  0  0  0
    1.6289    0.1469    1.8859 C   0  0  0  0  0  0  0  0  0  0  0  0
    0.8888    0.2022    3.0627 C   0  0  0  0  0  0  0  0  0  0  0  0
   -0.4909    0.1666    3.0022 C   0  0  0  0  0  0  0  0  0  0  0  0
   -1.1679    0.0758    1.7980 C   0  0  0  0  0  0  0  0  0  0  0  0
   -0.4171    0.0237    0.6551 C   0  0  0  0  0  0  0  0  0  0  0  0
   -2.6184    0.0649    2.0063 C   0  0  0  0  0  0  0  0  0  0  0  0
   -3.6165   -0.0155    1.1611 C   0  0  0  0  0  0  0  0  0  0  0  0
   -3.5864   -0.1219   -0.2914 C   0  0  0  0  0  0  0  0  0  0  0  0
   -4.2650    0.7424   -1.1142 N   0  0  0  0  0  0  0  0  0  0  0  0
   -4.1152    0.3521   -2.3863 C   0  0  0  0  0  0  0  0  0  0  0  0
   -3.3308   -0.7793   -2.4054 C   0  0  0  0  0  0  0  0  0  0  0  0
   -2.9207   -1.5366   -3.6195 C   0  0  0  0  0  0  0  0  0  0  0  0
   -3.0458   -1.0130   -1.1152 N   0  0  0  0  0  0  0  0  0  0  0  0
   -5.0121   -0.1147    1.6937 C   0  0  0  0  0  0  0  0  0  0  0  0
   -5.9509    0.8599    1.4576 C   0  0  0  0  0  0  0  0  0  0  0  0
   -7.2663    0.7100    1.9131 C   0  0  0  0  0  0  0  0  0  0  0  0
   -7.6545   -0.4212    2.6121 C   0  0  0  0  0  0  0  0  0  0  0  0
   -6.7054   -1.3878    2.8403 C   0  0  0  0  0  0  0  0  0  0  0  0
   -5.3890   -1.2370    2.3832 C   0  0  0  0  0  0  0  0  0  0  0  0
   -4.5143   -2.2408    2.6111 F   0  0  0  0  0  0  0  0  0  0  0  0
   -2.7732    0.1660    3.4817 C   0  0  0  0  0  0  0  0  0  0  0  0
   -3.8705    0.1966    4.0874 O   0  0  0  0  0  0  0  0  0  0  0  0
   -1.4697    0.2215    4.0207 N   0  0  0  0  0  0  0  0  0  0  0  0
    4.0832   -0.1507    0.0084 C   0  0  0  0  0  0  0  0  0  0  0  0
    5.3736   -0.5882   -0.7529 C   0  0  0  0  0  0  0  0  0  0  0  0
    8.8952    0.8366   -1.6420 H   0  0  0  0  0  0  0  0  0  0  0  0
    8.0963   -0.6963   -1.2733 H   0  0  0  0  0  0  0  0  0  0  0  0
    7.9454    0.7614   -0.1445 H   0  0  0  0  0  0  0  0  0  0  0  0
    7.1689    0.9652   -3.0757 H   0  0  0  0  0  0  0  0  0  0  0  0
    6.6590    1.9824   -1.7214 H   0  0  0  0  0  0  0  0  0  0  0  0
    4.5381   -0.0743   -3.6318 H   0  0  0  0  0  0  0  0  0  0  0  0
    4.8208    1.6531   -3.1182 H   0  0  0  0  0  0  0  0  0  0  0  0
    2.9512    1.7057   -1.9163 H   0  0  0  0  0  0  0  0  0  0  0  0
    2.4323    0.3395   -2.9035 H   0  0  0  0  0  0  0  0  0  0  0  0
    3.0295   -1.3181   -1.3522 H   0  0  0  0  0  0  0  0  0  0  0  0
    0.9836    0.0041   -1.4569 H   0  0  0  0  0  0  0  0  0  0  0  0
    2.7053    0.2020    1.9456 H   0  0  0  0  0  0  0  0  0  0  0  0
    1.4004    0.2729    4.0149 H   0  0  0  0  0  0  0  0  0  0  0  0
   -0.9116   -0.0228   -0.2892 H   0  0  0  0  0  0  0  0  0  0  0  0
   -4.5327    0.8291   -3.2856 H   0  0  0  0  0  0  0  0  0  0  0  0
   -3.8018   -1.7082   -4.2769 H   0  0  0  0  0  0  0  0  0  0  0  0
   -2.1274   -1.0373   -4.1816 H   0  0  0  0  0  0  0  0  0  0  0  0
   -2.5667   -2.5663   -3.3286 H   0  0  0  0  0  0  0  0  0  0  0  0
   -2.4586   -1.8133   -0.7930 H   0  0  0  0  0  0  0  0  0  0  0  0
   -5.6481    1.7490    0.9096 H   0  0  0  0  0  0  0  0  0  0  0  0
   -8.0144    1.4675    1.7338 H   0  0  0  0  0  0  0  0  0  0  0  0
   -8.6773   -0.5107    2.9528 H   0  0  0  0  0  0  0  0  0  0  0  0
   -7.0113   -2.2719    3.3856 H   0  0  0  0  0  0  0  0  0  0  0  0
   -1.2329    0.2958    5.0420 H   0  0  0  0  0  0  0  0  0  0  0  0
    3.9916   -1.0057    0.7380 H   0  0  0  0  0  0  0  0  0  0  0  0
    4.3589    0.8044    0.4404 H   0  0  0  0  0  0  0  0  0  0  0  0
    5.2132   -1.6751   -1.0142 H   0  0  0  0  0  0  0  0  0  0  0  0
    6.1403   -0.5771    0.0401 H   0  0  0  0  0  0  0  0  0  0  0  0
  1  2  1  0
  2  3  1  0
  3  4  1  0
  4  5  1  0
  5  6  1  0
  6  7  1  0
  7  8  1  0
  8  9  2  0
  9 10  1  0
 10 11  2  0
 11 12  1  0
 12 13  2  0
 12 14  1  0
 14 15  2  3
 15 16  1  0
 16 17  2  0
 17 18  1  0
 18 19  2  0
 19 20  1  0
 19 21  1  0
 15 22  1  0
 22 23  2  0
 23 24  1  0
 24 25  2  0
 25 26  1  0
 26 27  2  0
 27 28  1  0
 14 29  1  0
 29 30  2  0
 29 31  1  0
  6 32  1  0
 32 33  1  0
 33  3  1  0
 13  8  1  0
 21 16  1  0
 27 22  1  0
 31 11  1  0
  1 34  1  0
  1 35  1  0
  1 36  1  0
  2 37  1  0
  2 38  1  0
  4 39  1  0
  4 40  1  0
  5 41  1  0
  5 42  1  0
  6 43  1  0
  7 44  1  0
  9 45  1  0
 10 46  1  0
 13 47  1  0
 18 48  1  0
 20 49  1  0
 20 50  1  0
 20 51  1  0
 21 52  1  0
 23 53  1  0
 24 54  1  0
 25 55  1  0
 26 56  1  0
 31 57  1  0
 32 58  1  0
 32 59  1  0
 33 60  1  0
 33 61  1  0
M  END
$$$$
