@<TRIPOS>MOLECULE
*****
 61 65 0 0 0
SMALL
GASTEIGER

@<TRIPOS>ATOM
      1 C           7.9729    0.4201   -1.1855 C.3     1  UNL1       -0.0524
      2 C           6.8130    0.9050   -2.0229 C.3     1  UNL1       -0.0039
      3 N           5.6375    0.1425   -1.8997 N.3     1  UNL1       -0.3025
      4 C           4.5892    0.6068   -2.7200 C.3     1  UNL1        0.0006
      5 C           3.2260    0.6585   -2.1651 C.3     1  UNL1       -0.0217
      6 C           2.9794   -0.2275   -0.9362 C.3     1  UNL1        0.0230
      7 N           1.6368   -0.0529   -0.5536 N.pl3   1  UNL1       -0.3409
      8 C           1.0039    0.0581    0.6894 C.ar    1  UNL1        0.0280
      9 C           1.6289    0.1469    1.8859 C.ar    1  UNL1       -0.0391
     10 C           0.8888    0.2022    3.0627 C.ar    1  UNL1       -0.0381
     11 C          -0.4909    0.1666    3.0022 C.ar    1  UNL1        0.0417
     12 C          -1.1679    0.0758    1.7980 C.ar    1  UNL1        0.0108
     13 C          -0.4171    0.0237    0.6551 C.ar    1  UNL1       -0.0312
     14 C          -2.6184    0.0649    2.0063 C.2     1  UNL1        0.0572
     15 C          -3.6165   -0.0155    1.1611 C.2     1  UNL1        0.0398
     16 C          -3.5864   -0.1219   -0.2914 C.ar    1  UNL1        0.1397
     17 N          -4.2650    0.7424   -1.1142 N.ar    1  UNL1       -0.2358
     18 C          -4.1152    0.3521   -2.3863 C.ar    1  UNL1        0.0488
     19 C          -3.3308   -0.7793   -2.4054 C.ar    1  UNL1        0.0327
     20 C          -2.9207   -1.5366   -3.6195 C.3     1  UNL1       -0.0229
     21 N          -3.0458   -1.0130   -1.1152 N.ar    1  UNL1       -0.3419
     22 C          -5.0121   -0.1147    1.6937 C.ar    1  UNL1        0.0215
     23 C          -5.9509    0.8599    1.4576 C.ar    1  UNL1       -0.0511
     24 C          -7.2663    0.7100    1.9131 C.ar    1  UNL1       -0.0610
     25 C          -7.6545   -0.4212    2.6121 C.ar    1  UNL1       -0.0590
     26 C          -6.7054   -1.3878    2.8403 C.ar    1  UNL1       -0.0258
     27 C          -5.3890   -1.2370    2.3832 C.ar    1  UNL1        0.1312
     28 F          -4.5143   -2.2408    2.6111 F       1  UNL1       -0.2049
     29 C          -2.7732    0.1660    3.4817 C.2     1  UNL1        0.2496
     30 O          -3.8705    0.1966    4.0874 O.2     1  UNL1       -0.2698
     31 N          -1.4697    0.2215    4.0207 N.am    1  UNL1       -0.2809
     32 C           4.0832   -0.1507    0.0084 C.3     1  UNL1       -0.0217
     33 C           5.3736   -0.5882   -0.7529 C.3     1  UNL1        0.0006
     34 H           8.8952    0.8366   -1.6420 H       1  UNL1        0.0242
     35 H           8.0963   -0.6963   -1.2733 H       1  UNL1        0.0242
     36 H           7.9454    0.7614   -0.1445 H       1  UNL1        0.0242
     37 H           7.1689    0.9652   -3.0757 H       1  UNL1        0.0424
     38 H           6.6590    1.9824   -1.7214 H       1  UNL1        0.0424
     39 H           4.5381   -0.0743   -3.6318 H       1  UNL1        0.0427
     40 H           4.8208    1.6531   -3.1182 H       1  UNL1        0.0427
     41 H           2.9512    1.7057   -1.9163 H       1  UNL1        0.0295
     42 H           2.4323    0.3395   -2.9035 H       1  UNL1        0.0295
     43 H           3.0295   -1.3181   -1.3522 H       1  UNL1        0.0498
     44 H           0.9836    0.0041   -1.4569 H       1  UNL1        0.1463
     45 H           2.7053    0.2020    1.9456 H       1  UNL1        0.0637
     46 H           1.4004    0.2729    4.0149 H       1  UNL1        0.0637
     47 H          -0.9116   -0.0228   -0.2892 H       1  UNL1        0.0643
     48 H          -4.5327    0.8291   -3.2856 H       1  UNL1        0.0848
     49 H          -3.8018   -1.7082   -4.2769 H       1  UNL1        0.0292
     50 H          -2.1274   -1.0373   -4.1816 H       1  UNL1        0.0292
     51 H          -2.5667   -2.5663   -3.3286 H       1  UNL1        0.0292
     52 H          -2.4586   -1.8133   -0.7930 H       1  UNL1        0.1671
     53 H          -5.6481    1.7490    0.9096 H       1  UNL1        0.0625
     54 H          -8.0144    1.4675    1.7338 H       1  UNL1        0.0618
     55 H          -8.6773   -0.5107    2.9528 H       1  UNL1        0.0618
     56 H          -7.0113   -2.2719    3.3856 H       1  UNL1        0.0646
     57 H          -1.2329    0.2958    5.0420 H       1  UNL1        0.1552
     58 H           3.9916   -1.0057    0.7380 H       1  UNL1        0.0295
     59 H           4.3589    0.8044    0.4404 H       1  UNL1        0.0295
     60 H           5.2132   -1.6751   -1.0142 H       1  UNL1        0.0427
     61 H           6.1403   -0.5771    0.0401 H       1  UNL1        0.0427
@<TRIPOS>BOND
     1     1     2    1
     2     2     3    1
     3     3     4    1
     4     4     5    1
     5     5     6    1
     6     6     7    1
     7     7     8    1
     8     8     9   ar
     9     9    10   ar
    10    10    11   ar
    11    11    12   ar
    12    12    13   ar
    13    12    14    1
    14    14    15    2
    15    15    16    1
    16    16    17   ar
    17    17    18   ar
    18    18    19   ar
    19    19    20    1
    20    19    21   ar
    21    15    22    1
    22    22    23   ar
    23    23    24   ar
    24    24    25   ar
    25    25    26   ar
    26    26    27   ar
    27    27    28    1
    28    14    29    1
    29    29    30    2
    30    29    31   am
    31     6    32    1
    32    32    33    1
    33    33     3    1
    34    13     8   ar
    35    21    16   ar
    36    27    22   ar
    37    31    11    1
    38     1    34    1
    39     1    35    1
    40     1    36    1
    41     2    37    1
    42     2    38    1
    43     4    39    1
    44     4    40    1
    45     5    41    1
    46     5    42    1
    47     6    43    1
    48     7    44    1
    49     9    45    1
    50    10    46    1
    51    13    47    1
    52    18    48    1
    53    20    49    1
    54    20    50    1
    55    20    51    1
    56    21    52    1
    57    23    53    1
    58    24    54    1
    59    25    55    1
    60    26    56    1
    61    31    57    1
    62    32    58    1
    63    32    59    1
    64    33    60    1
    65    33    61    1
