@<TRIPOS>MOLECULE
*****
 49 52 0 0 0
SMALL
GASTEIGER

@<TRIPOS>ATOM
      1 O           6.2840   -0.5329    0.5862 O.3     1  UNL1       -0.3918
      2 C           5.2205    0.2962    0.9768 C.3     1  UNL1        0.0553
      3 C           4.6109    1.0231   -0.1849 C.3     1  UNL1       -0.0263
      4 C           3.8335    0.0514   -1.0897 C.3     1  UNL1       -0.0424
      5 C           2.9553   -0.7785   -0.2251 C.3     1  UNL1        0.0016
      6 C           1.7502   -1.3459   -0.8367 C.ar    1  UNL1        0.0483
      7 N           1.6955   -2.6376   -1.3432 N.ar    1  UNL1       -0.2807
      8 N           0.4863   -2.8716   -1.7800 N.ar    1  UNL1       -0.1814
      9 C          -0.2804   -1.8163   -1.6006 C.ar    1  UNL1        0.0586
     10 C           0.5121   -0.8007   -0.9886 C.ar    1  UNL1        0.0411
     11 C          -0.0290    0.4890   -0.6158 C.ar    1  UNL1        0.0792
     12 C           0.6620    1.6416   -0.4644 C.ar    1  UNL1       -0.0173
     13 C          -0.0124    2.8258   -0.1623 C.ar    1  UNL1        0.0332
     14 N          -1.3362    2.8265   -0.0227 N.ar    1  UNL1       -0.2229
     15 C          -2.0518    1.6942   -0.1684 C.ar    1  UNL1        0.2159
     16 N          -3.4619    1.7483   -0.0080 N.pl3   1  UNL1       -0.3106
     17 C          -4.2897    0.5743   -0.1500 C.3     1  UNL1        0.0233
     18 C          -3.8950   -0.5034    0.8630 C.3     1  UNL1       -0.0345
     19 C          -5.0920   -1.4368    0.8235 C.3     1  UNL1       -0.0513
     20 C          -6.2893   -0.5129    0.6675 C.3     1  UNL1       -0.0513
     21 C          -5.7195    0.8342    0.2497 C.3     1  UNL1       -0.0345
     22 N          -1.3860    0.5927   -0.4533 N.ar    1  UNL1       -0.2144
     23 C           2.8279   -0.3022    1.1968 C.3     1  UNL1       -0.0424
     24 C           4.2399   -0.4571    1.8141 C.3     1  UNL1       -0.0263
     25 H           6.2944   -0.7046   -0.3846 H       1  UNL1        0.2098
     26 H           5.6832    1.0749    1.6305 H       1  UNL1        0.0593
     27 H           3.9924    1.8414    0.1787 H       1  UNL1        0.0290
     28 H           5.4559    1.4607   -0.7710 H       1  UNL1        0.0290
     29 H           3.3637    0.6147   -1.8904 H       1  UNL1        0.0272
     30 H           4.6621   -0.5330   -1.5944 H       1  UNL1        0.0272
     31 H           3.6379   -1.7285   -0.0537 H       1  UNL1        0.0364
     32 H           2.4925   -3.3152   -1.3739 H       1  UNL1        0.1885
     33 H          -1.3245   -1.6639   -1.8446 H       1  UNL1        0.0854
     34 H           1.7246    1.6948   -0.5823 H       1  UNL1        0.0654
     35 H           0.5720    3.7450   -0.0444 H       1  UNL1        0.0831
     36 H          -3.9127    2.6499    0.2165 H       1  UNL1        0.1492
     37 H          -4.2481    0.1461   -1.1745 H       1  UNL1        0.0498
     38 H          -2.9542   -0.9967    0.5931 H       1  UNL1        0.0283
     39 H          -3.8927   -0.0396    1.8697 H       1  UNL1        0.0283
     40 H          -5.0419   -2.1605   -0.0036 H       1  UNL1        0.0266
     41 H          -5.1186   -1.9982    1.7752 H       1  UNL1        0.0266
     42 H          -6.9758   -0.9301   -0.1038 H       1  UNL1        0.0266
     43 H          -6.8714   -0.4465    1.6040 H       1  UNL1        0.0266
     44 H          -6.3302    1.2168   -0.5934 H       1  UNL1        0.0283
     45 H          -5.7737    1.5813    1.0505 H       1  UNL1        0.0283
     46 H           2.4505    0.6852    1.3727 H       1  UNL1        0.0272
     47 H           2.2306   -1.0953    1.7405 H       1  UNL1        0.0272
     48 H           4.4364   -1.5672    1.7865 H       1  UNL1        0.0290
     49 H           4.2125   -0.1329    2.8739 H       1  UNL1        0.0290
@<TRIPOS>BOND
     1     1     2    1
     2     2     3    1
     3     3     4    1
     4     4     5    1
     5     5     6    1
     6     6     7   ar
     7     7     8   ar
     8     8     9   ar
     9     9    10   ar
    10    10    11    1
    11    11    12   ar
    12    12    13   ar
    13    13    14   ar
    14    14    15   ar
    15    15    16    1
    16    16    17    1
    17    17    18    1
    18    18    19    1
    19    19    20    1
    20    20    21    1
    21    15    22   ar
    22     5    23    1
    23    23    24    1
    24    24     2    1
    25    10     6   ar
    26    22    11   ar
    27    21    17    1
    28     1    25    1
    29     2    26    1
    30     3    27    1
    31     3    28    1
    32     4    29    1
    33     4    30    1
    34     5    31    1
    35     7    32    1
    36     9    33    1
    37    12    34    1
    38    13    35    1
    39    16    36    1
    40    17    37    1
    41    18    38    1
    42    18    39    1
    43    19    40    1
    44    19    41    1
    45    20    42    1
    46    20    43    1
    47    21    44    1
    48    21    45    1
    49    23    46    1
    50    23    47    1
    51    24    48    1
    52    24    49    1
