@<TRIPOS>MOLECULE
*****
 45 48 0 0 0
SMALL
GASTEIGER

@<TRIPOS>ATOM
      1 C           5.8809    1.2542    0.3806 C.3     1  UNL1       -0.0193
      2 C           4.4865    1.6658    0.0795 C.ar    1  UNL1        0.0765
      3 C           4.0426    2.8490   -0.4879 C.ar    1  UNL1        0.1151
      4 O           2.7240    2.7924   -0.5729 O.2     1  UNL1       -0.4450
      5 C           2.2964    1.6532   -0.0982 C.ar    1  UNL1        0.2245
      6 C           0.8569    1.1795   -0.0065 C.3     1  UNL1        0.1347
      7 C           0.4953    0.3539   -1.1811 C.3     1  UNL1       -0.0114
      8 C          -0.5755   -0.6688   -1.0109 C.3     1  UNL1        0.0081
      9 C          -0.1212   -1.9551   -1.5890 C.3     1  UNL1        0.0461
     10 C           1.0828   -2.6023   -1.0242 C.3     1  UNL1        0.1027
     11 F           1.2640   -3.7858   -1.7685 F       1  UNL1       -0.2479
     12 S          -1.4597   -3.1934   -1.5101 S.3     1  UNL1       -0.0848
     13 C          -2.0286   -2.9883    0.1877 C.2     1  UNL1        0.1479
     14 N          -2.7084   -4.0768    0.8258 N.pl3   1  UNL1       -0.3380
     15 N          -1.8062   -1.9017    0.7404 N.2     1  UNL1       -0.2495
     16 C          -1.1745   -0.6877    0.3584 C.3     1  UNL1        0.1189
     17 C          -2.2386    0.3453    0.4419 C.ar    1  UNL1        0.0178
     18 C          -2.1672    1.4349    1.2685 C.ar    1  UNL1       -0.0507
     19 C          -3.1519    2.4015    1.3629 C.ar    1  UNL1       -0.0259
     20 C          -4.2990    2.2825    0.5780 C.ar    1  UNL1        0.1261
     21 F          -5.2645    3.2254    0.6670 F       1  UNL1       -0.2054
     22 C          -4.4050    1.2145   -0.2543 C.ar    1  UNL1        0.0091
     23 C          -3.3984    0.2707   -0.3188 C.ar    1  UNL1        0.1317
     24 F          -3.6008   -0.7511   -1.1747 F       1  UNL1       -0.2050
     25 C          -0.1501   -0.3845    1.4302 C.3     1  UNL1        0.0783
     26 O           0.6941    0.6337    1.2108 O.3     1  UNL1       -0.3645
     27 N           3.3642    0.9457    0.3082 N.ar    1  UNL1       -0.2164
     28 H           6.3720    0.8557   -0.5344 H       1  UNL1        0.0293
     29 H           5.8782    0.4550    1.1510 H       1  UNL1        0.0293
     30 H           6.4521    2.1008    0.8188 H       1  UNL1        0.0293
     31 H           4.7142    3.6435   -0.7876 H       1  UNL1        0.1049
     32 H           0.2904    2.1676    0.0030 H       1  UNL1        0.0694
     33 H           1.4325   -0.1438   -1.5767 H       1  UNL1        0.0299
     34 H           0.2601    1.0893   -2.0145 H       1  UNL1        0.0299
     35 H          -1.4142   -0.3388   -1.7038 H       1  UNL1        0.0341
     36 H           0.0591   -1.7910   -2.6717 H       1  UNL1        0.0445
     37 H           0.9436   -3.0023    0.0160 H       1  UNL1        0.0626
     38 H           2.0046   -2.0400   -1.1552 H       1  UNL1        0.0626
     39 H          -3.7393   -4.0875    0.7988 H       1  UNL1        0.1442
     40 H          -2.1140   -4.7920    1.2790 H       1  UNL1        0.1442
     41 H          -1.3042    1.5682    1.8885 H       1  UNL1        0.0623
     42 H          -3.0365    3.2316    2.0300 H       1  UNL1        0.0646
     43 H          -5.3092    1.1206   -0.8731 H       1  UNL1        0.0675
     44 H           0.5014   -1.3026    1.6195 H       1  UNL1        0.0588
     45 H          -0.6287   -0.2406    2.4274 H       1  UNL1        0.0588
@<TRIPOS>BOND
     1     1     2    1
     2     2     3   ar
     3     3     4   ar
     4     4     5   ar
     5     5     6    1
     6     6     7    1
     7     7     8    1
     8     8     9    1
     9     9    10    1
    10    10    11    1
    11     9    12    1
    12    12    13    1
    13    13    14    1
    14    13    15    2
    15    15    16    1
    16    16    17    1
    17    17    18   ar
    18    18    19   ar
    19    19    20   ar
    20    20    21    1
    21    20    22   ar
    22    22    23   ar
    23    23    24    1
    24    16    25    1
    25    25    26    1
    26     5    27   ar
    27    27     2   ar
    28    26     6    1
    29    16     8    1
    30    23    17   ar
    31     1    28    1
    32     1    29    1
    33     1    30    1
    34     3    31    1
    35     6    32    1
    36     7    33    1
    37     7    34    1
    38     8    35    1
    39     9    36    1
    40    10    37    1
    41    10    38    1
    42    14    39    1
    43    14    40    1
    44    18    41    1
    45    19    42    1
    46    22    43    1
    47    25    44    1
    48    25    45    1
