@<TRIPOS>MOLECULE
*****
 55 59 0 0 0
SMALL
GASTEIGER

@<TRIPOS>ATOM
      1 C           3.1751   -2.1931    1.1075 C.3     1  UNL1        0.0790
      2 O           4.0261   -1.0997    1.4371 O.3     1  UNL1       -0.4914
      3 C           4.1202    0.0250    0.6296 C.ar    1  UNL1        0.1628
      4 C           3.3762    0.1318   -0.5523 C.ar    1  UNL1       -0.0070
      5 C           3.4673    1.2449   -1.3528 C.ar    1  UNL1        0.0082
      6 C           2.7286    1.4646   -2.5821 C.ar    1  UNL1        0.1281
      7 N           3.2867    1.8465   -3.7716 N.ar    1  UNL1       -0.0750
      8 O           2.3727    1.9711   -4.6622 O.2     1  UNL1       -0.3337
      9 C           1.1981    1.6911   -4.1384 C.ar    1  UNL1        0.2655
     10 N          -0.0614    1.6606   -4.5950 N.ar    1  UNL1       -0.1997
     11 C          -1.1043    1.3304   -3.8119 C.ar    1  UNL1        0.1071
     12 N          -0.9533    1.0093   -2.5193 N.ar    1  UNL1       -0.2668
     13 C          -2.0142    0.6530   -1.6425 C.ar    1  UNL1        0.0510
     14 C          -2.9115   -0.3163   -2.0641 C.ar    1  UNL1       -0.0359
     15 C          -3.9722   -0.7322   -1.2911 C.ar    1  UNL1       -0.0383
     16 C          -4.1576   -0.1676   -0.0461 C.ar    1  UNL1        0.0365
     17 N          -5.2351   -0.5614    0.7894 N.am    1  UNL1       -0.2673
     18 C          -6.4981    0.1493    0.6810 C.3     1  UNL1        0.0433
     19 C          -7.3452   -0.2652    1.8874 C.3     1  UNL1        0.0644
     20 O          -7.5156   -1.6391    1.8564 O.3     1  UNL1       -0.3690
     21 C          -6.3555   -2.2685    2.2689 C.3     1  UNL1        0.1242
     22 C          -5.1498   -1.6143    1.7292 C.2     1  UNL1        0.2456
     23 O          -4.0161   -1.9930    2.1060 O.2     1  UNL1       -0.2727
     24 C          -3.2537    0.7991    0.3615 C.ar    1  UNL1       -0.0383
     25 C          -2.1993    1.2087   -0.4136 C.ar    1  UNL1       -0.0359
     26 C           0.3167    1.0325   -2.0318 C.ar    1  UNL1        0.2715
     27 O           0.4837    0.7383   -0.8253 O.2     1  UNL1       -0.2664
     28 C           1.3940    1.3618   -2.8007 C.ar    1  UNL1        0.1331
     29 C           4.3370    2.2511   -0.9229 C.ar    1  UNL1       -0.0487
     30 C           5.0688    2.1433    0.2412 C.ar    1  UNL1       -0.0149
     31 C           4.9750    1.0244    1.0441 C.ar    1  UNL1        0.1730
     32 O           5.7112    0.9134    2.2179 O.3     1  UNL1       -0.4223
     33 C           6.9749    0.3440    2.1866 C.2     1  UNL1        0.3093
     34 C           7.8444    0.1730    3.3578 C.3     1  UNL1        0.0336
     35 O           7.3992   -0.0539    1.0597 O.2     1  UNL1       -0.2507
     36 H           2.9757   -2.8330    1.9657 H       1  UNL1        0.0660
     37 H           2.1906   -1.7277    0.8172 H       1  UNL1        0.0660
     38 H           3.6150   -2.7185    0.2332 H       1  UNL1        0.0660
     39 H           2.7407   -0.6728   -0.8386 H       1  UNL1        0.0662
     40 H          -2.1256    1.3126   -4.2093 H       1  UNL1        0.1034
     41 H          -2.7794   -0.7672   -3.0358 H       1  UNL1        0.0639
     42 H          -4.6427   -1.4990   -1.6800 H       1  UNL1        0.0637
     43 H          -6.9867   -0.1090   -0.2712 H       1  UNL1        0.0491
     44 H          -6.3078    1.2341    0.8047 H       1  UNL1        0.0491
     45 H          -6.7299   -0.0302    2.7900 H       1  UNL1        0.0576
     46 H          -8.2995    0.2795    1.9057 H       1  UNL1        0.0576
     47 H          -6.3371   -2.2120    3.3871 H       1  UNL1        0.0657
     48 H          -6.4426   -3.3426    1.9491 H       1  UNL1        0.0657
     49 H          -3.4367    1.2241    1.3600 H       1  UNL1        0.0637
     50 H          -1.5350    1.9647   -0.0347 H       1  UNL1        0.0639
     51 H           4.4264    3.1423   -1.5409 H       1  UNL1        0.0625
     52 H           5.7468    2.9353    0.5699 H       1  UNL1        0.0656
     53 H           8.8800    0.4935    3.0436 H       1  UNL1        0.0342
     54 H           7.9478   -0.9024    3.6298 H       1  UNL1        0.0342
     55 H           7.5870    0.7996    4.2171 H       1  UNL1        0.0342
@<TRIPOS>BOND
     1     1     2    1
     2     2     3    1
     3     3     4   ar
     4     4     5   ar
     5     5     6    1
     6     6     7   ar
     7     7     8   ar
     8     8     9   ar
     9     9    10   ar
    10    10    11   ar
    11    11    12   ar
    12    12    13    1
    13    13    14   ar
    14    14    15   ar
    15    15    16   ar
    16    16    17    1
    17    17    18    1
    18    18    19    1
    19    19    20    1
    20    20    21    1
    21    21    22    1
    22    22    23    2
    23    16    24   ar
    24    24    25   ar
    25    12    26   ar
    26    26    27    2
    27    26    28   ar
    28     5    29   ar
    29    29    30   ar
    30    30    31   ar
    31    31    32    1
    32    32    33    1
    33    33    34    1
    34    33    35    2
    35    31     3   ar
    36    28     6   ar
    37    28     9   ar
    38    25    13   ar
    39    22    17   am
    40     1    36    1
    41     1    37    1
    42     1    38    1
    43     4    39    1
    44    11    40    1
    45    14    41    1
    46    15    42    1
    47    18    43    1
    48    18    44    1
    49    19    45    1
    50    19    46    1
    51    21    47    1
    52    21    48    1
    53    24    49    1
    54    25    50    1
    55    29    51    1
    56    30    52    1
    57    34    53    1
    58    34    54    1
    59    34    55    1
