
     RDKit          3D

 55 59  0  0  0  0  0  0  0  0999 V2000
    3.1751   -2.1931    1.1075 C   0  0  0  0  0  0  0  0  0  0  0  0
    4.0261   -1.0997    1.4371 O   0  0  0  0  0  0  0  0  0  0  0  0
    4.1202    0.0250    0.6296 C   0  0  0  0  0  0  0  0  0  0  0  0
    3.3762    0.1318   -0.5523 C   0  0  0  0  0  0  0  0  0  0  0  0
    3.4673    1.2449   -1.3528 C   0  0  0  0  0  0  0  0  0  0  0  0
    2.7286    1.4646   -2.5821 C   0  0  0  0  0  0  0  0  0  0  0  0
    3.2867    1.8465   -3.7716 N   0  0  0  0  0  0  0  0  0  0  0  0
    2.3727    1.9711   -4.6622 O   0  0  0  0  0  0  0  0  0  0  0  0
    1.1981    1.6911   -4.1384 C   0  0  0  0  0  0  0  0  0  0  0  0
   -0.0614    1.6606   -4.5950 N   0  0  0  0  0  0  0  0  0  0  0  0
   -1.1043    1.3304   -3.8119 C   0  0  0  0  0  0  0  0  0  0  0  0
   -0.9533    1.0093   -2.5193 N   0  0  0  0  0  0  0  0  0  0  0  0
   -2.0142    0.6530   -1.6425 C   0  0  0  0  0  0  0  0  0  0  0  0
   -2.9115   -0.3163   -2.0641 C   0  0  0  0  0  0  0  0  0  0  0  0
   -3.9722   -0.7322   -1.2911 C   0  0  0  0  0  0  0  0  0  0  0  0
   -4.1576   -0.1676   -0.0461 C   0  0  0  0  0  0  0  0  0  0  0  0
   -5.2351   -0.5614    0.7894 N   0  0  0  0  0  0  0  0  0  0  0  0
   -6.4981    0.1493    0.6810 C   0  0  0  0  0  0  0  0  0  0  0  0
   -7.3452   -0.2652    1.8874 C   0  0  0  0  0  0  0  0  0  0  0  0
   -7.5156   -1.6391    1.8564 O   0  0  0  0  0  0  0  0  0  0  0  0
   -6.3555   -2.2685    2.2689 C   0  0  0  0  0  0  0  0  0  0  0  0
   -5.1498   -1.6143    1.7292 C   0  0  0  0  0  0  0  0  0  0  0  0
   -4.0161   -1.9930    2.1060 O   0  0  0  0  0  0  0  0  0  0  0  0
   -3.2537    0.7991    0.3615 C   0  0  0  0  0  0  0  0  0  0  0  0
   -2.1993    1.2087   -0.4136 C   0  0  0  0  0  0  0  0  0  0  0  0
    0.3167    1.0325   -2.0318 C   0  0  0  0  0  0  0  0  0  0  0  0
    0.4837    0.7383   -0.8253 O   0  0  0  0  0  0  0  0  0  0  0  0
    1.3940    1.3618   -2.8007 C   0  0  0  0  0  0  0  0  0  0  0  0
    4.3370    2.2511   -0.9229 C   0  0  0  0  0  0  0  0  0  0  0  0
    5.0688    2.1433    0.2412 C   0  0  0  0  0  0  0  0  0  0  0  0
    4.9750    1.0244    1.0441 C   0  0  0  0  0  0  0  0  0  0  0  0
    5.7112    0.9134    2.2179 O   0  0  0  0  0  0  0  0  0  0  0  0
    6.9749    0.3440    2.1866 C   0  0  0  0  0  0  0  0  0  0  0  0
    7.8444    0.1730    3.3578 C   0  0  0  0  0  0  0  0  0  0  0  0
    7.3992   -0.0539    1.0597 O   0  0  0  0  0  0  0  0  0  0  0  0
    2.9757   -2.8330    1.9657 H   0  0  0  0  0  0  0  0  0  0  0  0
    2.1906   -1.7277    0.8172 H   0  0  0  0  0  0  0  0  0  0  0  0
    3.6150   -2.7185    0.2332 H   0  0  0  0  0  0  0  0  0  0  0  0
    2.7407   -0.6728   -0.8386 H   0  0  0  0  0  0  0  0  0  0  0  0
   -2.1256    1.3126   -4.2093 H   0  0  0  0  0  0  0  0  0  0  0  0
   -2.7794   -0.7672   -3.0358 H   0  0  0  0  0  0  0  0  0  0  0  0
   -4.6427   -1.4990   -1.6800 H   0  0  0  0  0  0  0  0  0  0  0  0
   -6.9867   -0.1090   -0.2712 H   0  0  0  0  0  0  0  0  0  0  0  0
   -6.3078    1.2341    0.8047 H   0  0  0  0  0  0  0  0  0  0  0  0
   -6.7299   -0.0302    2.7900 H   0  0  0  0  0  0  0  0  0  0  0  0
   -8.2995    0.2795    1.9057 H   0  0  0  0  0  0  0  0  0  0  0  0
   -6.3371   -2.2120    3.3871 H   0  0  0  0  0  0  0  0  0  0  0  0
   -6.4426   -3.3426    1.9491 H   0  0  0  0  0  0  0  0  0  0  0  0
   -3.4367    1.2241    1.3600 H   0  0  0  0  0  0  0  0  0  0  0  0
   -1.5350    1.9647   -0.0347 H   0  0  0  0  0  0  0  0  0  0  0  0
    4.4264    3.1423   -1.5409 H   0  0  0  0  0  0  0  0  0  0  0  0
    5.7468    2.9353    0.5699 H   0  0  0  0  0  0  0  0  0  0  0  0
    8.8800    0.4935    3.0436 H   0  0  0  0  0  0  0  0  0  0  0  0
    7.9478   -0.9024    3.6298 H   0  0  0  0  0  0  0  0  0  0  0  0
    7.5870    0.7996    4.2171 H   0  0  0  0  0  0  0  0  0  0  0  0
  1  2  1  0
  2  3  1  0
  3  4  2  0
  4  5  1  0
  5  6  1  0
  6  7  2  0
  7  8  1  0
  8  9  1  0
  9 10  1  0
 10 11  2  0
 11 12  1  0
 12 13  1  0
 13 14  2  0
 14 15  1  0
 15 16  2  0
 16 17  1  0
 17 18  1  0
 18 19  1  0
 19 20  1  0
 20 21  1  0
 21 22  1  0
 22 23  2  0
 16 24  1  0
 24 25  2  0
 12 26  1  0
 26 27  2  0
 26 28  1  0
  5 29  2  0
 29 30  1  0
 30 31  2  0
 31 32  1  0
 32 33  1  0
 33 34  1  0
 33 35  2  0
 31  3  1  0
 28  6  1  0
 28  9  2  0
 25 13  1  0
 22 17  1  0
  1 36  1  0
  1 37  1  0
  1 38  1  0
  4 39  1  0
 11 40  1  0
 14 41  1  0
 15 42  1  0
 18 43  1  0
 18 44  1  0
 19 45  1  0
 19 46  1  0
 21 47  1  0
 21 48  1  0
 24 49  1  0
 25 50  1  0
 29 51  1  0
 30 52  1  0
 34 53  1  0
 34 54  1  0
 34 55  1  0
M  END
$$$$
