
     RDKit          3D

 50 50  0  0  0  0  0  0  0  0999 V2000
   -4.2418    0.8589   -1.5656 C   0  0  0  0  0  0  0  0  0  0  0  0
   -3.1300    1.8783   -1.5085 C   0  0  0  0  0  0  0  0  0  0  0  0
   -3.6637    3.1429   -0.9010 C   0  0  0  0  0  0  0  0  0  0  0  0
   -1.8524    1.3795   -0.9787 C   0  0  0  0  0  0  0  0  0  0  0  0
   -1.8313    0.8195    0.3871 C   0  0  2  0  0  0  0  0  0  0  0  0
   -2.2367    1.7440    1.4590 C   0  0  0  0  0  0  0  0  0  0  0  0
   -1.4822    1.9750    2.3791 O   0  0  0  0  0  0  0  0  0  0  0  0
   -0.5201    0.3008    0.7526 N   0  0  0  0  0  0  0  0  0  0  0  0
   -0.2176   -1.0246    1.0251 C   0  0  0  0  0  0  0  0  0  0  0  0
   -1.1527   -1.8820    0.9556 O   0  0  0  0  0  0  0  0  0  0  0  0
    1.1393   -1.5333    1.3992 C   0  0  1  0  0  0  0  0  0  0  0  0
    2.1400   -0.6091    1.4745 N   0  0  0  0  0  0  0  0  0  0  0  0
    3.4555   -0.4522    0.5318 S   0  0  0  0  0  6  0  0  0  0  0  0
    4.4297   -1.5761    0.4589 O   0  0  0  0  0  0  0  0  0  0  0  0
    4.2591    0.7660    0.9294 O   0  0  0  0  0  0  0  0  0  0  0  0
    2.9283   -0.1399   -1.1354 C   0  0  0  0  0  0  0  0  0  0  0  0
    2.7277    1.1415   -1.5955 C   0  0  0  0  0  0  0  0  0  0  0  0
    2.3198    1.4058   -2.8828 C   0  0  0  0  0  0  0  0  0  0  0  0
    2.1028    0.3658   -3.7452 C   0  0  0  0  0  0  0  0  0  0  0  0
    1.7008    0.5757   -5.0218 F   0  0  0  0  0  0  0  0  0  0  0  0
    2.3007   -0.9221   -3.2948 C   0  0  0  0  0  0  0  0  0  0  0  0
    2.7048   -1.1667   -2.0170 C   0  0  0  0  0  0  0  0  0  0  0  0
    0.9160   -2.4798    2.5435 C   0  0  0  0  0  0  0  0  0  0  0  0
    0.2649   -1.7827    3.7327 C   0  0  0  0  0  0  0  0  0  0  0  0
    2.1150   -3.2719    2.9282 C   0  0  0  0  0  0  0  0  0  0  0  0
   -3.9002   -0.1661   -1.7213 H   0  0  0  0  0  0  0  0  0  0  0  0
   -4.9512    1.1030   -2.3851 H   0  0  0  0  0  0  0  0  0  0  0  0
   -4.8567    0.9485   -0.6220 H   0  0  0  0  0  0  0  0  0  0  0  0
   -2.9682    2.1529   -2.6162 H   0  0  0  0  0  0  0  0  0  0  0  0
   -4.5826    2.9831   -0.2752 H   0  0  0  0  0  0  0  0  0  0  0  0
   -4.0275    3.8628   -1.6920 H   0  0  0  0  0  0  0  0  0  0  0  0
   -2.8730    3.6943   -0.3578 H   0  0  0  0  0  0  0  0  0  0  0  0
   -1.4733    0.5877   -1.6713 H   0  0  0  0  0  0  0  0  0  0  0  0
   -1.1375    2.2601   -0.9806 H   0  0  0  0  0  0  0  0  0  0  0  0
   -2.4888   -0.1082    0.3932 H   0  0  0  0  0  0  0  0  0  0  0  0
   -3.1895    2.2221    1.4496 H   0  0  0  0  0  0  0  0  0  0  0  0
    0.2420    1.0233    0.8052 H   0  0  0  0  0  0  0  0  0  0  0  0
    1.4052   -2.2013    0.5175 H   0  0  0  0  0  0  0  0  0  0  0  0
    1.9066    0.2044    2.0411 H   0  0  0  0  0  0  0  0  0  0  0  0
    2.9017    1.9807   -0.9032 H   0  0  0  0  0  0  0  0  0  0  0  0
    2.1638    2.4174   -3.2380 H   0  0  0  0  0  0  0  0  0  0  0  0
    2.1292   -1.7584   -3.9790 H   0  0  0  0  0  0  0  0  0  0  0  0
    2.8484   -2.1904   -1.7033 H   0  0  0  0  0  0  0  0  0  0  0  0
    0.1598   -3.2225    2.1903 H   0  0  0  0  0  0  0  0  0  0  0  0
   -0.5940   -2.3630    4.1329 H   0  0  0  0  0  0  0  0  0  0  0  0
    0.9813   -1.6874    4.5805 H   0  0  0  0  0  0  0  0  0  0  0  0
   -0.1603   -0.7986    3.4249 H   0  0  0  0  0  0  0  0  0  0  0  0
    1.7960   -4.2485    3.3475 H   0  0  0  0  0  0  0  0  0  0  0  0
    2.7415   -3.4105    2.0239 H   0  0  0  0  0  0  0  0  0  0  0  0
    2.7515   -2.7987    3.6961 H   0  0  0  0  0  0  0  0  0  0  0  0
  1  2  1  0
  2  3  1  0
  2  4  1  0
  4  5  1  0
  5  6  1  0
  6  7  2  0
  5  8  1  0
  8  9  1  0
  9 10  2  0
  9 11  1  0
 11 12  1  0
 12 13  1  0
 13 14  2  0
 13 15  2  0
 13 16  1  0
 16 17  2  0
 17 18  1  0
 18 19  2  0
 19 20  1  0
 19 21  1  0
 21 22  2  0
 11 23  1  0
 23 24  1  0
 23 25  1  0
 22 16  1  0
  1 26  1  0
  1 27  1  0
  1 28  1  0
  2 29  1  0
  3 30  1  0
  3 31  1  0
  3 32  1  0
  4 33  1  0
  4 34  1  0
  5 35  1  6
  6 36  1  0
  8 37  1  0
 11 38  1  6
 12 39  1  0
 17 40  1  0
 18 41  1  0
 21 42  1  0
 22 43  1  0
 23 44  1  0
 24 45  1  0
 24 46  1  0
 24 47  1  0
 25 48  1  0
 25 49  1  0
 25 50  1  0
M  END
$$$$
