@<TRIPOS>MOLECULE
*****
 50 50 0 0 0
SMALL
GASTEIGER

@<TRIPOS>ATOM
      1 CD1        -4.2418    0.8589   -1.5656 C.3     1  LEU1       -0.0626
      2 CG         -3.1300    1.8783   -1.5085 C.3     1  LEU1       -0.0447
      3 CD2        -3.6637    3.1429   -0.9010 C.3     1  LEU1       -0.0626
      4 CB         -1.8524    1.3795   -0.9787 C.3     1  LEU1       -0.0255
      5 CA         -1.8313    0.8195    0.3871 C.3     1  LEU1        0.0787
      6 C          -2.2367    1.7440    1.4590 C.2     1  LEU1        0.1404
      7 O          -1.4822    1.9750    2.3791 O.2     1  LEU1       -0.2991
      8 N          -0.5201    0.3008    0.7526 N.am    1  LEU1       -0.3046
      9 C          -0.2176   -1.0246    1.0251 C.2     0  UNK0        0.2325
     10 O          -1.1527   -1.8820    0.9556 O.2     0  UNK0       -0.2740
     11 C           1.1393   -1.5333    1.3992 C.3     0  UNK0        0.1070
     12 N           2.1400   -0.6091    1.4745 N.3     0  UNK0       -0.1778
     13 S           3.4555   -0.4522    0.5318 S.O2    0  UNK0        0.0591
     14 O           4.4297   -1.5761    0.4589 O.2     0  UNK0       -0.1530
     15 O           4.2591    0.7660    0.9294 O.2     0  UNK0       -0.1530
     16 C           2.9283   -0.1399   -1.1354 C.ar    0  UNK0        0.1054
     17 C           2.7277    1.1415   -1.5955 C.ar    0  UNK0       -0.0326
     18 C           2.3198    1.4058   -2.8828 C.ar    0  UNK0       -0.0246
     19 C           2.1028    0.3658   -3.7452 C.ar    0  UNK0        0.1235
     20 F           1.7008    0.5757   -5.0218 F       0  UNK0       -0.2055
     21 C           2.3007   -0.9221   -3.2948 C.ar    0  UNK0       -0.0246
     22 C           2.7048   -1.1667   -2.0170 C.ar    0  UNK0       -0.0326
     23 C           0.9160   -2.4798    2.5435 C.3     0  UNK0       -0.0212
     24 C           0.2649   -1.7827    3.7327 C.3     0  UNK0       -0.0607
     25 C           2.1150   -3.2719    2.9282 C.3     0  UNK0       -0.0607
     26 HD11       -3.9002   -0.1661   -1.7213 H       1  LEU1        0.0232
     27 HD12       -4.9512    1.1030   -2.3851 H       1  LEU1        0.0232
     28 HD13       -4.8567    0.9485   -0.6220 H       1  LEU1        0.0232
     29 HG         -2.9682    2.1529   -2.6162 H       1  LEU1        0.0296
     30 HD21       -4.5826    2.9831   -0.2752 H       1  LEU1        0.0232
     31 HD22       -4.0275    3.8628   -1.6920 H       1  LEU1        0.0232
     32 HD23       -2.8730    3.6943   -0.3578 H       1  LEU1        0.0232
     33 HB1        -1.4733    0.5877   -1.6713 H       1  LEU1        0.0290
     34 HB2        -1.1375    2.2601   -0.9806 H       1  LEU1        0.0290
     35 HA         -2.4888   -0.1082    0.3932 H       1  LEU1        0.0574
     36 H          -3.1895    2.2221    1.4496 H       1  LEU1        0.1046
     37 H           0.2420    1.0233    0.8052 H       1  LEU1        0.1494
     38 H           1.4052   -2.2013    0.5175 H       0  UNK0        0.0575
     39 H           1.9066    0.2044    2.0411 H       0  UNK0        0.1489
     40 H           2.9017    1.9807   -0.9032 H       0  UNK0        0.0638
     41 H           2.1638    2.4174   -3.2380 H       0  UNK0        0.0647
     42 H           2.1292   -1.7584   -3.9790 H       0  UNK0        0.0647
     43 H           2.8484   -2.1904   -1.7033 H       0  UNK0        0.0638
     44 H           0.1598   -3.2225    2.1903 H       0  UNK0        0.0316
     45 H          -0.5940   -2.3630    4.1329 H       0  UNK0        0.0233
     46 H           0.9813   -1.6874    4.5805 H       0  UNK0        0.0233
     47 H          -0.1603   -0.7986    3.4249 H       0  UNK0        0.0233
     48 H           1.7960   -4.2485    3.3475 H       0  UNK0        0.0233
     49 H           2.7415   -3.4105    2.0239 H       0  UNK0        0.0233
     50 H           2.7515   -2.7987    3.6961 H       0  UNK0        0.0233
@<TRIPOS>BOND
     1     1     2    1
     2     2     3    1
     3     2     4    1
     4     4     5    1
     5     5     6    1
     6     6     7    2
     7     5     8    1
     8     8     9   am
     9     9    10    2
    10     9    11    1
    11    11    12    1
    12    12    13    1
    13    13    14    2
    14    13    15    2
    15    13    16    1
    16    16    17   ar
    17    17    18   ar
    18    18    19   ar
    19    19    20    1
    20    19    21   ar
    21    21    22   ar
    22    11    23    1
    23    23    24    1
    24    23    25    1
    25    22    16   ar
    26     1    26    1
    27     1    27    1
    28     1    28    1
    29     2    29    1
    30     3    30    1
    31     3    31    1
    32     3    32    1
    33     4    33    1
    34     4    34    1
    35     5    35    1
    36     6    36    1
    37     8    37    1
    38    11    38    1
    39    12    39    1
    40    17    40    1
    41    18    41    1
    42    21    42    1
    43    22    43    1
    44    23    44    1
    45    24    45    1
    46    24    46    1
    47    24    47    1
    48    25    48    1
    49    25    49    1
    50    25    50    1
