@<TRIPOS>MOLECULE
*****
 103 105 0 0 0
SMALL
GASTEIGER

@<TRIPOS>ATOM
      1 C           4.4176   -4.1002    1.1396 C.3     1  UNL1        0.0833
      2 O           4.5673   -2.7693    0.6897 O.3     1  UNL1       -0.4537
      3 C           4.0159   -1.6717    1.3806 C.2     1  UNL1        0.4006
      4 O           3.3762   -1.9071    2.4293 O.2     1  UNL1       -0.2265
      5 N           4.1576   -0.3368    0.9379 N.am    1  UNL1       -0.2693
      6 C           3.6134    0.8234    1.6047 C.3     1  UNL1        0.1073
      7 C           2.6333    1.4926    0.6975 C.2     1  UNL1        0.2343
      8 O           2.0550    2.5688    1.0604 O.2     1  UNL1       -0.2737
      9 N           2.3724    0.9003   -0.5592 N.am    1  UNL1       -0.3081
     10 C           1.4476    1.4634   -1.5188 C.3     1  UNL1        0.0543
     11 C           2.0280    1.6056   -2.8827 C.3     1  UNL1       -0.0067
     12 C           2.4600    0.3421   -3.4869 C.ar    1  UNL1       -0.0455
     13 C           3.7041   -0.1914   -3.2792 C.ar    1  UNL1       -0.0585
     14 C           4.0399   -1.3748   -3.8788 C.ar    1  UNL1       -0.0615
     15 C           3.1452   -2.0574   -4.7014 C.ar    1  UNL1       -0.0617
     16 C           1.8971   -1.5228   -4.9116 C.ar    1  UNL1       -0.0615
     17 C           1.5880   -0.3355   -4.2974 C.ar    1  UNL1       -0.0585
     18 C           0.1491    0.6467   -1.5427 C.3     1  UNL1        0.0880
     19 O           0.3783   -0.6672   -1.8554 O.3     1  UNL1       -0.3886
     20 C          -0.6128    0.8007   -0.2695 C.3     1  UNL1        0.0448
     21 N          -1.8928    0.1738   -0.2625 N.3     1  UNL1       -0.2202
     22 C          -2.6633    0.3945    0.9088 C.3     1  UNL1        0.0418
     23 C          -2.9892    1.8518    1.0802 C.ar    1  UNL1       -0.0317
     24 C          -2.1476    2.7037    1.7733 C.ar    1  UNL1       -0.0567
     25 C          -2.4452    4.0397    1.9196 C.ar    1  UNL1       -0.0523
     26 C          -3.5950    4.5869    1.3813 C.ar    1  UNL1        0.0004
     27 C          -3.8715    6.0226    1.5523 C.ar    1  UNL1        0.0710
     28 C          -4.9986    6.5889    1.0347 C.ar    1  UNL1       -0.0357
     29 C          -5.2004    7.9590    1.2293 C.ar    1  UNL1       -0.0583
     30 C          -4.2862    8.6875    1.9176 C.ar    1  UNL1       -0.0436
     31 C          -3.1527    8.0807    2.4290 C.ar    1  UNL1        0.0283
     32 N          -2.9748    6.7604    2.2331 N.ar    1  UNL1       -0.2550
     33 C          -4.4299    3.7548    0.6971 C.ar    1  UNL1       -0.0523
     34 C          -4.1383    2.3977    0.5428 C.ar    1  UNL1       -0.0567
     35 N          -1.9451   -1.0738   -0.8283 N.am    1  UNL1       -0.2463
     36 C          -1.7591   -2.2380   -0.0622 C.2     1  UNL1        0.2476
     37 O          -1.5496   -2.0600    1.1779 O.2     1  UNL1       -0.2724
     38 C          -1.7873   -3.5967   -0.5809 C.3     1  UNL1        0.1085
     39 N          -1.5628   -4.6639    0.2979 N.am    1  UNL1       -0.2693
     40 C          -2.4182   -5.0929    1.3096 C.2     1  UNL1        0.4006
     41 O          -3.4931   -4.5391    1.5223 O.2     1  UNL1       -0.2265
     42 O          -2.1131   -6.1853    2.1501 O.3     1  UNL1       -0.4537
     43 C          -3.0103   -6.5786    3.1409 C.3     1  UNL1        0.0833
     44 C          -2.8685   -3.9249   -1.5799 C.3     1  UNL1       -0.0107
     45 C          -4.2684   -3.7003   -1.1503 C.3     1  UNL1       -0.0579
     46 C          -2.5824   -3.3916   -2.9711 C.3     1  UNL1       -0.0579
     47 C          -2.7454   -5.4761   -1.7442 C.3     1  UNL1       -0.0579
     48 C           4.7342    1.7709    1.9741 C.3     1  UNL1       -0.0107
     49 C           5.7251    1.0827    2.8769 C.3     1  UNL1       -0.0579
     50 C           4.0867    2.8646    2.8208 C.3     1  UNL1       -0.0579
     51 C           5.4312    2.3952    0.8218 C.3     1  UNL1       -0.0579
     52 H           3.8530   -4.6483    0.3505 H       1  UNL1        0.0661
     53 H           3.7869   -4.1732    2.0504 H       1  UNL1        0.0661
     54 H           5.4068   -4.6029    1.3160 H       1  UNL1        0.0661
     55 H           4.7057   -0.1648    0.0460 H       1  UNL1        0.1528
     56 H           3.0708    0.4912    2.4984 H       1  UNL1        0.0601
     57 H           2.8663    0.0251   -0.8062 H       1  UNL1        0.1491
     58 H           1.1271    2.4527   -1.0983 H       1  UNL1        0.0527
     59 H           1.2931    2.0884   -3.5512 H       1  UNL1        0.0332
     60 H           2.8821    2.3191   -2.8280 H       1  UNL1        0.0332
     61 H           4.4345    0.2988   -2.6536 H       1  UNL1        0.0620
     62 H           5.0297   -1.8413   -3.7378 H       1  UNL1        0.0618
     63 H           3.4415   -3.0066   -5.1718 H       1  UNL1        0.0618
     64 H           1.1813   -2.0476   -5.5567 H       1  UNL1        0.0618
     65 H           0.5743    0.0456   -4.5043 H       1  UNL1        0.0620
     66 H          -0.4679    1.1331   -2.3506 H       1  UNL1        0.0625
     67 H           0.7316   -1.1576   -1.0686 H       1  UNL1        0.2099
     68 H          -0.0182    0.3534    0.5553 H       1  UNL1        0.0469
     69 H          -0.7819    1.9073   -0.1235 H       1  UNL1        0.0469
     70 H          -3.6062   -0.1442    0.9641 H       1  UNL1        0.0492
     71 H          -2.0575    0.1127    1.7926 H       1  UNL1        0.0492
     72 H          -1.2345    2.2823    2.2039 H       1  UNL1        0.0621
     73 H          -1.7598    4.6562    2.4650 H       1  UNL1        0.0624
     74 H          -5.7421    6.0495    0.4833 H       1  UNL1        0.0639
     75 H          -6.0747    8.4720    0.8444 H       1  UNL1        0.0619
     76 H          -4.4006    9.7624    2.0960 H       1  UNL1        0.0633
     77 H          -2.4123    8.6454    2.9813 H       1  UNL1        0.0830
     78 H          -5.3426    4.1027    0.2496 H       1  UNL1        0.0624
     79 H          -4.8138    1.7475   -0.0062 H       1  UNL1        0.0621
     80 H          -2.1262   -1.1144   -1.8544 H       1  UNL1        0.1693
     81 H          -0.8359   -3.6559   -1.3074 H       1  UNL1        0.0601
     82 H          -0.6488   -5.2217    0.2052 H       1  UNL1        0.1528
     83 H          -3.1163   -7.6978    3.0317 H       1  UNL1        0.0661
     84 H          -2.7423   -6.3243    4.1624 H       1  UNL1        0.0661
     85 H          -4.0290   -6.2045    2.8309 H       1  UNL1        0.0661
     86 H          -4.4269   -2.9215   -0.3786 H       1  UNL1        0.0236
     87 H          -4.8302   -3.3774   -2.0903 H       1  UNL1        0.0236
     88 H          -4.7668   -4.6192   -0.8464 H       1  UNL1        0.0236
     89 H          -3.2707   -2.5722   -3.2682 H       1  UNL1        0.0236
     90 H          -2.6787   -4.2273   -3.7317 H       1  UNL1        0.0236
     91 H          -1.5329   -3.0539   -3.0709 H       1  UNL1        0.0236
     92 H          -3.3084   -5.9792   -0.9395 H       1  UNL1        0.0236
     93 H          -3.1105   -5.7592   -2.7418 H       1  UNL1        0.0236
     94 H          -1.6944   -5.7736   -1.6593 H       1  UNL1        0.0236
     95 H           6.5464    0.7168    2.1965 H       1  UNL1        0.0236
     96 H           5.2884    0.2543    3.4691 H       1  UNL1        0.0236
     97 H           6.2234    1.8468    3.5239 H       1  UNL1        0.0236
     98 H           4.8366    3.2159    3.5586 H       1  UNL1        0.0236
     99 H           3.8441    3.7176    2.1442 H       1  UNL1        0.0236
    100 H           3.1629    2.4674    3.3212 H       1  UNL1        0.0236
    101 H           5.0829    3.4612    0.6496 H       1  UNL1        0.0236
    102 H           5.4213    1.8271   -0.1159 H       1  UNL1        0.0236
    103 H           6.5176    2.5326    1.1034 H       1  UNL1        0.0236
@<TRIPOS>BOND
     1     1     2    1
     2     2     3    1
     3     3     4    2
     4     3     5   am
     5     5     6    1
     6     6     7    1
     7     7     8    2
     8     7     9   am
     9     9    10    1
    10    10    11    1
    11    11    12    1
    12    12    13   ar
    13    13    14   ar
    14    14    15   ar
    15    15    16   ar
    16    16    17   ar
    17    10    18    1
    18    18    19    1
    19    18    20    1
    20    20    21    1
    21    21    22    1
    22    22    23    1
    23    23    24   ar
    24    24    25   ar
    25    25    26   ar
    26    26    27    1
    27    27    28   ar
    28    28    29   ar
    29    29    30   ar
    30    30    31   ar
    31    31    32   ar
    32    26    33   ar
    33    33    34   ar
    34    21    35    1
    35    35    36   am
    36    36    37    2
    37    36    38    1
    38    38    39    1
    39    39    40   am
    40    40    41    2
    41    40    42    1
    42    42    43    1
    43    38    44    1
    44    44    45    1
    45    44    46    1
    46    44    47    1
    47     6    48    1
    48    48    49    1
    49    48    50    1
    50    48    51    1
    51    17    12   ar
    52    34    23   ar
    53    32    27   ar
    54     1    52    1
    55     1    53    1
    56     1    54    1
    57     5    55    1
    58     6    56    1
    59     9    57    1
    60    10    58    1
    61    11    59    1
    62    11    60    1
    63    13    61    1
    64    14    62    1
    65    15    63    1
    66    16    64    1
    67    17    65    1
    68    18    66    1
    69    19    67    1
    70    20    68    1
    71    20    69    1
    72    22    70    1
    73    22    71    1
    74    24    72    1
    75    25    73    1
    76    28    74    1
    77    29    75    1
    78    30    76    1
    79    31    77    1
    80    33    78    1
    81    34    79    1
    82    35    80    1
    83    38    81    1
    84    39    82    1
    85    43    83    1
    86    43    84    1
    87    43    85    1
    88    45    86    1
    89    45    87    1
    90    45    88    1
    91    46    89    1
    92    46    90    1
    93    46    91    1
    94    47    92    1
    95    47    93    1
    96    47    94    1
    97    49    95    1
    98    49    96    1
    99    49    97    1
   100    50    98    1
   101    50    99    1
   102    50   100    1
   103    51   101    1
   104    51   102    1
   105    51   103    1
