@<TRIPOS>MOLECULE
*****
 55 54 0 0 0
SMALL
GASTEIGER

@<TRIPOS>ATOM
      1 C           5.3006   -2.8564   -0.0956 C.3     1  UNK1        0.1037
      2 N           5.0606   -4.0986   -0.7611 N.3     1  UNK1       -0.3184
      3 C           4.3335   -1.7584   -0.4286 C.3     1  UNK1       -0.0190
      4 C           2.9032   -2.1094   -0.0795 C.3     1  UNK1        0.0249
      5 C           2.0521   -0.9272   -0.4651 C.2     1  UNK1        0.1832
      6 O           2.1451   -0.6375   -1.8203 O.2     1  UNK1       -0.4956
      7 N           1.3092   -0.2323    0.3224 N.2     1  UNK1       -0.2411
      8 C           0.4997    0.8892   -0.0342 C.3     1  UNK1        0.1378
      9 C          -0.6832    0.9061    0.9245 C.3     1  UNK1        0.0248
     10 S          -1.5800   -0.6435    0.7243 S.3     1  UNK1       -0.1581
     11 C          -2.3040   -0.6766   -0.9456 C.3     1  UNK1       -0.0062
     12 C          -3.3492    0.4067   -1.0218 C.3     1  UNK1       -0.0440
     13 C          -4.4298    0.2195   -0.0161 C.3     1  UNK1       -0.0523
     14 C          -5.1211   -1.0953   -0.2411 C.3     1  UNK1       -0.0533
     15 C          -6.2177   -1.1982    0.8204 C.3     1  UNK1       -0.0559
     16 C          -7.1380   -0.0211    0.5941 C.3     1  UNK1       -0.0653
     17 C           1.2500    2.1795    0.0425 C.2     1  UNK1        0.2092
     18 O           2.3778    2.3533   -0.7455 O.2     1  UNK1       -0.4942
     19 N           0.8506    3.1089    0.8288 N.2     2  GLY2       -0.2416
     20 CA          1.4851    4.3881    0.9898 C.3     2  GLY2        0.1398
     21 C           1.7786    5.0460   -0.3029 C.2     2  GLY2        0.3264
     22 O           1.5899    4.7297   -1.6532 O.3     2  GLY2       -0.4793
     23 OXT         2.3359    6.1641   -0.0714 O.2     2  GLY2       -0.2489
     24 C           5.3696   -3.0848    1.3692 C.2     1  UNK1        0.3217
     25 O           5.5897   -2.0961    2.3035 O.3     1  UNK1       -0.4795
     26 O           5.2260   -4.2334    1.8574 O.2     1  UNK1       -0.2493
     27 H           6.3028   -2.4903   -0.4253 H       1  UNK1        0.0574
     28 H           4.4325   -4.7578   -0.2949 H       1  UNK1        0.1190
     29 H           5.8645   -4.4976   -1.2762 H       1  UNK1        0.1190
     30 H           4.4226   -1.4467   -1.4699 H       1  UNK1        0.0290
     31 H           4.6182   -0.8881    0.2047 H       1  UNK1        0.0290
     32 H           2.6054   -2.9564   -0.7307 H       1  UNK1        0.0360
     33 H           2.7752   -2.3661    0.9711 H       1  UNK1        0.0360
     34 H           1.4871   -0.0438   -2.2949 H       1  UNK1        0.2934
     35 H           0.1075    0.7783   -1.0548 H       1  UNK1        0.0651
     36 H          -0.2473    0.9843    1.9442 H       1  UNK1        0.0402
     37 H          -1.3982    1.7250    0.7086 H       1  UNK1        0.0402
     38 H          -1.5257   -0.3908   -1.7062 H       1  UNK1        0.0376
     39 H          -2.7076   -1.6606   -1.1690 H       1  UNK1        0.0376
     40 H          -3.7548    0.4193   -2.0646 H       1  UNK1        0.0273
     41 H          -2.8071    1.3842   -0.8618 H       1  UNK1        0.0273
     42 H          -5.1366    1.0804   -0.0927 H       1  UNK1        0.0266
     43 H          -4.0749    0.2187    1.0258 H       1  UNK1        0.0266
     44 H          -5.5444   -1.1335   -1.2454 H       1  UNK1        0.0265
     45 H          -4.3658   -1.9047   -0.0732 H       1  UNK1        0.0265
     46 H          -5.7889   -1.1463    1.8237 H       1  UNK1        0.0263
     47 H          -6.7831   -2.1267    0.6931 H       1  UNK1        0.0263
     48 H          -8.1483   -0.3093    0.9811 H       1  UNK1        0.0230
     49 H          -7.2104    0.1582   -0.4801 H       1  UNK1        0.0230
     50 H          -6.7606    0.8726    1.1213 H       1  UNK1        0.0230
     51 H           3.1711    2.8897   -0.3628 H       1  UNK1        0.2935
     52 HA1         0.7862    5.0786    1.5376 H       2  GLY2        0.0625
     53 HA2         2.4001    4.3425    1.6213 H       2  GLY2        0.0625
     54 H           1.5295    5.4824   -2.3047 H       2  GLY2        0.2951
     55 H           5.1168   -2.0178    3.1798 H       1  UNK1        0.2951
@<TRIPOS>BOND
     1     1     2    1
     2     1     3    1
     3     3     4    1
     4     4     5    1
     5     5     6    1
     6     5     7    2
     7     7     8    1
     8     8     9    1
     9     9    10    1
    10    10    11    1
    11    11    12    1
    12    12    13    1
    13    13    14    1
    14    14    15    1
    15    15    16    1
    16     8    17    1
    17    17    18    1
    18    17    19    2
    19    19    20    1
    20    20    21    1
    21    21    22    1
    22    21    23    2
    23     1    24    1
    24    24    25    1
    25    24    26    2
    26     1    27    1
    27     2    28    1
    28     2    29    1
    29     3    30    1
    30     3    31    1
    31     4    32    1
    32     4    33    1
    33     6    34    1
    34     8    35    1
    35     9    36    1
    36     9    37    1
    37    11    38    1
    38    11    39    1
    39    12    40    1
    40    12    41    1
    41    13    42    1
    42    13    43    1
    43    14    44    1
    44    14    45    1
    45    15    46    1
    46    15    47    1
    47    16    48    1
    48    16    49    1
    49    16    50    1
    50    18    51    1
    51    20    52    1
    52    20    53    1
    53    22    54    1
    54    25    55    1
