@<TRIPOS>MOLECULE
*****
 67 71 0 0 0
SMALL
GASTEIGER

@<TRIPOS>ATOM
      1 C          10.1162    0.8951   -1.8708 C.3     1  UNL1       -0.0158
      2 N           9.7281    2.0345   -1.1258 N.3     1  UNL1       -0.3189
      3 C           8.3507    2.2511   -0.8998 C.3     1  UNL1       -0.0030
      4 C           7.6340    1.3610    0.0316 C.3     1  UNL1       -0.0248
      5 C           7.6324   -0.0852   -0.3462 C.3     1  UNL1        0.0144
      6 N           6.8734   -0.8863    0.6067 N.pl3   1  UNL1       -0.2975
      7 C           5.4818   -0.6025    0.8187 C.ar    1  UNL1        0.3081
      8 N           4.9625    0.2588    1.7169 N.ar    1  UNL1       -0.0924
      9 N           3.6606    0.1974    1.5624 N.ar    1  UNL1       -0.1058
     10 C           3.3161   -0.6510    0.6199 C.ar    1  UNL1        0.2518
     11 C           2.0527   -1.0999    0.0486 C.ar    1  UNL1        0.0621
     12 C           1.8973   -2.0013   -0.9714 C.ar    1  UNL1        0.0425
     13 N           0.5907   -2.1559   -1.2127 N.ar    1  UNL1       -0.2341
     14 N          -0.0541   -2.9149   -2.0824 N.ar    1  UNL1       -0.1548
     15 C          -1.3796   -2.9347   -2.1613 C.ar    1  UNL1        0.1388
     16 N          -2.1066   -2.1769   -1.3539 N.ar    1  UNL1       -0.2167
     17 C          -1.5041   -1.3657   -0.4294 C.ar    1  UNL1        0.1507
     18 N          -2.3206   -0.5738    0.3800 N.pl3   1  UNL1       -0.2954
     19 C          -3.7295   -0.9175    0.4058 C.ar    1  UNL1        0.0690
     20 C          -4.6636   -0.0077    0.0069 C.ar    1  UNL1       -0.0228
     21 C          -6.0422   -0.2952    0.0166 C.ar    1  UNL1        0.0737
     22 C          -6.9681    0.7324   -0.4424 C.2     1  UNL1        0.2471
     23 O          -6.5143    1.9039   -0.6534 O.2     1  UNL1       -0.2701
     24 N          -8.3452    0.5687   -0.6865 N.am    1  UNL1       -0.3084
     25 C          -9.1664    1.6878   -1.1440 C.3     1  UNL1        0.0235
     26 C         -10.3699    1.4136   -1.9773 C.3     1  UNL1       -0.0328
     27 C         -10.5263    1.8703   -0.5708 C.3     1  UNL1       -0.0328
     28 C          -6.4693   -1.5251    0.4388 C.ar    1  UNL1        0.1383
     29 F          -7.8003   -1.8809    0.4902 F       1  UNL1       -0.2046
     30 C          -5.5228   -2.4561    0.8462 C.ar    1  UNL1        0.0114
     31 C          -4.1900   -2.1430    0.8236 C.ar    1  UNL1        0.1472
     32 F          -3.2270   -3.0392    1.2199 F       1  UNL1       -0.2035
     33 C          -0.1413   -1.3571   -0.3562 C.ar    1  UNL1        0.1095
     34 C           0.7695   -0.6785    0.4568 C.ar    1  UNL1       -0.0023
     35 C           0.4646    0.2668    1.5462 C.3     1  UNL1       -0.0186
     36 C           0.1191    1.6572    1.1237 C.3     1  UNL1       -0.0586
     37 C          -0.2959   -0.3010    2.7059 C.3     1  UNL1       -0.0586
     38 O           4.4797   -1.1346    0.1738 O.2     1  UNL1       -0.4048
     39 H          10.8320    1.1824   -2.7195 H       1  UNL1        0.0388
     40 H          10.6708    0.1246   -1.2984 H       1  UNL1        0.0388
     41 H           9.2538    0.4084   -2.3555 H       1  UNL1        0.0388
     42 H          10.3475    2.3019   -0.3417 H       1  UNL1        0.1216
     43 H           7.8358    2.2124   -1.9200 H       1  UNL1        0.0424
     44 H           8.2449    3.3110   -0.5083 H       1  UNL1        0.0424
     45 H           6.5662    1.7400    0.0958 H       1  UNL1        0.0293
     46 H           8.0685    1.4988    1.0597 H       1  UNL1        0.0293
     47 H           8.6802   -0.4975   -0.2866 H       1  UNL1        0.0463
     48 H           7.2037   -0.2699   -1.3422 H       1  UNL1        0.0463
     49 H           7.3303   -1.6495    1.1241 H       1  UNL1        0.1504
     50 H           2.6881   -2.5033   -1.4936 H       1  UNL1        0.0838
     51 H          -1.8344   -3.5914   -2.9083 H       1  UNL1        0.1066
     52 H          -2.1178    0.2417    0.9442 H       1  UNL1        0.1537
     53 H          -4.3607    0.9673   -0.3310 H       1  UNL1        0.0645
     54 H          -8.7791   -0.3558   -0.5492 H       1  UNL1        0.1493
     55 H          -8.6186    2.6359   -1.3179 H       1  UNL1        0.0498
     56 H         -10.6115    0.3588   -2.2567 H       1  UNL1        0.0284
     57 H         -10.6162    2.1245   -2.8033 H       1  UNL1        0.0284
     58 H         -10.9177    1.1378    0.1769 H       1  UNL1        0.0284
     59 H         -10.9069    2.8953   -0.3993 H       1  UNL1        0.0284
     60 H          -5.8712   -3.4131    1.1732 H       1  UNL1        0.0676
     61 H           1.5111    0.4349    2.0347 H       1  UNL1        0.0344
     62 H          -0.3922    1.6844    0.1177 H       1  UNL1        0.0235
     63 H           0.9810    2.3443    1.0063 H       1  UNL1        0.0235
     64 H          -0.5446    2.1340    1.8917 H       1  UNL1        0.0235
     65 H           0.3401   -0.4769    3.6258 H       1  UNL1        0.0235
     66 H          -1.0553    0.4256    3.0587 H       1  UNL1        0.0235
     67 H          -0.7202   -1.3214    2.5096 H       1  UNL1        0.0235
@<TRIPOS>BOND
     1     1     2    1
     2     2     3    1
     3     3     4    1
     4     4     5    1
     5     5     6    1
     6     6     7    1
     7     7     8   ar
     8     8     9   ar
     9     9    10   ar
    10    10    11    1
    11    11    12   ar
    12    12    13   ar
    13    13    14   ar
    14    14    15   ar
    15    15    16   ar
    16    16    17   ar
    17    17    18    1
    18    18    19    1
    19    19    20   ar
    20    20    21   ar
    21    21    22    1
    22    22    23    2
    23    22    24   am
    24    24    25    1
    25    25    26    1
    26    26    27    1
    27    21    28   ar
    28    28    29    1
    29    28    30   ar
    30    30    31   ar
    31    31    32    1
    32    17    33   ar
    33    33    34   ar
    34    34    35    1
    35    35    36    1
    36    35    37    1
    37    10    38   ar
    38    38     7   ar
    39    34    11   ar
    40    33    13   ar
    41    31    19   ar
    42    27    25    1
    43     1    39    1
    44     1    40    1
    45     1    41    1
    46     2    42    1
    47     3    43    1
    48     3    44    1
    49     4    45    1
    50     4    46    1
    51     5    47    1
    52     5    48    1
    53     6    49    1
    54    12    50    1
    55    15    51    1
    56    18    52    1
    57    20    53    1
    58    24    54    1
    59    25    55    1
    60    26    56    1
    61    26    57    1
    62    27    58    1
    63    27    59    1
    64    30    60    1
    65    35    61    1
    66    36    62    1
    67    36    63    1
    68    36    64    1
    69    37    65    1
    70    37    66    1
    71    37    67    1
