
     RDKit          3D

 67 71  0  0  0  0  0  0  0  0999 V2000
   10.1162    0.8951   -1.8708 C   0  0  0  0  0  0  0  0  0  0  0  0
    9.7281    2.0345   -1.1258 N   0  0  0  0  0  0  0  0  0  0  0  0
    8.3507    2.2511   -0.8998 C   0  0  0  0  0  0  0  0  0  0  0  0
    7.6340    1.3610    0.0316 C   0  0  0  0  0  0  0  0  0  0  0  0
    7.6324   -0.0852   -0.3462 C   0  0  0  0  0  0  0  0  0  0  0  0
    6.8734   -0.8863    0.6067 N   0  0  0  0  0  0  0  0  0  0  0  0
    5.4818   -0.6025    0.8187 C   0  0  0  0  0  0  0  0  0  0  0  0
    4.9625    0.2588    1.7169 N   0  0  0  0  0  0  0  0  0  0  0  0
    3.6606    0.1974    1.5624 N   0  0  0  0  0  0  0  0  0  0  0  0
    3.3161   -0.6510    0.6199 C   0  0  0  0  0  0  0  0  0  0  0  0
    2.0527   -1.0999    0.0486 C   0  0  0  0  0  0  0  0  0  0  0  0
    1.8973   -2.0013   -0.9714 C   0  0  0  0  0  0  0  0  0  0  0  0
    0.5907   -2.1559   -1.2127 N   0  0  0  0  0  0  0  0  0  0  0  0
   -0.0541   -2.9149   -2.0824 N   0  0  0  0  0  0  0  0  0  0  0  0
   -1.3796   -2.9347   -2.1613 C   0  0  0  0  0  0  0  0  0  0  0  0
   -2.1066   -2.1769   -1.3539 N   0  0  0  0  0  0  0  0  0  0  0  0
   -1.5041   -1.3657   -0.4294 C   0  0  0  0  0  0  0  0  0  0  0  0
   -2.3206   -0.5738    0.3800 N   0  0  0  0  0  0  0  0  0  0  0  0
   -3.7295   -0.9175    0.4058 C   0  0  0  0  0  0  0  0  0  0  0  0
   -4.6636   -0.0077    0.0069 C   0  0  0  0  0  0  0  0  0  0  0  0
   -6.0422   -0.2952    0.0166 C   0  0  0  0  0  0  0  0  0  0  0  0
   -6.9681    0.7324   -0.4424 C   0  0  0  0  0  0  0  0  0  0  0  0
   -6.5143    1.9039   -0.6534 O   0  0  0  0  0  0  0  0  0  0  0  0
   -8.3452    0.5687   -0.6865 N   0  0  0  0  0  0  0  0  0  0  0  0
   -9.1664    1.6878   -1.1440 C   0  0  0  0  0  0  0  0  0  0  0  0
  -10.3699    1.4136   -1.9773 C   0  0  0  0  0  0  0  0  0  0  0  0
  -10.5263    1.8703   -0.5708 C   0  0  0  0  0  0  0  0  0  0  0  0
   -6.4693   -1.5251    0.4388 C   0  0  0  0  0  0  0  0  0  0  0  0
   -7.8003   -1.8809    0.4902 F   0  0  0  0  0  0  0  0  0  0  0  0
   -5.5228   -2.4561    0.8462 C   0  0  0  0  0  0  0  0  0  0  0  0
   -4.1900   -2.1430    0.8236 C   0  0  0  0  0  0  0  0  0  0  0  0
   -3.2270   -3.0392    1.2199 F   0  0  0  0  0  0  0  0  0  0  0  0
   -0.1413   -1.3571   -0.3562 C   0  0  0  0  0  0  0  0  0  0  0  0
    0.7695   -0.6785    0.4568 C   0  0  0  0  0  0  0  0  0  0  0  0
    0.4646    0.2668    1.5462 C   0  0  0  0  0  0  0  0  0  0  0  0
    0.1191    1.6572    1.1237 C   0  0  0  0  0  0  0  0  0  0  0  0
   -0.2959   -0.3010    2.7059 C   0  0  0  0  0  0  0  0  0  0  0  0
    4.4797   -1.1346    0.1738 O   0  0  0  0  0  0  0  0  0  0  0  0
   10.8320    1.1824   -2.7195 H   0  0  0  0  0  0  0  0  0  0  0  0
   10.6708    0.1246   -1.2984 H   0  0  0  0  0  0  0  0  0  0  0  0
    9.2538    0.4084   -2.3555 H   0  0  0  0  0  0  0  0  0  0  0  0
   10.3475    2.3019   -0.3417 H   0  0  0  0  0  0  0  0  0  0  0  0
    7.8358    2.2124   -1.9200 H   0  0  0  0  0  0  0  0  0  0  0  0
    8.2449    3.3110   -0.5083 H   0  0  0  0  0  0  0  0  0  0  0  0
    6.5662    1.7400    0.0958 H   0  0  0  0  0  0  0  0  0  0  0  0
    8.0685    1.4988    1.0597 H   0  0  0  0  0  0  0  0  0  0  0  0
    8.6802   -0.4975   -0.2866 H   0  0  0  0  0  0  0  0  0  0  0  0
    7.2037   -0.2699   -1.3422 H   0  0  0  0  0  0  0  0  0  0  0  0
    7.3303   -1.6495    1.1241 H   0  0  0  0  0  0  0  0  0  0  0  0
    2.6881   -2.5033   -1.4936 H   0  0  0  0  0  0  0  0  0  0  0  0
   -1.8344   -3.5914   -2.9083 H   0  0  0  0  0  0  0  0  0  0  0  0
   -2.1178    0.2417    0.9442 H   0  0  0  0  0  0  0  0  0  0  0  0
   -4.3607    0.9673   -0.3310 H   0  0  0  0  0  0  0  0  0  0  0  0
   -8.7791   -0.3558   -0.5492 H   0  0  0  0  0  0  0  0  0  0  0  0
   -8.6186    2.6359   -1.3179 H   0  0  0  0  0  0  0  0  0  0  0  0
  -10.6115    0.3588   -2.2567 H   0  0  0  0  0  0  0  0  0  0  0  0
  -10.6162    2.1245   -2.8033 H   0  0  0  0  0  0  0  0  0  0  0  0
  -10.9177    1.1378    0.1769 H   0  0  0  0  0  0  0  0  0  0  0  0
  -10.9069    2.8953   -0.3993 H   0  0  0  0  0  0  0  0  0  0  0  0
   -5.8712   -3.4131    1.1732 H   0  0  0  0  0  0  0  0  0  0  0  0
    1.5111    0.4349    2.0347 H   0  0  0  0  0  0  0  0  0  0  0  0
   -0.3922    1.6844    0.1177 H   0  0  0  0  0  0  0  0  0  0  0  0
    0.9810    2.3443    1.0063 H   0  0  0  0  0  0  0  0  0  0  0  0
   -0.5446    2.1340    1.8917 H   0  0  0  0  0  0  0  0  0  0  0  0
    0.3401   -0.4769    3.6258 H   0  0  0  0  0  0  0  0  0  0  0  0
   -1.0553    0.4256    3.0587 H   0  0  0  0  0  0  0  0  0  0  0  0
   -0.7202   -1.3214    2.5096 H   0  0  0  0  0  0  0  0  0  0  0  0
  1  2  1  0
  2  3  1  0
  3  4  1  0
  4  5  1  0
  5  6  1  0
  6  7  1  0
  7  8  2  0
  8  9  1  0
  9 10  2  0
 10 11  1  0
 11 12  2  0
 12 13  1  0
 13 14  1  0
 14 15  2  0
 15 16  1  0
 16 17  2  0
 17 18  1  0
 18 19  1  0
 19 20  2  0
 20 21  1  0
 21 22  1  0
 22 23  2  0
 22 24  1  0
 24 25  1  0
 25 26  1  0
 26 27  1  0
 21 28  2  0
 28 29  1  0
 28 30  1  0
 30 31  2  0
 31 32  1  0
 17 33  1  0
 33 34  2  0
 34 35  1  0
 35 36  1  0
 35 37  1  0
 10 38  1  0
 38  7  1  0
 34 11  1  0
 33 13  1  0
 31 19  1  0
 27 25  1  0
  1 39  1  0
  1 40  1  0
  1 41  1  0
  2 42  1  0
  3 43  1  0
  3 44  1  0
  4 45  1  0
  4 46  1  0
  5 47  1  0
  5 48  1  0
  6 49  1  0
 12 50  1  0
 15 51  1  0
 18 52  1  0
 20 53  1  0
 24 54  1  0
 25 55  1  0
 26 56  1  0
 26 57  1  0
 27 58  1  0
 27 59  1  0
 30 60  1  0
 35 61  1  0
 36 62  1  0
 36 63  1  0
 36 64  1  0
 37 65  1  0
 37 66  1  0
 37 67  1  0
M  END
$$$$
