@<TRIPOS>MOLECULE
*****
 61 65 0 0 0
SMALL
GASTEIGER

@<TRIPOS>ATOM
      1 C          -4.1399   -0.5729   -2.0034 C.3     1  UNL1       -0.0541
      2 C          -4.3010   -0.6598   -0.4824 C.3     1  UNL1        0.0088
      3 C          -5.6719   -0.2037   -0.0946 C.ar    1  UNL1       -0.0400
      4 C          -6.7636   -1.0429   -0.1820 C.ar    1  UNL1       -0.0580
      5 C          -8.0444   -0.6301    0.1911 C.ar    1  UNL1       -0.0615
      6 C          -8.2725    0.6412    0.6646 C.ar    1  UNL1       -0.0617
      7 C          -7.1967    1.4925    0.7584 C.ar    1  UNL1       -0.0615
      8 C          -5.9220    1.0725    0.3843 C.ar    1  UNL1       -0.0580
      9 C          -4.0416   -2.0768   -0.0717 C.3     1  UNL1       -0.0408
     10 C          -3.0433   -2.0748    1.0837 C.3     1  UNL1       -0.0363
     11 C          -1.7394   -1.5649    0.4696 C.3     1  UNL1        0.0162
     12 N          -1.9523   -0.1744    0.1312 N.am    1  UNL1       -0.2848
     13 C          -0.8458    0.6507   -0.1499 C.2     1  UNL1        0.3025
     14 O           0.3521    0.1782   -0.1159 O.2     1  UNL1       -0.2526
     15 N          -0.8993    2.0261   -0.4867 N.am    1  UNL1       -0.2951
     16 C           0.2691    2.8339   -0.7690 C.3     1  UNL1        0.0383
     17 C           1.5442    2.1162   -0.6836 C.ar    1  UNL1       -0.0302
     18 C           2.2785    2.0315    0.5036 C.ar    1  UNL1       -0.0565
     19 C           3.4751    1.3566    0.5594 C.ar    1  UNL1       -0.0537
     20 C           4.0122    0.7303   -0.5471 C.ar    1  UNL1       -0.0178
     21 C           5.2837    0.0238   -0.4506 C.ar    1  UNL1       -0.0172
     22 C           5.5818   -1.0839   -1.2215 C.ar    1  UNL1       -0.0521
     23 C           6.7827   -1.7574   -1.1354 C.ar    1  UNL1       -0.0372
     24 C           7.7446   -1.3137   -0.2387 C.ar    1  UNL1        0.0465
     25 N           8.9744   -1.7833    0.0349 N.ar    1  UNL1       -0.3606
     26 C           9.4901   -0.9891    0.9843 C.ar    1  UNL1        0.0027
     27 C           8.5974   -0.0024    1.3297 C.ar    1  UNL1       -0.0366
     28 C           7.4743   -0.1997    0.5525 C.ar    1  UNL1        0.0002
     29 C           6.2584    0.4414    0.4312 C.ar    1  UNL1       -0.0449
     30 C           3.2934    0.8102   -1.7199 C.ar    1  UNL1       -0.0537
     31 C           2.0903    1.4849   -1.7899 C.ar    1  UNL1       -0.0565
     32 C          -3.2822    0.3146    0.0946 C.3     1  UNL1        0.0255
     33 H          -3.1281   -0.2039   -2.2726 H       1  UNL1        0.0239
     34 H          -4.2564   -1.5716   -2.4729 H       1  UNL1        0.0239
     35 H          -4.9114    0.0807   -2.4525 H       1  UNL1        0.0239
     36 H          -6.6281   -2.0621   -0.5650 H       1  UNL1        0.0620
     37 H          -8.8834   -1.3033    0.1149 H       1  UNL1        0.0618
     38 H          -9.2724    0.9772    0.9605 H       1  UNL1        0.0618
     39 H          -7.3291    2.4955    1.1231 H       1  UNL1        0.0618
     40 H          -5.0724    1.7462    0.4593 H       1  UNL1        0.0620
     41 H          -3.5565   -2.6580   -0.8977 H       1  UNL1        0.0275
     42 H          -4.9463   -2.5688    0.3042 H       1  UNL1        0.0275
     43 H          -2.8949   -3.0688    1.5137 H       1  UNL1        0.0281
     44 H          -3.3695   -1.3925    1.8767 H       1  UNL1        0.0281
     45 H          -1.5396   -2.1043   -0.4693 H       1  UNL1        0.0465
     46 H          -0.9373   -1.6938    1.2144 H       1  UNL1        0.0465
     47 H          -1.8446    2.4823   -0.5310 H       1  UNL1        0.1506
     48 H           0.2850    3.6506    0.0110 H       1  UNL1        0.0512
     49 H           0.1222    3.3337   -1.7463 H       1  UNL1        0.0512
     50 H           1.8553    2.5235    1.3702 H       1  UNL1        0.0621
     51 H           4.0446    1.2950    1.4943 H       1  UNL1        0.0624
     52 H           4.8390   -1.4309   -1.9175 H       1  UNL1        0.0624
     53 H           7.0102   -2.6260   -1.7434 H       1  UNL1        0.0638
     54 H           9.4710   -2.6072   -0.3888 H       1  UNL1        0.1653
     55 H          10.4848   -1.0933    1.4377 H       1  UNL1        0.0807
     56 H           8.6875    0.8010    2.0553 H       1  UNL1        0.0638
     57 H           6.0745    1.2945    1.0495 H       1  UNL1        0.0630
     58 H           3.7329    0.3097   -2.5836 H       1  UNL1        0.0624
     59 H           1.5614    1.5208   -2.7323 H       1  UNL1        0.0621
     60 H          -3.5837    0.5521    1.1350 H       1  UNL1        0.0474
     61 H          -3.4011    1.2469   -0.5008 H       1  UNL1        0.0474
@<TRIPOS>BOND
     1     1     2    1
     2     2     3    1
     3     3     4   ar
     4     4     5   ar
     5     5     6   ar
     6     6     7   ar
     7     7     8   ar
     8     2     9    1
     9     9    10    1
    10    10    11    1
    11    11    12    1
    12    12    13   am
    13    13    14    2
    14    13    15   am
    15    15    16    1
    16    16    17    1
    17    17    18   ar
    18    18    19   ar
    19    19    20   ar
    20    20    21    1
    21    21    22   ar
    22    22    23   ar
    23    23    24   ar
    24    24    25   ar
    25    25    26   ar
    26    26    27   ar
    27    27    28   ar
    28    28    29   ar
    29    20    30   ar
    30    30    31   ar
    31    12    32    1
    32    32     2    1
    33     8     3   ar
    34    31    17   ar
    35    29    21   ar
    36    28    24   ar
    37     1    33    1
    38     1    34    1
    39     1    35    1
    40     4    36    1
    41     5    37    1
    42     6    38    1
    43     7    39    1
    44     8    40    1
    45     9    41    1
    46     9    42    1
    47    10    43    1
    48    10    44    1
    49    11    45    1
    50    11    46    1
    51    15    47    1
    52    16    48    1
    53    16    49    1
    54    18    50    1
    55    19    51    1
    56    22    52    1
    57    23    53    1
    58    25    54    1
    59    26    55    1
    60    27    56    1
    61    29    57    1
    62    30    58    1
    63    31    59    1
    64    32    60    1
    65    32    61    1
