
     RDKit          3D

 61 65  0  0  0  0  0  0  0  0999 V2000
   -4.1399   -0.5729   -2.0034 C   0  0  0  0  0  0  0  0  0  0  0  0
   -4.3010   -0.6598   -0.4824 C   0  0  0  0  0  0  0  0  0  0  0  0
   -5.6719   -0.2037   -0.0946 C   0  0  0  0  0  0  0  0  0  0  0  0
   -6.7636   -1.0429   -0.1820 C   0  0  0  0  0  0  0  0  0  0  0  0
   -8.0444   -0.6301    0.1911 C   0  0  0  0  0  0  0  0  0  0  0  0
   -8.2725    0.6412    0.6646 C   0  0  0  0  0  0  0  0  0  0  0  0
   -7.1967    1.4925    0.7584 C   0  0  0  0  0  0  0  0  0  0  0  0
   -5.9220    1.0725    0.3843 C   0  0  0  0  0  0  0  0  0  0  0  0
   -4.0416   -2.0768   -0.0717 C   0  0  0  0  0  0  0  0  0  0  0  0
   -3.0433   -2.0748    1.0837 C   0  0  0  0  0  0  0  0  0  0  0  0
   -1.7394   -1.5649    0.4696 C   0  0  0  0  0  0  0  0  0  0  0  0
   -1.9523   -0.1744    0.1312 N   0  0  0  0  0  0  0  0  0  0  0  0
   -0.8458    0.6507   -0.1499 C   0  0  0  0  0  0  0  0  0  0  0  0
    0.3521    0.1782   -0.1159 O   0  0  0  0  0  0  0  0  0  0  0  0
   -0.8993    2.0261   -0.4867 N   0  0  0  0  0  0  0  0  0  0  0  0
    0.2691    2.8339   -0.7690 C   0  0  0  0  0  0  0  0  0  0  0  0
    1.5442    2.1162   -0.6836 C   0  0  0  0  0  0  0  0  0  0  0  0
    2.2785    2.0315    0.5036 C   0  0  0  0  0  0  0  0  0  0  0  0
    3.4751    1.3566    0.5594 C   0  0  0  0  0  0  0  0  0  0  0  0
    4.0122    0.7303   -0.5471 C   0  0  0  0  0  0  0  0  0  0  0  0
    5.2837    0.0238   -0.4506 C   0  0  0  0  0  0  0  0  0  0  0  0
    5.5818   -1.0839   -1.2215 C   0  0  0  0  0  0  0  0  0  0  0  0
    6.7827   -1.7574   -1.1354 C   0  0  0  0  0  0  0  0  0  0  0  0
    7.7446   -1.3137   -0.2387 C   0  0  0  0  0  0  0  0  0  0  0  0
    8.9744   -1.7833    0.0349 N   0  0  0  0  0  0  0  0  0  0  0  0
    9.4901   -0.9891    0.9843 C   0  0  0  0  0  0  0  0  0  0  0  0
    8.5974   -0.0024    1.3297 C   0  0  0  0  0  0  0  0  0  0  0  0
    7.4743   -0.1997    0.5525 C   0  0  0  0  0  0  0  0  0  0  0  0
    6.2584    0.4414    0.4312 C   0  0  0  0  0  0  0  0  0  0  0  0
    3.2934    0.8102   -1.7199 C   0  0  0  0  0  0  0  0  0  0  0  0
    2.0903    1.4849   -1.7899 C   0  0  0  0  0  0  0  0  0  0  0  0
   -3.2822    0.3146    0.0946 C   0  0  0  0  0  0  0  0  0  0  0  0
   -3.1281   -0.2039   -2.2726 H   0  0  0  0  0  0  0  0  0  0  0  0
   -4.2564   -1.5716   -2.4729 H   0  0  0  0  0  0  0  0  0  0  0  0
   -4.9114    0.0807   -2.4525 H   0  0  0  0  0  0  0  0  0  0  0  0
   -6.6281   -2.0621   -0.5650 H   0  0  0  0  0  0  0  0  0  0  0  0
   -8.8834   -1.3033    0.1149 H   0  0  0  0  0  0  0  0  0  0  0  0
   -9.2724    0.9772    0.9605 H   0  0  0  0  0  0  0  0  0  0  0  0
   -7.3291    2.4955    1.1231 H   0  0  0  0  0  0  0  0  0  0  0  0
   -5.0724    1.7462    0.4593 H   0  0  0  0  0  0  0  0  0  0  0  0
   -3.5565   -2.6580   -0.8977 H   0  0  0  0  0  0  0  0  0  0  0  0
   -4.9463   -2.5688    0.3042 H   0  0  0  0  0  0  0  0  0  0  0  0
   -2.8949   -3.0688    1.5137 H   0  0  0  0  0  0  0  0  0  0  0  0
   -3.3695   -1.3925    1.8767 H   0  0  0  0  0  0  0  0  0  0  0  0
   -1.5396   -2.1043   -0.4693 H   0  0  0  0  0  0  0  0  0  0  0  0
   -0.9373   -1.6938    1.2144 H   0  0  0  0  0  0  0  0  0  0  0  0
   -1.8446    2.4823   -0.5310 H   0  0  0  0  0  0  0  0  0  0  0  0
    0.2850    3.6506    0.0110 H   0  0  0  0  0  0  0  0  0  0  0  0
    0.1222    3.3337   -1.7463 H   0  0  0  0  0  0  0  0  0  0  0  0
    1.8553    2.5235    1.3702 H   0  0  0  0  0  0  0  0  0  0  0  0
    4.0446    1.2950    1.4943 H   0  0  0  0  0  0  0  0  0  0  0  0
    4.8390   -1.4309   -1.9175 H   0  0  0  0  0  0  0  0  0  0  0  0
    7.0102   -2.6260   -1.7434 H   0  0  0  0  0  0  0  0  0  0  0  0
    9.4710   -2.6072   -0.3888 H   0  0  0  0  0  0  0  0  0  0  0  0
   10.4848   -1.0933    1.4377 H   0  0  0  0  0  0  0  0  0  0  0  0
    8.6875    0.8010    2.0553 H   0  0  0  0  0  0  0  0  0  0  0  0
    6.0745    1.2945    1.0495 H   0  0  0  0  0  0  0  0  0  0  0  0
    3.7329    0.3097   -2.5836 H   0  0  0  0  0  0  0  0  0  0  0  0
    1.5614    1.5208   -2.7323 H   0  0  0  0  0  0  0  0  0  0  0  0
   -3.5837    0.5521    1.1350 H   0  0  0  0  0  0  0  0  0  0  0  0
   -3.4011    1.2469   -0.5008 H   0  0  0  0  0  0  0  0  0  0  0  0
  1  2  1  0
  2  3  1  0
  3  4  2  0
  4  5  1  0
  5  6  2  0
  6  7  1  0
  7  8  2  0
  2  9  1  0
  9 10  1  0
 10 11  1  0
 11 12  1  0
 12 13  1  0
 13 14  2  0
 13 15  1  0
 15 16  1  0
 16 17  1  0
 17 18  2  0
 18 19  1  0
 19 20  2  0
 20 21  1  0
 21 22  2  0
 22 23  1  0
 23 24  2  0
 24 25  1  0
 25 26  1  0
 26 27  2  0
 27 28  1  0
 28 29  2  0
 20 30  1  0
 30 31  2  0
 12 32  1  0
 32  2  1  0
  8  3  1  0
 31 17  1  0
 29 21  1  0
 28 24  1  0
  1 33  1  0
  1 34  1  0
  1 35  1  0
  4 36  1  0
  5 37  1  0
  6 38  1  0
  7 39  1  0
  8 40  1  0
  9 41  1  0
  9 42  1  0
 10 43  1  0
 10 44  1  0
 11 45  1  0
 11 46  1  0
 15 47  1  0
 16 48  1  0
 16 49  1  0
 18 50  1  0
 19 51  1  0
 22 52  1  0
 23 53  1  0
 25 54  1  0
 26 55  1  0
 27 56  1  0
 29 57  1  0
 30 58  1  0
 31 59  1  0
 32 60  1  0
 32 61  1  0
M  END
$$$$
