@<TRIPOS>MOLECULE
*****
 44 47 0 0 0
SMALL
GASTEIGER

@<TRIPOS>ATOM
      1 F          -6.7365    0.7152   -2.1933 F       1  UNL1       -0.2055
      2 C          -5.4979    0.4971   -1.7031 C.ar    1  UNL1        0.1234
      3 C          -5.1605    0.8806   -0.4429 C.ar    1  UNL1       -0.0262
      4 C          -3.8926    0.6538    0.0502 C.ar    1  UNL1       -0.0556
      5 C          -2.9027    0.0487   -0.6525 C.ar    1  UNL1       -0.0436
      6 C          -3.3066   -0.3243   -1.9429 C.ar    1  UNL1       -0.0556
      7 C          -4.5587   -0.1202   -2.4808 C.ar    1  UNL1       -0.0262
      8 C          -1.5220   -0.2479   -0.2069 C.3     1  UNL1       -0.0076
      9 C          -1.4338   -1.5697    0.5279 C.3     1  UNL1       -0.0332
     10 C          -2.2670   -1.4590    1.7736 C.3     1  UNL1       -0.0035
     11 N          -1.8681   -0.3785    2.6178 N.3     1  UNL1       -0.3156
     12 C          -0.8025    0.4238    2.0976 C.3     1  UNL1        0.0024
     13 C          -0.8960    0.7872    0.6567 C.3     1  UNL1        0.0125
     14 C           0.5329    1.0143    0.1411 C.3     1  UNL1        0.0941
     15 O           1.2951   -0.1602    0.1946 O.3     1  UNL1       -0.4915
     16 C           2.6173   -0.2539   -0.2055 C.ar    1  UNL1        0.1242
     17 C           3.2891    0.8536   -0.7015 C.ar    1  UNL1        0.0256
     18 C           4.6012    0.7533   -1.0966 C.ar    1  UNL1        0.1697
     19 C           5.2385   -0.4628   -0.9926 C.ar    1  UNL1        0.1665
     20 O           6.5297   -0.2858   -1.4513 O.3     1  UNL1       -0.4526
     21 C           6.8019    1.0826   -1.5285 C.3     1  UNL1        0.2332
     22 O           5.5111    1.6592   -1.6178 O.3     1  UNL1       -0.4525
     23 C           4.5540   -1.5410   -0.4999 C.ar    1  UNL1       -0.0127
     24 C           3.2385   -1.4828   -0.0931 C.ar    1  UNL1       -0.0162
     25 H          -5.9151    1.3711    0.1681 H       1  UNL1        0.0646
     26 H          -3.6944    0.9886    1.0429 H       1  UNL1        0.0621
     27 H          -2.5740   -0.8244   -2.5966 H       1  UNL1        0.0621
     28 H          -4.7689   -0.4470   -3.4897 H       1  UNL1        0.0646
     29 H          -0.9063   -0.3951   -1.1419 H       1  UNL1        0.0353
     30 H          -0.3594   -1.7273    0.7850 H       1  UNL1        0.0283
     31 H          -1.7672   -2.4169   -0.0911 H       1  UNL1        0.0283
     32 H          -2.2672   -2.4443    2.3030 H       1  UNL1        0.0424
     33 H          -3.3208   -1.3067    1.4743 H       1  UNL1        0.0424
     34 H          -2.6063    0.1254    3.1156 H       1  UNL1        0.1219
     35 H          -0.7807    1.3591    2.7124 H       1  UNL1        0.0428
     36 H           0.1464   -0.1002    2.3612 H       1  UNL1        0.0428
     37 H          -1.3776    1.7989    0.5393 H       1  UNL1        0.0352
     38 H           0.5474    1.4093   -0.8829 H       1  UNL1        0.0700
     39 H           1.0742    1.7670    0.7585 H       1  UNL1        0.0700
     40 H           2.7334    1.7803   -0.7583 H       1  UNL1        0.0692
     41 H           7.3626    1.4456   -0.6424 H       1  UNL1        0.1166
     42 H           7.3362    1.3312   -2.4870 H       1  UNL1        0.1166
     43 H           5.0850   -2.4814   -0.4317 H       1  UNL1        0.0656
     44 H           2.6883   -2.3167    0.2946 H       1  UNL1        0.0655
@<TRIPOS>BOND
     1     1     2    1
     2     2     3   ar
     3     3     4   ar
     4     4     5   ar
     5     5     6   ar
     6     6     7   ar
     7     5     8    1
     8     8     9    1
     9     9    10    1
    10    10    11    1
    11    11    12    1
    12    12    13    1
    13    13    14    1
    14    14    15    1
    15    15    16    1
    16    16    17   ar
    17    17    18   ar
    18    18    19   ar
    19    19    20    1
    20    20    21    1
    21    21    22    1
    22    19    23   ar
    23    23    24   ar
    24     7     2   ar
    25    13     8    1
    26    24    16   ar
    27    22    18    1
    28     3    25    1
    29     4    26    1
    30     6    27    1
    31     7    28    1
    32     8    29    1
    33     9    30    1
    34     9    31    1
    35    10    32    1
    36    10    33    1
    37    11    34    1
    38    12    35    1
    39    12    36    1
    40    13    37    1
    41    14    38    1
    42    14    39    1
    43    17    40    1
    44    21    41    1
    45    21    42    1
    46    23    43    1
    47    24    44    1
