
     RDKit          3D

 44 47  0  0  0  0  0  0  0  0999 V2000
   -6.7365    0.7152   -2.1933 F   0  0  0  0  0  0  0  0  0  0  0  0
   -5.4979    0.4971   -1.7031 C   0  0  0  0  0  0  0  0  0  0  0  0
   -5.1605    0.8806   -0.4429 C   0  0  0  0  0  0  0  0  0  0  0  0
   -3.8926    0.6538    0.0502 C   0  0  0  0  0  0  0  0  0  0  0  0
   -2.9027    0.0487   -0.6525 C   0  0  0  0  0  0  0  0  0  0  0  0
   -3.3066   -0.3243   -1.9429 C   0  0  0  0  0  0  0  0  0  0  0  0
   -4.5587   -0.1202   -2.4808 C   0  0  0  0  0  0  0  0  0  0  0  0
   -1.5220   -0.2479   -0.2069 C   0  0  2  0  0  0  0  0  0  0  0  0
   -1.4338   -1.5697    0.5279 C   0  0  0  0  0  0  0  0  0  0  0  0
   -2.2670   -1.4590    1.7736 C   0  0  0  0  0  0  0  0  0  0  0  0
   -1.8681   -0.3785    2.6178 N   0  0  0  0  0  0  0  0  0  0  0  0
   -0.8025    0.4238    2.0976 C   0  0  0  0  0  0  0  0  0  0  0  0
   -0.8960    0.7872    0.6567 C   0  0  1  0  0  0  0  0  0  0  0  0
    0.5329    1.0143    0.1411 C   0  0  0  0  0  0  0  0  0  0  0  0
    1.2951   -0.1602    0.1946 O   0  0  0  0  0  0  0  0  0  0  0  0
    2.6173   -0.2539   -0.2055 C   0  0  0  0  0  0  0  0  0  0  0  0
    3.2891    0.8536   -0.7015 C   0  0  0  0  0  0  0  0  0  0  0  0
    4.6012    0.7533   -1.0966 C   0  0  0  0  0  0  0  0  0  0  0  0
    5.2385   -0.4628   -0.9926 C   0  0  0  0  0  0  0  0  0  0  0  0
    6.5297   -0.2858   -1.4513 O   0  0  0  0  0  0  0  0  0  0  0  0
    6.8019    1.0826   -1.5285 C   0  0  0  0  0  0  0  0  0  0  0  0
    5.5111    1.6592   -1.6178 O   0  0  0  0  0  0  0  0  0  0  0  0
    4.5540   -1.5410   -0.4999 C   0  0  0  0  0  0  0  0  0  0  0  0
    3.2385   -1.4828   -0.0931 C   0  0  0  0  0  0  0  0  0  0  0  0
   -5.9151    1.3711    0.1681 H   0  0  0  0  0  0  0  0  0  0  0  0
   -3.6944    0.9886    1.0429 H   0  0  0  0  0  0  0  0  0  0  0  0
   -2.5740   -0.8244   -2.5966 H   0  0  0  0  0  0  0  0  0  0  0  0
   -4.7689   -0.4470   -3.4897 H   0  0  0  0  0  0  0  0  0  0  0  0
   -0.9063   -0.3951   -1.1419 H   0  0  0  0  0  0  0  0  0  0  0  0
   -0.3594   -1.7273    0.7850 H   0  0  0  0  0  0  0  0  0  0  0  0
   -1.7672   -2.4169   -0.0911 H   0  0  0  0  0  0  0  0  0  0  0  0
   -2.2672   -2.4443    2.3030 H   0  0  0  0  0  0  0  0  0  0  0  0
   -3.3208   -1.3067    1.4743 H   0  0  0  0  0  0  0  0  0  0  0  0
   -2.6063    0.1254    3.1156 H   0  0  0  0  0  0  0  0  0  0  0  0
   -0.7807    1.3591    2.7124 H   0  0  0  0  0  0  0  0  0  0  0  0
    0.1464   -0.1002    2.3612 H   0  0  0  0  0  0  0  0  0  0  0  0
   -1.3776    1.7989    0.5393 H   0  0  0  0  0  0  0  0  0  0  0  0
    0.5474    1.4093   -0.8829 H   0  0  0  0  0  0  0  0  0  0  0  0
    1.0742    1.7670    0.7585 H   0  0  0  0  0  0  0  0  0  0  0  0
    2.7334    1.7803   -0.7583 H   0  0  0  0  0  0  0  0  0  0  0  0
    7.3626    1.4456   -0.6424 H   0  0  0  0  0  0  0  0  0  0  0  0
    7.3362    1.3312   -2.4870 H   0  0  0  0  0  0  0  0  0  0  0  0
    5.0850   -2.4814   -0.4317 H   0  0  0  0  0  0  0  0  0  0  0  0
    2.6883   -2.3167    0.2946 H   0  0  0  0  0  0  0  0  0  0  0  0
  1  2  1  0
  2  3  2  0
  3  4  1  0
  4  5  2  0
  5  6  1  0
  6  7  2  0
  5  8  1  0
  8  9  1  0
  9 10  1  0
 10 11  1  0
 11 12  1  0
 12 13  1  0
 13 14  1  0
 14 15  1  0
 15 16  1  0
 16 17  2  0
 17 18  1  0
 18 19  2  0
 19 20  1  0
 20 21  1  0
 21 22  1  0
 19 23  1  0
 23 24  2  0
  7  2  1  0
 13  8  1  0
 24 16  1  0
 22 18  1  0
  3 25  1  0
  4 26  1  0
  6 27  1  0
  7 28  1  0
  8 29  1  6
  9 30  1  0
  9 31  1  0
 10 32  1  0
 10 33  1  0
 11 34  1  0
 12 35  1  0
 12 36  1  0
 13 37  1  1
 14 38  1  0
 14 39  1  0
 17 40  1  0
 21 41  1  0
 21 42  1  0
 23 43  1  0
 24 44  1  0
M  END
$$$$
