@<TRIPOS>MOLECULE
*****
 35 38 0 0 0
SMALL
GASTEIGER

@<TRIPOS>ATOM
      1 C           4.9281    2.7463    0.4999 C.3     1  UNL1       -0.0046
      2 C           3.7101    1.8992    0.3283 C.ar    1  UNL1        0.1280
      3 N           2.6178    2.4709   -0.1382 N.ar    1  UNL1       -0.1345
      4 N           1.6647    1.5790   -0.2170 N.ar    1  UNL1       -0.1293
      5 C           2.1549    0.3696    0.2159 C.ar    1  UNL1        0.1634
      6 N           3.4105    0.6116    0.5400 N.ar    1  UNL1       -0.3253
      7 C           1.4983   -0.9151    0.3190 C.ar    1  UNL1        0.0402
      8 C           2.2355   -2.0012    0.8026 C.ar    1  UNL1       -0.0493
      9 C           1.8150   -3.2938    0.9825 C.ar    1  UNL1       -0.0610
     10 C           0.4957   -3.5520    0.6441 C.ar    1  UNL1       -0.0600
     11 C          -0.2923   -2.5318    0.1616 C.ar    1  UNL1       -0.0398
     12 C           0.2121   -1.2619    0.0115 C.ar    1  UNL1        0.0432
     13 N          -0.6357   -0.2482   -0.4745 N.pl3   1  UNL1       -0.2983
     14 C          -1.9990   -0.3943   -0.8459 C.ar    1  UNL1        0.1354
     15 N          -2.5394   -1.3637   -1.6052 N.ar    1  UNL1       -0.2199
     16 C          -3.8501   -1.4038   -1.8742 C.ar    1  UNL1        0.1204
     17 N          -4.7276   -0.4837   -1.4096 N.ar    1  UNL1       -0.2178
     18 C          -4.3225    0.5558   -0.6264 C.ar    1  UNL1        0.1432
     19 C          -2.9624    0.5236   -0.3974 C.ar    1  UNL1        0.0586
     20 C          -2.7221    1.6395    0.4157 C.ar    1  UNL1       -0.0318
     21 C          -3.8934    2.3182    0.6683 C.ar    1  UNL1        0.0042
     22 N          -4.8204    1.6126    0.0106 N.ar    1  UNL1       -0.3457
     23 H           5.2167    3.2543   -0.4482 H       1  UNL1        0.0308
     24 H           5.7641    2.0248    0.6970 H       1  UNL1        0.0308
     25 H           4.7400    3.4421    1.3365 H       1  UNL1        0.0308
     26 H           4.1587   -0.0132    0.9169 H       1  UNL1        0.1685
     27 H           3.2895   -1.8463    1.0802 H       1  UNL1        0.0625
     28 H           2.4524   -4.0653    1.3589 H       1  UNL1        0.0618
     29 H           0.0417   -4.5271    0.7391 H       1  UNL1        0.0618
     30 H          -1.3313   -2.7347   -0.0992 H       1  UNL1        0.0636
     31 H          -0.4059    0.7501   -0.6466 H       1  UNL1        0.1536
     32 H          -4.2589   -2.2101   -2.4992 H       1  UNL1        0.1048
     33 H          -1.7688    1.9970    0.8338 H       1  UNL1        0.0640
     34 H          -4.0199    3.2130    1.2585 H       1  UNL1        0.0807
     35 H          -5.8560    1.8387   -0.0230 H       1  UNL1        0.1668
@<TRIPOS>BOND
     1     1     2    1
     2     2     3   ar
     3     3     4   ar
     4     4     5   ar
     5     5     6   ar
     6     5     7    1
     7     7     8   ar
     8     8     9   ar
     9     9    10   ar
    10    10    11   ar
    11    11    12   ar
    12    12    13    1
    13    13    14    1
    14    14    15   ar
    15    15    16   ar
    16    16    17   ar
    17    17    18   ar
    18    18    19   ar
    19    19    20   ar
    20    20    21   ar
    21    21    22   ar
    22     6     2   ar
    23    12     7   ar
    24    19    14   ar
    25    22    18   ar
    26     1    23    1
    27     1    24    1
    28     1    25    1
    29     6    26    1
    30     8    27    1
    31     9    28    1
    32    10    29    1
    33    11    30    1
    34    13    31    1
    35    16    32    1
    36    20    33    1
    37    21    34    1
    38    22    35    1
