
     RDKit          3D

 83 86  0  0  0  0  0  0  0  0999 V2000
  -10.3750    0.3621   -1.0355 C   0  0  0  0  0  0  0  0  0  0  0  0
   -9.9969   -0.7400   -0.1104 C   0  0  0  0  0  0  0  0  0  0  0  0
   -8.6512   -0.9861    0.1315 N   0  0  0  0  0  0  0  0  0  0  0  0
   -7.8150   -1.5019   -0.8665 C   0  0  0  0  0  0  0  0  0  0  0  0
   -8.2285   -2.9622   -1.1168 C   0  0  0  0  0  0  0  0  0  0  0  0
   -7.8568   -0.8260   -2.2063 C   0  0  0  0  0  0  0  0  0  0  0  0
   -6.3469   -1.5686   -0.4607 C   0  0  0  0  0  0  0  0  0  0  0  0
   -5.8397   -0.2607    0.1078 C   0  0  0  0  0  0  0  0  0  0  0  0
   -4.7123   -0.5212    0.8718 O   0  0  0  0  0  0  0  0  0  0  0  0
   -3.4216   -0.1522    0.6746 C   0  0  0  0  0  0  0  0  0  0  0  0
   -2.4849   -0.5860    1.6130 C   0  0  0  0  0  0  0  0  0  0  0  0
   -1.1649   -0.2211    1.4273 C   0  0  0  0  0  0  0  0  0  0  0  0
   -0.7728    0.5393    0.3644 C   0  0  0  0  0  0  0  0  0  0  0  0
    0.6217    0.9055    0.1652 C   0  0  0  0  0  0  0  0  0  0  0  0
    1.5114    0.5204    0.9920 O   0  0  0  0  0  0  0  0  0  0  0  0
    0.9923    1.6960   -0.9605 N   0  0  0  0  0  0  0  0  0  0  0  0
    2.3736    2.0030   -1.1001 C   0  0  0  0  0  0  0  0  0  0  0  0
    2.9425    3.0837   -0.5049 C   0  0  0  0  0  0  0  0  0  0  0  0
    4.3069    3.3599   -0.6665 C   0  0  0  0  0  0  0  0  0  0  0  0
    5.0909    2.5421   -1.4297 C   0  0  0  0  0  0  0  0  0  0  0  0
    6.4688    2.8327   -1.5648 N   0  0  0  0  0  0  0  0  0  0  0  0
    7.3442    2.1774   -0.6389 C   0  0  0  0  0  0  0  0  0  0  0  0
    6.8850    1.3981    0.2303 O   0  0  0  0  0  0  0  0  0  0  0  0
    8.7587    2.3572   -0.6405 N   0  0  0  0  0  0  0  0  0  0  0  0
    9.5929    1.6744    0.2735 C   0  0  0  0  0  0  0  0  0  0  0  0
   10.1527    0.4418    0.0151 C   0  0  0  0  0  0  0  0  0  0  0  0
   10.9064    0.0697    1.1386 C   0  0  0  0  0  0  0  0  0  0  0  0
   11.6805   -1.2042    1.2741 C   0  0  0  0  0  0  0  0  0  0  0  0
   10.7504   -2.2557    1.8475 C   0  0  0  0  0  0  0  0  0  0  0  0
   12.8967   -1.0694    2.1296 C   0  0  0  0  0  0  0  0  0  0  0  0
   12.0669   -1.6208   -0.1427 C   0  0  0  0  0  0  0  0  0  0  0  0
   10.7705    1.0583    1.9877 O   0  0  0  0  0  0  0  0  0  0  0  0
   10.0075    2.0043    1.5010 N   0  0  0  0  0  0  0  0  0  0  0  0
    4.5085    1.4391   -2.0369 C   0  0  0  0  0  0  0  0  0  0  0  0
    3.1897    1.1772   -1.8770 C   0  0  0  0  0  0  0  0  0  0  0  0
   -1.7052    0.9336   -0.5100 N   0  0  0  0  0  0  0  0  0  0  0  0
   -2.9996    0.6091   -0.3789 C   0  0  0  0  0  0  0  0  0  0  0  0
   -6.8665    0.4735    0.9062 C   0  0  0  0  0  0  0  0  0  0  0  0
   -8.0492   -0.3977    1.2768 C   0  0  0  0  0  0  0  0  0  0  0  0
   -7.5401   -1.4261    2.2657 C   0  0  0  0  0  0  0  0  0  0  0  0
   -9.0294    0.4714    2.0019 C   0  0  0  0  0  0  0  0  0  0  0  0
   -9.6764    1.2176   -1.0441 H   0  0  0  0  0  0  0  0  0  0  0  0
  -11.3662    0.8164   -0.7278 H   0  0  0  0  0  0  0  0  0  0  0  0
  -10.5417    0.0651   -2.0912 H   0  0  0  0  0  0  0  0  0  0  0  0
  -10.4897   -1.6854   -0.4928 H   0  0  0  0  0  0  0  0  0  0  0  0
  -10.5221   -0.5616    0.8599 H   0  0  0  0  0  0  0  0  0  0  0  0
   -8.5199   -3.1358   -2.1720 H   0  0  0  0  0  0  0  0  0  0  0  0
   -9.1277   -3.2089   -0.5164 H   0  0  0  0  0  0  0  0  0  0  0  0
   -7.3929   -3.6679   -0.9236 H   0  0  0  0  0  0  0  0  0  0  0  0
   -6.9154   -1.1427   -2.7510 H   0  0  0  0  0  0  0  0  0  0  0  0
   -8.6680   -1.1912   -2.8673 H   0  0  0  0  0  0  0  0  0  0  0  0
   -7.7796    0.2794   -2.1628 H   0  0  0  0  0  0  0  0  0  0  0  0
   -6.1532   -2.4040    0.2549 H   0  0  0  0  0  0  0  0  0  0  0  0
   -5.7131   -1.7892   -1.3460 H   0  0  0  0  0  0  0  0  0  0  0  0
   -5.5680    0.3683   -0.7599 H   0  0  0  0  0  0  0  0  0  0  0  0
   -2.7515   -1.1855    2.4601 H   0  0  0  0  0  0  0  0  0  0  0  0
   -0.4117   -0.5441    2.1449 H   0  0  0  0  0  0  0  0  0  0  0  0
    0.3011    2.0397   -1.6589 H   0  0  0  0  0  0  0  0  0  0  0  0
    2.3611    3.7668    0.1122 H   0  0  0  0  0  0  0  0  0  0  0  0
    4.7316    4.2290   -0.1795 H   0  0  0  0  0  0  0  0  0  0  0  0
    6.8500    3.4675   -2.2685 H   0  0  0  0  0  0  0  0  0  0  0  0
    9.1733    2.9927   -1.3378 H   0  0  0  0  0  0  0  0  0  0  0  0
   10.0582   -0.1641   -0.8741 H   0  0  0  0  0  0  0  0  0  0  0  0
   11.1227   -3.2341    1.4806 H   0  0  0  0  0  0  0  0  0  0  0  0
   10.7338   -2.2497    2.9360 H   0  0  0  0  0  0  0  0  0  0  0  0
    9.7557   -2.0938    1.3882 H   0  0  0  0  0  0  0  0  0  0  0  0
   13.2745   -2.1002    2.3266 H   0  0  0  0  0  0  0  0  0  0  0  0
   13.6604   -0.4479    1.6025 H   0  0  0  0  0  0  0  0  0  0  0  0
   12.6160   -0.6633    3.1157 H   0  0  0  0  0  0  0  0  0  0  0  0
   12.5514   -0.7322   -0.5902 H   0  0  0  0  0  0  0  0  0  0  0  0
   11.1737   -1.8833   -0.7261 H   0  0  0  0  0  0  0  0  0  0  0  0
   12.7486   -2.4819   -0.0229 H   0  0  0  0  0  0  0  0  0  0  0  0
    5.1368    0.8129   -2.6266 H   0  0  0  0  0  0  0  0  0  0  0  0
    2.6844    0.3162   -2.3367 H   0  0  0  0  0  0  0  0  0  0  0  0
   -3.6863    0.9749   -1.1396 H   0  0  0  0  0  0  0  0  0  0  0  0
   -7.2562    1.3584    0.3344 H   0  0  0  0  0  0  0  0  0  0  0  0
   -6.4077    0.9089    1.8168 H   0  0  0  0  0  0  0  0  0  0  0  0
   -7.9531   -1.2554    3.2805 H   0  0  0  0  0  0  0  0  0  0  0  0
   -6.4226   -1.3674    2.3992 H   0  0  0  0  0  0  0  0  0  0  0  0
   -7.8510   -2.4552    1.9891 H   0  0  0  0  0  0  0  0  0  0  0  0
   -9.7157   -0.1012    2.6797 H   0  0  0  0  0  0  0  0  0  0  0  0
   -9.5751    1.1774    1.3496 H   0  0  0  0  0  0  0  0  0  0  0  0
   -8.4305    1.1249    2.6961 H   0  0  0  0  0  0  0  0  0  0  0  0
  1  2  1  0
  2  3  1  0
  3  4  1  0
  4  5  1  0
  4  6  1  0
  4  7  1  0
  7  8  1  0
  8  9  1  0
  9 10  1  0
 10 11  2  0
 11 12  1  0
 12 13  2  0
 13 14  1  0
 14 15  2  0
 14 16  1  0
 16 17  1  0
 17 18  2  0
 18 19  1  0
 19 20  2  0
 20 21  1  0
 21 22  1  0
 22 23  2  0
 22 24  1  0
 24 25  1  0
 25 26  1  0
 26 27  2  0
 27 28  1  0
 28 29  1  0
 28 30  1  0
 28 31  1  0
 27 32  1  0
 32 33  1  0
 20 34  1  0
 34 35  2  0
 13 36  1  0
 36 37  2  0
  8 38  1  0
 38 39  1  0
 39 40  1  0
 39 41  1  0
 39  3  1  0
 37 10  1  0
 35 17  1  0
 33 25  2  0
  1 42  1  0
  1 43  1  0
  1 44  1  0
  2 45  1  0
  2 46  1  0
  5 47  1  0
  5 48  1  0
  5 49  1  0
  6 50  1  0
  6 51  1  0
  6 52  1  0
  7 53  1  0
  7 54  1  0
  8 55  1  0
 11 56  1  0
 12 57  1  0
 16 58  1  0
 18 59  1  0
 19 60  1  0
 21 61  1  0
 24 62  1  0
 26 63  1  0
 29 64  1  0
 29 65  1  0
 29 66  1  0
 30 67  1  0
 30 68  1  0
 30 69  1  0
 31 70  1  0
 31 71  1  0
 31 72  1  0
 34 73  1  0
 35 74  1  0
 37 75  1  0
 38 76  1  0
 38 77  1  0
 40 78  1  0
 40 79  1  0
 40 80  1  0
 41 81  1  0
 41 82  1  0
 41 83  1  0
M  END
$$$$
