@<TRIPOS>MOLECULE
*****
 83 86 0 0 0
SMALL
GASTEIGER

@<TRIPOS>ATOM
      1 C         -10.3750    0.3621   -1.0355 C.3     1  UNL1       -0.0523
      2 C          -9.9969   -0.7400   -0.1104 C.3     1  UNL1       -0.0029
      3 N          -8.6512   -0.9861    0.1315 N.3     1  UNL1       -0.2921
      4 C          -7.8150   -1.5019   -0.8665 C.3     1  UNL1        0.0202
      5 C          -8.2285   -2.9622   -1.1168 C.3     1  UNL1       -0.0467
      6 C          -7.8568   -0.8260   -2.2063 C.3     1  UNL1       -0.0467
      7 C          -6.3469   -1.5686   -0.4607 C.3     1  UNL1        0.0023
      8 C          -5.8397   -0.2607    0.1078 C.3     1  UNL1        0.1036
      9 O          -4.7123   -0.5212    0.8718 O.3     1  UNL1       -0.4872
     10 C          -3.4216   -0.1522    0.6746 C.ar    1  UNL1        0.1390
     11 C          -2.4849   -0.5860    1.6130 C.ar    1  UNL1       -0.0162
     12 C          -1.1649   -0.2211    1.4273 C.ar    1  UNL1       -0.0277
     13 C          -0.7728    0.5393    0.3644 C.ar    1  UNL1        0.1259
     14 C           0.6217    0.9055    0.1652 C.2     1  UNL1        0.2666
     15 O           1.5114    0.5204    0.9920 O.2     1  UNL1       -0.2682
     16 N           0.9923    1.6960   -0.9605 N.am    1  UNL1       -0.2802
     17 C           2.3736    2.0030   -1.1001 C.ar    1  UNL1        0.0338
     18 C           2.9425    3.0837   -0.5049 C.ar    1  UNL1       -0.0387
     19 C           4.3069    3.3599   -0.6665 C.ar    1  UNL1       -0.0387
     20 C           5.0909    2.5421   -1.4297 C.ar    1  UNL1        0.0349
     21 N           6.4688    2.8327   -1.5648 N.am    1  UNL1       -0.2692
     22 C           7.3442    2.1774   -0.6389 C.2     1  UNL1        0.3093
     23 O           6.8850    1.3981    0.2303 O.2     1  UNL1       -0.2521
     24 N           8.7587    2.3572   -0.6405 N.am    1  UNL1       -0.2512
     25 C           9.5929    1.6744    0.2735 C.ar    1  UNL1        0.1691
     26 C          10.1527    0.4418    0.0151 C.ar    1  UNL1        0.0230
     27 C          10.9064    0.0697    1.1386 C.ar    1  UNL1        0.1445
     28 C          11.6805   -1.2042    1.2741 C.3     1  UNL1        0.0230
     29 C          10.7504   -2.2557    1.8475 C.3     1  UNL1       -0.0531
     30 C          12.8967   -1.0694    2.1296 C.3     1  UNL1       -0.0531
     31 C          12.0669   -1.6208   -0.1427 C.3     1  UNL1       -0.0531
     32 O          10.7705    1.0583    1.9877 O.2     1  UNL1       -0.3573
     33 N          10.0075    2.0043    1.5010 N.ar    1  UNL1       -0.0627
     34 C           4.5085    1.4391   -2.0369 C.ar    1  UNL1       -0.0387
     35 C           3.1897    1.1772   -1.8770 C.ar    1  UNL1       -0.0387
     36 N          -1.7052    0.9336   -0.5100 N.ar    1  UNL1       -0.2467
     37 C          -2.9996    0.6091   -0.3789 C.ar    1  UNL1        0.0701
     38 C          -6.8665    0.4735    0.9062 C.3     1  UNL1        0.0023
     39 C          -8.0492   -0.3977    1.2768 C.3     1  UNL1        0.0202
     40 C          -7.5401   -1.4261    2.2657 C.3     1  UNL1       -0.0467
     41 C          -9.0294    0.4714    2.0019 C.3     1  UNL1       -0.0467
     42 H          -9.6764    1.2176   -1.0441 H       1  UNL1        0.0242
     43 H         -11.3662    0.8164   -0.7278 H       1  UNL1        0.0242
     44 H         -10.5417    0.0651   -2.0912 H       1  UNL1        0.0242
     45 H         -10.4897   -1.6854   -0.4928 H       1  UNL1        0.0424
     46 H         -10.5221   -0.5616    0.8599 H       1  UNL1        0.0424
     47 H          -8.5199   -3.1358   -2.1720 H       1  UNL1        0.0247
     48 H          -9.1277   -3.2089   -0.5164 H       1  UNL1        0.0247
     49 H          -7.3929   -3.6679   -0.9236 H       1  UNL1        0.0247
     50 H          -6.9154   -1.1427   -2.7510 H       1  UNL1        0.0247
     51 H          -8.6680   -1.1912   -2.8673 H       1  UNL1        0.0247
     52 H          -7.7796    0.2794   -2.1628 H       1  UNL1        0.0247
     53 H          -6.1532   -2.4040    0.2549 H       1  UNL1        0.0319
     54 H          -5.7131   -1.7892   -1.3460 H       1  UNL1        0.0319
     55 H          -5.5680    0.3683   -0.7599 H       1  UNL1        0.0734
     56 H          -2.7515   -1.1855    2.4601 H       1  UNL1        0.0655
     57 H          -0.4117   -0.5441    2.1449 H       1  UNL1        0.0641
     58 H           0.3011    2.0397   -1.6589 H       1  UNL1        0.1552
     59 H           2.3611    3.7668    0.1122 H       1  UNL1        0.0637
     60 H           4.7316    4.2290   -0.1795 H       1  UNL1        0.0637
     61 H           6.8500    3.4675   -2.2685 H       1  UNL1        0.1564
     62 H           9.1733    2.9927   -1.3378 H       1  UNL1        0.1579
     63 H          10.0582   -0.1641   -0.8741 H       1  UNL1        0.0688
     64 H          11.1227   -3.2341    1.4806 H       1  UNL1        0.0239
     65 H          10.7338   -2.2497    2.9360 H       1  UNL1        0.0239
     66 H           9.7557   -2.0938    1.3882 H       1  UNL1        0.0239
     67 H          13.2745   -2.1002    2.3266 H       1  UNL1        0.0239
     68 H          13.6604   -0.4479    1.6025 H       1  UNL1        0.0239
     69 H          12.6160   -0.6633    3.1157 H       1  UNL1        0.0239
     70 H          12.5514   -0.7322   -0.5902 H       1  UNL1        0.0239
     71 H          11.1737   -1.8833   -0.7261 H       1  UNL1        0.0239
     72 H          12.7486   -2.4819   -0.0229 H       1  UNL1        0.0239
     73 H           5.1368    0.8129   -2.6266 H       1  UNL1        0.0637
     74 H           2.6844    0.3162   -2.3367 H       1  UNL1        0.0637
     75 H          -3.6863    0.9749   -1.1396 H       1  UNL1        0.0867
     76 H          -7.2562    1.3584    0.3344 H       1  UNL1        0.0319
     77 H          -6.4077    0.9089    1.8168 H       1  UNL1        0.0319
     78 H          -7.9531   -1.2554    3.2805 H       1  UNL1        0.0247
     79 H          -6.4226   -1.3674    2.3992 H       1  UNL1        0.0247
     80 H          -7.8510   -2.4552    1.9891 H       1  UNL1        0.0247
     81 H          -9.7157   -0.1012    2.6797 H       1  UNL1        0.0247
     82 H          -9.5751    1.1774    1.3496 H       1  UNL1        0.0247
     83 H          -8.4305    1.1249    2.6961 H       1  UNL1        0.0247
@<TRIPOS>BOND
     1     1     2    1
     2     2     3    1
     3     3     4    1
     4     4     5    1
     5     4     6    1
     6     4     7    1
     7     7     8    1
     8     8     9    1
     9     9    10    1
    10    10    11   ar
    11    11    12   ar
    12    12    13   ar
    13    13    14    1
    14    14    15    2
    15    14    16   am
    16    16    17    1
    17    17    18   ar
    18    18    19   ar
    19    19    20   ar
    20    20    21    1
    21    21    22   am
    22    22    23    2
    23    22    24   am
    24    24    25    1
    25    25    26   ar
    26    26    27   ar
    27    27    28    1
    28    28    29    1
    29    28    30    1
    30    28    31    1
    31    27    32   ar
    32    32    33   ar
    33    20    34   ar
    34    34    35   ar
    35    13    36   ar
    36    36    37   ar
    37     8    38    1
    38    38    39    1
    39    39    40    1
    40    39    41    1
    41    39     3    1
    42    37    10   ar
    43    35    17   ar
    44    33    25   ar
    45     1    42    1
    46     1    43    1
    47     1    44    1
    48     2    45    1
    49     2    46    1
    50     5    47    1
    51     5    48    1
    52     5    49    1
    53     6    50    1
    54     6    51    1
    55     6    52    1
    56     7    53    1
    57     7    54    1
    58     8    55    1
    59    11    56    1
    60    12    57    1
    61    16    58    1
    62    18    59    1
    63    19    60    1
    64    21    61    1
    65    24    62    1
    66    26    63    1
    67    29    64    1
    68    29    65    1
    69    29    66    1
    70    30    67    1
    71    30    68    1
    72    30    69    1
    73    31    70    1
    74    31    71    1
    75    31    72    1
    76    34    73    1
    77    35    74    1
    78    37    75    1
    79    38    76    1
    80    38    77    1
    81    40    78    1
    82    40    79    1
    83    40    80    1
    84    41    81    1
    85    41    82    1
    86    41    83    1
