
     RDKit          3D

 65 68  0  0  0  0  0  0  0  0999 V2000
   10.8837    0.3251    1.9761 C   0  0  0  0  0  0  0  0  0  0  0  0
    9.5735    0.3343    1.2388 C   0  0  0  0  0  0  0  0  0  0  0  0
    8.3087    0.2545    1.7726 C   0  0  0  0  0  0  0  0  0  0  0  0
    7.3575    0.2963    0.7439 C   0  0  0  0  0  0  0  0  0  0  0  0
    5.9898    0.2523    0.7269 C   0  0  0  0  0  0  0  0  0  0  0  0
    5.3142    0.1477    1.8814 F   0  0  0  0  0  0  0  0  0  0  0  0
    5.2494    0.3135   -0.4767 C   0  0  0  0  0  0  0  0  0  0  0  0
    3.8868    0.2633   -0.4043 O   0  0  0  0  0  0  0  0  0  0  0  0
    3.0077    0.3067   -1.4209 C   0  0  0  0  0  0  0  0  0  0  0  0
    3.3315    0.4098   -2.7170 N   0  0  0  0  0  0  0  0  0  0  0  0
    2.3974    0.4472   -3.6749 C   0  0  0  0  0  0  0  0  0  0  0  0
    1.0743    0.3833   -3.3921 N   0  0  0  0  0  0  0  0  0  0  0  0
    0.7058    0.2813   -2.1324 N   0  0  0  0  0  0  0  0  0  0  0  0
   -0.5338    0.2036   -1.6174 C   0  0  0  0  0  0  0  0  0  0  0  0
   -0.3827    0.1107   -0.2487 C   0  0  0  0  0  0  0  0  0  0  0  0
   -1.3215    0.0107    0.7325 O   0  0  0  0  0  0  0  0  0  0  0  0
   -2.6963   -0.0375    0.6681 C   0  0  0  0  0  0  0  0  0  0  0  0
   -3.2816   -1.2036   -0.0833 C   0  0  1  0  0  0  0  0  0  0  0  0
   -2.8904   -2.4887    0.6168 C   0  0  0  0  0  0  0  0  0  0  0  0
   -4.6896   -1.0638   -0.0254 O   0  0  0  0  0  0  0  0  0  0  0  0
   -5.4908   -0.9678   -1.1423 C   0  0  0  0  0  0  0  0  0  0  0  0
   -4.9242   -1.0083   -2.2657 O   0  0  0  0  0  0  0  0  0  0  0  0
   -6.9635   -0.8227   -1.0300 C   0  0  2  0  0  0  0  0  0  0  0  0
   -7.5198   -0.7781   -2.3832 N   0  0  0  0  0  0  0  0  0  0  0  0
   -7.3303    0.4796   -0.3830 C   0  0  0  0  0  0  0  0  0  0  0  0
   -6.8009    0.6696    1.0004 C   0  0  0  0  0  0  0  0  0  0  0  0
   -7.2940    2.0489    1.4611 C   0  0  0  0  0  0  0  0  0  0  0  0
   -7.3114   -0.3350    1.9838 C   0  0  0  0  0  0  0  0  0  0  0  0
    0.9954    0.1357    0.0424 C   0  0  0  0  0  0  0  0  0  0  0  0
    1.6264    0.0614    1.3778 C   0  0  0  0  0  0  0  0  0  0  0  0
    1.6161    0.2433   -1.1776 C   0  0  0  0  0  0  0  0  0  0  0  0
    6.0035    0.4201   -1.6244 C   0  0  0  0  0  0  0  0  0  0  0  0
    7.3916    0.4637   -1.5913 C   0  0  0  0  0  0  0  0  0  0  0  0
    8.0888    0.4031   -0.4166 C   0  0  0  0  0  0  0  0  0  0  0  0
    9.4039    0.4233   -0.0894 N   0  0  0  0  0  0  0  0  0  0  0  0
   11.6738   -0.0519    1.2662 H   0  0  0  0  0  0  0  0  0  0  0  0
   11.1611    1.3555    2.2172 H   0  0  0  0  0  0  0  0  0  0  0  0
   10.8420   -0.3603    2.8278 H   0  0  0  0  0  0  0  0  0  0  0  0
    8.0514    0.1722    2.8086 H   0  0  0  0  0  0  0  0  0  0  0  0
    2.7452    0.5324   -4.7082 H   0  0  0  0  0  0  0  0  0  0  0  0
   -1.4731    0.2175   -2.1719 H   0  0  0  0  0  0  0  0  0  0  0  0
   -3.1569   -0.0955    1.7009 H   0  0  0  0  0  0  0  0  0  0  0  0
   -3.0566    0.9229    0.2248 H   0  0  0  0  0  0  0  0  0  0  0  0
   -3.0174   -1.2149   -1.1524 H   0  0  0  0  0  0  0  0  0  0  0  0
   -1.9221   -2.8891    0.2680 H   0  0  0  0  0  0  0  0  0  0  0  0
   -2.7890   -2.3187    1.7086 H   0  0  0  0  0  0  0  0  0  0  0  0
   -3.6585   -3.2625    0.3760 H   0  0  0  0  0  0  0  0  0  0  0  0
   -7.3470   -1.7016   -0.5002 H   0  0  0  0  0  0  0  0  0  0  0  0
   -7.4802   -1.7333   -2.7978 H   0  0  0  0  0  0  0  0  0  0  0  0
   -6.8766   -0.1573   -2.9385 H   0  0  0  0  0  0  0  0  0  0  0  0
   -6.8826    1.3037   -1.0123 H   0  0  0  0  0  0  0  0  0  0  0  0
   -8.4182    0.6779   -0.4004 H   0  0  0  0  0  0  0  0  0  0  0  0
   -5.7008    0.7285    1.0537 H   0  0  0  0  0  0  0  0  0  0  0  0
   -8.4061    1.9876    1.4191 H   0  0  0  0  0  0  0  0  0  0  0  0
   -6.9855    2.2551    2.5072 H   0  0  0  0  0  0  0  0  0  0  0  0
   -6.9397    2.8377    0.7728 H   0  0  0  0  0  0  0  0  0  0  0  0
   -8.2709   -0.7510    1.5883 H   0  0  0  0  0  0  0  0  0  0  0  0
   -6.5586   -1.1515    2.1313 H   0  0  0  0  0  0  0  0  0  0  0  0
   -7.4490    0.1604    2.9676 H   0  0  0  0  0  0  0  0  0  0  0  0
    0.9005   -0.2525    2.1435 H   0  0  0  0  0  0  0  0  0  0  0  0
    2.4271   -0.7266    1.3760 H   0  0  0  0  0  0  0  0  0  0  0  0
    2.1619    1.0099    1.6493 H   0  0  0  0  0  0  0  0  0  0  0  0
    5.5502    0.4739   -2.5905 H   0  0  0  0  0  0  0  0  0  0  0  0
    7.9521    0.5489   -2.5285 H   0  0  0  0  0  0  0  0  0  0  0  0
   10.1483    0.4994   -0.8126 H   0  0  0  0  0  0  0  0  0  0  0  0
  1  2  1  0
  2  3  2  0
  3  4  1  0
  4  5  2  0
  5  6  1  0
  5  7  1  0
  7  8  1  0
  8  9  1  0
  9 10  2  0
 10 11  1  0
 11 12  2  0
 12 13  1  0
 13 14  1  0
 14 15  2  0
 15 16  1  0
 16 17  1  0
 17 18  1  0
 18 19  1  0
 18 20  1  0
 20 21  1  0
 21 22  2  0
 21 23  1  0
 23 24  1  0
 23 25  1  0
 25 26  1  0
 26 27  1  0
 26 28  1  0
 15 29  1  0
 29 30  1  0
 29 31  2  0
  7 32  2  0
 32 33  1  0
 33 34  2  0
 34 35  1  0
 35  2  1  0
 34  4  1  0
 31  9  1  0
 31 13  1  0
  1 36  1  0
  1 37  1  0
  1 38  1  0
  3 39  1  0
 11 40  1  0
 14 41  1  0
 17 42  1  0
 17 43  1  0
 18 44  1  6
 19 45  1  0
 19 46  1  0
 19 47  1  0
 23 48  1  1
 24 49  1  0
 24 50  1  0
 25 51  1  0
 25 52  1  0
 26 53  1  0
 27 54  1  0
 27 55  1  0
 27 56  1  0
 28 57  1  0
 28 58  1  0
 28 59  1  0
 30 60  1  0
 30 61  1  0
 30 62  1  0
 32 63  1  0
 33 64  1  0
 35 65  1  0
M  END
$$$$
