@<TRIPOS>MOLECULE
*****
 65 68 0 0 0
SMALL
GASTEIGER

@<TRIPOS>ATOM
      1 C          10.8837    0.3251    1.9761 C.3     1  UNL1       -0.0244
      2 C           9.5735    0.3343    1.2388 C.ar    1  UNL1        0.0140
      3 C           8.3087    0.2545    1.7726 C.ar    1  UNL1       -0.0308
      4 C           7.3575    0.2963    0.7439 C.ar    1  UNL1        0.0387
      5 C           5.9898    0.2523    0.7269 C.ar    1  UNL1        0.1746
      6 F           5.3142    0.1477    1.8814 F       1  UNL1       -0.2009
      7 C           5.2494    0.3135   -0.4767 C.ar    1  UNL1        0.1662
      8 O           3.8868    0.2633   -0.4043 O.3     1  UNL1       -0.4332
      9 C           3.0077    0.3067   -1.4209 C.ar    1  UNL1        0.2483
     10 N           3.3315    0.4098   -2.7170 N.ar    1  UNL1       -0.1975
     11 C           2.3974    0.4472   -3.6749 C.ar    1  UNL1        0.1405
     12 N           1.0743    0.3833   -3.3921 N.ar    1  UNL1       -0.1546
     13 N           0.7058    0.2813   -2.1324 N.ar    1  UNL1       -0.2294
     14 C          -0.5338    0.2036   -1.6174 C.ar    1  UNL1        0.0719
     15 C          -0.3827    0.1107   -0.2487 C.ar    1  UNL1        0.1438
     16 O          -1.3215    0.0107    0.7325 O.3     1  UNL1       -0.4865
     17 C          -2.6963   -0.0375    0.6681 C.3     1  UNL1        0.1262
     18 C          -3.2816   -1.2036   -0.0833 C.3     1  UNL1        0.1341
     19 C          -2.8904   -2.4887    0.6168 C.3     1  UNL1       -0.0244
     20 O          -4.6896   -1.0638   -0.0254 O.3     1  UNL1       -0.4571
     21 C          -5.4908   -0.9678   -1.1423 C.2     1  UNL1        0.3245
     22 O          -4.9242   -1.0083   -2.2657 O.2     1  UNL1       -0.2491
     23 C          -6.9635   -0.8227   -1.0300 C.3     1  UNL1        0.1037
     24 N          -7.5198   -0.7781   -2.3832 N.3     1  UNL1       -0.3184
     25 C          -7.3303    0.4796   -0.3830 C.3     1  UNL1       -0.0250
     26 C          -6.8009    0.6696    1.0004 C.3     1  UNL1       -0.0448
     27 C          -7.2940    2.0489    1.4611 C.3     1  UNL1       -0.0626
     28 C          -7.3114   -0.3350    1.9838 C.3     1  UNL1       -0.0626
     29 C           0.9954    0.1357    0.0424 C.ar    1  UNL1        0.0233
     30 C           1.6264    0.0614    1.3778 C.3     1  UNL1       -0.0340
     31 C           1.6161    0.2433   -1.1776 C.ar    1  UNL1        0.1336
     32 C           6.0035    0.4201   -1.6244 C.ar    1  UNL1       -0.0144
     33 C           7.3916    0.4637   -1.5913 C.ar    1  UNL1       -0.0341
     34 C           8.0888    0.4031   -0.4166 C.ar    1  UNL1        0.0497
     35 N           9.4039    0.4233   -0.0894 N.ar    1  UNL1       -0.3581
     36 H          11.6738   -0.0519    1.2662 H       1  UNL1        0.0292
     37 H          11.1611    1.3555    2.2172 H       1  UNL1        0.0292
     38 H          10.8420   -0.3603    2.8278 H       1  UNL1        0.0292
     39 H           8.0514    0.1722    2.8086 H       1  UNL1        0.0642
     40 H           2.7452    0.5324   -4.7082 H       1  UNL1        0.1066
     41 H          -1.4731    0.2175   -2.1719 H       1  UNL1        0.0868
     42 H          -3.1569   -0.0955    1.7009 H       1  UNL1        0.0734
     43 H          -3.0566    0.9229    0.2248 H       1  UNL1        0.0734
     44 H          -3.0174   -1.2149   -1.1524 H       1  UNL1        0.0765
     45 H          -1.9221   -2.8891    0.2680 H       1  UNL1        0.0266
     46 H          -2.7890   -2.3187    1.7086 H       1  UNL1        0.0266
     47 H          -3.6585   -3.2625    0.3760 H       1  UNL1        0.0266
     48 H          -7.3470   -1.7016   -0.5002 H       1  UNL1        0.0574
     49 H          -7.4802   -1.7333   -2.7978 H       1  UNL1        0.1190
     50 H          -6.8766   -0.1573   -2.9385 H       1  UNL1        0.1190
     51 H          -6.8826    1.3037   -1.0123 H       1  UNL1        0.0288
     52 H          -8.4182    0.6779   -0.4004 H       1  UNL1        0.0288
     53 H          -5.7008    0.7285    1.0537 H       1  UNL1        0.0296
     54 H          -8.4061    1.9876    1.4191 H       1  UNL1        0.0232
     55 H          -6.9855    2.2551    2.5072 H       1  UNL1        0.0232
     56 H          -6.9397    2.8377    0.7728 H       1  UNL1        0.0232
     57 H          -8.2709   -0.7510    1.5883 H       1  UNL1        0.0232
     58 H          -6.5586   -1.1515    2.1313 H       1  UNL1        0.0232
     59 H          -7.4490    0.1604    2.9676 H       1  UNL1        0.0232
     60 H           0.9005   -0.2525    2.1435 H       1  UNL1        0.0279
     61 H           2.4271   -0.7266    1.3760 H       1  UNL1        0.0279
     62 H           2.1619    1.0099    1.6493 H       1  UNL1        0.0279
     63 H           5.5502    0.4739   -2.5905 H       1  UNL1        0.0656
     64 H           7.9521    0.5489   -2.5285 H       1  UNL1        0.0639
     65 H          10.1483    0.4994   -0.8126 H       1  UNL1        0.1656
@<TRIPOS>BOND
     1     1     2    1
     2     2     3   ar
     3     3     4   ar
     4     4     5   ar
     5     5     6    1
     6     5     7   ar
     7     7     8    1
     8     8     9    1
     9     9    10   ar
    10    10    11   ar
    11    11    12   ar
    12    12    13   ar
    13    13    14   ar
    14    14    15   ar
    15    15    16    1
    16    16    17    1
    17    17    18    1
    18    18    19    1
    19    18    20    1
    20    20    21    1
    21    21    22    2
    22    21    23    1
    23    23    24    1
    24    23    25    1
    25    25    26    1
    26    26    27    1
    27    26    28    1
    28    15    29   ar
    29    29    30    1
    30    29    31   ar
    31     7    32   ar
    32    32    33   ar
    33    33    34   ar
    34    34    35   ar
    35    35     2   ar
    36    34     4   ar
    37    31     9   ar
    38    31    13   ar
    39     1    36    1
    40     1    37    1
    41     1    38    1
    42     3    39    1
    43    11    40    1
    44    14    41    1
    45    17    42    1
    46    17    43    1
    47    18    44    1
    48    19    45    1
    49    19    46    1
    50    19    47    1
    51    23    48    1
    52    24    49    1
    53    24    50    1
    54    25    51    1
    55    25    52    1
    56    26    53    1
    57    27    54    1
    58    27    55    1
    59    27    56    1
    60    28    57    1
    61    28    58    1
    62    28    59    1
    63    30    60    1
    64    30    61    1
    65    30    62    1
    66    32    63    1
    67    33    64    1
    68    35    65    1
