@<TRIPOS>MOLECULE
*****
 52 54 0 0 0
SMALL
GASTEIGER

@<TRIPOS>ATOM
      1 C          -3.7855   -2.9383   -0.4726 C.3     1  UNL1       -0.0635
      2 C          -2.9347   -2.9725    0.7557 C.3     1  UNL1       -0.0352
      3 CA         -2.2047   -1.6859    1.0281 C.3     1  UNL1        0.0461
      4 C          -3.2098   -0.5733    1.2062 C.3     1  UNL1        0.0626
      5 O          -2.5510    0.6218    1.5520 O.3     1  UNL1       -0.3932
      6 N          -1.2478   -1.4016   -0.0050 N.pl3   1  UNL1       -0.3083
      7 C          -0.4114   -0.2530   -0.0011 C.ar    1  UNL1        0.2191
      8 N           0.7866   -0.2801    0.6097 N.ar    1  UNL1       -0.1974
      9 C           1.6260    0.7705    0.6518 C.ar    1  UNL1        0.1519
     10 N           2.8720    0.7599    1.2871 N.pl3   1  UNL1       -0.3231
     11 C           3.4648   -0.3239    1.9738 C.3     1  UNL1        0.0357
     12 C           3.7405   -1.5279    1.1869 C.ar    1  UNL1       -0.0304
     13 C           2.9005   -2.5862    1.0803 C.ar    1  UNL1       -0.0571
     14 C           3.2674   -3.6765    0.2923 C.ar    1  UNL1       -0.0615
     15 C           4.4603   -3.7390   -0.3974 C.ar    1  UNL1       -0.0617
     16 C           5.2948   -2.6489   -0.2703 C.ar    1  UNL1       -0.0615
     17 C           4.9604   -1.5569    0.5006 C.ar    1  UNL1       -0.0571
     18 C           1.1342    1.9085   -0.0054 C.ar    1  UNL1        0.1476
     19 N           1.6997    3.1055   -0.1542 N.ar    1  UNL1       -0.2306
     20 C           0.8759    3.9044   -0.8560 C.ar    1  UNL1        0.0985
     21 N          -0.2270    3.1943   -1.1527 N.ar    1  UNL1       -0.3123
     22 C          -1.3525    3.6948   -1.8985 C.3     1  UNL1        0.0317
     23 C          -2.0148    4.8797   -1.1935 C.3     1  UNL1       -0.0444
     24 C          -2.3490    2.6344   -2.2437 C.3     1  UNL1       -0.0444
     25 C          -0.0783    1.9574   -0.6314 C.ar    1  UNL1        0.1674
     26 N          -0.8649    0.8485   -0.6259 N.ar    1  UNL1       -0.1947
     27 H          -3.2504   -2.4561   -1.3321 H       1  UNL1        0.0230
     28 H          -4.0586   -3.9805   -0.7241 H       1  UNL1        0.0230
     29 H          -4.7486   -2.3934   -0.3131 H       1  UNL1        0.0230
     30 H          -3.5747   -3.2510    1.6110 H       1  UNL1        0.0281
     31 H          -2.1667   -3.7665    0.6085 H       1  UNL1        0.0281
     32 HA         -1.6976   -1.8032    2.0155 H       1  UNL1        0.0521
     33 H1         -3.8962   -0.8509    2.0334 H       1  UNL1        0.0575
     34 H2         -3.8329   -0.4329    0.2796 H       1  UNL1        0.0575
     35 H          -3.1717    1.3757    1.4568 H       1  UNL1        0.2095
     36 H          -1.1607   -2.0809   -0.8093 H       1  UNL1        0.1493
     37 H           3.4212    1.6693    1.2412 H       1  UNL1        0.1479
     38 H           4.4501    0.0209    2.4072 H       1  UNL1        0.0511
     39 H           2.8258   -0.6939    2.8389 H       1  UNL1        0.0511
     40 H           1.9684   -2.5600    1.6157 H       1  UNL1        0.0621
     41 H           2.5541   -4.5090    0.2372 H       1  UNL1        0.0618
     42 H           4.7091   -4.6102   -1.0027 H       1  UNL1        0.0618
     43 H           6.2424   -2.6984   -0.8172 H       1  UNL1        0.0618
     44 H           5.6647   -0.7160    0.5657 H       1  UNL1        0.0621
     45 H           1.0556    4.9525   -1.1445 H       1  UNL1        0.1029
     46 H          -0.9418    4.0980   -2.8626 H       1  UNL1        0.0523
     47 H          -2.6467    4.4954   -0.3602 H       1  UNL1        0.0249
     48 H          -1.1949    5.4484   -0.7137 H       1  UNL1        0.0249
     49 H          -2.5635    5.4394   -1.9514 H       1  UNL1        0.0249
     50 H          -1.8804    1.9469   -2.9864 H       1  UNL1        0.0249
     51 H          -3.2071    3.1249   -2.7459 H       1  UNL1        0.0249
     52 H          -2.7507    2.1158   -1.3640 H       1  UNL1        0.0249
@<TRIPOS>BOND
     1     1     2    1
     2     2     3    1
     3     3     4    1
     4     4     5    1
     5     3     6    1
     6     6     7    1
     7     7     8   ar
     8     8     9   ar
     9     9    10    1
    10    10    11    1
    11    11    12    1
    12    12    13   ar
    13    13    14   ar
    14    14    15   ar
    15    15    16   ar
    16    16    17   ar
    17     9    18   ar
    18    18    19   ar
    19    19    20   ar
    20    20    21   ar
    21    21    22    1
    22    22    23    1
    23    22    24    1
    24    21    25   ar
    25    25    26   ar
    26    26     7   ar
    27    17    12   ar
    28    25    18   ar
    29     1    27    1
    30     1    28    1
    31     1    29    1
    32     2    30    1
    33     2    31    1
    34     3    32    1
    35     4    33    1
    36     4    34    1
    37     5    35    1
    38     6    36    1
    39    10    37    1
    40    11    38    1
    41    11    39    1
    42    13    40    1
    43    14    41    1
    44    15    42    1
    45    16    43    1
    46    17    44    1
    47    20    45    1
    48    22    46    1
    49    23    47    1
    50    23    48    1
    51    23    49    1
    52    24    50    1
    53    24    51    1
    54    24    52    1
