
     RDKit          3D

 52 54  0  0  0  0  0  0  0  0999 V2000
   -3.7855   -2.9383   -0.4726 C   0  0  0  0  0  0  0  0  0  0  0  0
   -2.9347   -2.9725    0.7557 C   0  0  0  0  0  0  0  0  0  0  0  0
   -2.2047   -1.6859    1.0281 C   0  0  2  0  0  0  0  0  0  0  0  0
   -3.2098   -0.5733    1.2062 C   0  0  0  0  0  0  0  0  0  0  0  0
   -2.5510    0.6218    1.5520 O   0  0  0  0  0  0  0  0  0  0  0  0
   -1.2478   -1.4016   -0.0050 N   0  0  0  0  0  0  0  0  0  0  0  0
   -0.4114   -0.2530   -0.0011 C   0  0  0  0  0  0  0  0  0  0  0  0
    0.7866   -0.2801    0.6097 N   0  0  0  0  0  0  0  0  0  0  0  0
    1.6260    0.7705    0.6518 C   0  0  0  0  0  0  0  0  0  0  0  0
    2.8720    0.7599    1.2871 N   0  0  0  0  0  0  0  0  0  0  0  0
    3.4648   -0.3239    1.9738 C   0  0  0  0  0  0  0  0  0  0  0  0
    3.7405   -1.5279    1.1869 C   0  0  0  0  0  0  0  0  0  0  0  0
    2.9005   -2.5862    1.0803 C   0  0  0  0  0  0  0  0  0  0  0  0
    3.2674   -3.6765    0.2923 C   0  0  0  0  0  0  0  0  0  0  0  0
    4.4603   -3.7390   -0.3974 C   0  0  0  0  0  0  0  0  0  0  0  0
    5.2948   -2.6489   -0.2703 C   0  0  0  0  0  0  0  0  0  0  0  0
    4.9604   -1.5569    0.5006 C   0  0  0  0  0  0  0  0  0  0  0  0
    1.1342    1.9085   -0.0054 C   0  0  0  0  0  0  0  0  0  0  0  0
    1.6997    3.1055   -0.1542 N   0  0  0  0  0  0  0  0  0  0  0  0
    0.8759    3.9044   -0.8560 C   0  0  0  0  0  0  0  0  0  0  0  0
   -0.2270    3.1943   -1.1527 N   0  0  0  0  0  0  0  0  0  0  0  0
   -1.3525    3.6948   -1.8985 C   0  0  0  0  0  0  0  0  0  0  0  0
   -2.0148    4.8797   -1.1935 C   0  0  0  0  0  0  0  0  0  0  0  0
   -2.3490    2.6344   -2.2437 C   0  0  0  0  0  0  0  0  0  0  0  0
   -0.0783    1.9574   -0.6314 C   0  0  0  0  0  0  0  0  0  0  0  0
   -0.8649    0.8485   -0.6259 N   0  0  0  0  0  0  0  0  0  0  0  0
   -3.2504   -2.4561   -1.3321 H   0  0  0  0  0  0  0  0  0  0  0  0
   -4.0586   -3.9805   -0.7241 H   0  0  0  0  0  0  0  0  0  0  0  0
   -4.7486   -2.3934   -0.3131 H   0  0  0  0  0  0  0  0  0  0  0  0
   -3.5747   -3.2510    1.6110 H   0  0  0  0  0  0  0  0  0  0  0  0
   -2.1667   -3.7665    0.6085 H   0  0  0  0  0  0  0  0  0  0  0  0
   -1.6976   -1.8032    2.0155 H   0  0  0  0  0  0  0  0  0  0  0  0
   -3.8962   -0.8509    2.0334 H   0  0  0  0  0  0  0  0  0  0  0  0
   -3.8329   -0.4329    0.2796 H   0  0  0  0  0  0  0  0  0  0  0  0
   -3.1717    1.3757    1.4568 H   0  0  0  0  0  0  0  0  0  0  0  0
   -1.1607   -2.0809   -0.8093 H   0  0  0  0  0  0  0  0  0  0  0  0
    3.4212    1.6693    1.2412 H   0  0  0  0  0  0  0  0  0  0  0  0
    4.4501    0.0209    2.4072 H   0  0  0  0  0  0  0  0  0  0  0  0
    2.8258   -0.6939    2.8389 H   0  0  0  0  0  0  0  0  0  0  0  0
    1.9684   -2.5600    1.6157 H   0  0  0  0  0  0  0  0  0  0  0  0
    2.5541   -4.5090    0.2372 H   0  0  0  0  0  0  0  0  0  0  0  0
    4.7091   -4.6102   -1.0027 H   0  0  0  0  0  0  0  0  0  0  0  0
    6.2424   -2.6984   -0.8172 H   0  0  0  0  0  0  0  0  0  0  0  0
    5.6647   -0.7160    0.5657 H   0  0  0  0  0  0  0  0  0  0  0  0
    1.0556    4.9525   -1.1445 H   0  0  0  0  0  0  0  0  0  0  0  0
   -0.9418    4.0980   -2.8626 H   0  0  0  0  0  0  0  0  0  0  0  0
   -2.6467    4.4954   -0.3602 H   0  0  0  0  0  0  0  0  0  0  0  0
   -1.1949    5.4484   -0.7137 H   0  0  0  0  0  0  0  0  0  0  0  0
   -2.5635    5.4394   -1.9514 H   0  0  0  0  0  0  0  0  0  0  0  0
   -1.8804    1.9469   -2.9864 H   0  0  0  0  0  0  0  0  0  0  0  0
   -3.2071    3.1249   -2.7459 H   0  0  0  0  0  0  0  0  0  0  0  0
   -2.7507    2.1158   -1.3640 H   0  0  0  0  0  0  0  0  0  0  0  0
  1  2  1  0
  2  3  1  0
  3  4  1  0
  4  5  1  0
  3  6  1  0
  6  7  1  0
  7  8  2  0
  8  9  1  0
  9 10  1  0
 10 11  1  0
 11 12  1  0
 12 13  2  0
 13 14  1  0
 14 15  2  0
 15 16  1  0
 16 17  2  0
  9 18  2  0
 18 19  1  0
 19 20  2  0
 20 21  1  0
 21 22  1  0
 22 23  1  0
 22 24  1  0
 21 25  1  0
 25 26  2  0
 26  7  1  0
 17 12  1  0
 25 18  1  0
  1 27  1  0
  1 28  1  0
  1 29  1  0
  2 30  1  0
  2 31  1  0
  3 32  1  1
  4 33  1  0
  4 34  1  0
  5 35  1  0
  6 36  1  0
 10 37  1  0
 11 38  1  0
 11 39  1  0
 13 40  1  0
 14 41  1  0
 15 42  1  0
 16 43  1  0
 17 44  1  0
 20 45  1  0
 22 46  1  0
 23 47  1  0
 23 48  1  0
 23 49  1  0
 24 50  1  0
 24 51  1  0
 24 52  1  0
M  END
$$$$
