@<TRIPOS>MOLECULE
*****
 44 46 0 0 0
SMALL
GASTEIGER

@<TRIPOS>ATOM
      1 C           7.0687   -1.2273   -0.3858 C.3     1  UNL1       -0.0307
      2 C           6.2812   -2.1580    0.4949 C.3     1  UNL1        0.0868
      3 O           5.2838   -1.4811    1.1968 O.3     1  UNL1       -0.4922
      4 C           4.2497   -0.7787    0.6505 C.ar    1  UNL1        0.1206
      5 C           3.3599   -0.1742    1.5371 C.ar    1  UNL1       -0.0181
      6 C           2.2689    0.5668    1.0903 C.ar    1  UNL1       -0.0316
      7 C           2.0596    0.7087   -0.2634 C.ar    1  UNL1        0.1101
      8 S           0.7133    1.6232   -0.8365 S.O2    1  UNL1        0.0865
      9 O           0.3851    2.7615    0.1236 O.2     1  UNL1       -0.1487
     10 O           1.0101    2.2970   -2.1505 O.2     1  UNL1       -0.1487
     11 N          -0.6984    0.6524   -1.0554 N.pl3   1  UNL1       -0.1365
     12 N          -1.2448    0.0183    0.0080 N.2     1  UNL1       -0.1702
     13 C          -2.3471    0.0041    0.5687 C.2     1  UNL1        0.0711
     14 C          -2.5556   -0.8817    1.7788 C.3     1  UNL1        0.0116
     15 C          -3.5961   -1.9325    1.4497 C.3     1  UNL1        0.0763
     16 S          -5.1255   -1.1204    1.1153 S.O2    1  UNL1       -0.0021
     17 O          -5.8308   -0.8893    2.4258 O.2     1  UNL1       -0.1693
     18 O          -6.0265   -1.9980    0.2605 O.2     1  UNL1       -0.1693
     19 C          -4.7871    0.3852    0.3029 C.ar    1  UNL1        0.0972
     20 C          -5.8644    1.1395   -0.1293 C.ar    1  UNL1       -0.0335
     21 C          -5.6078    2.3313   -0.7590 C.ar    1  UNL1       -0.0246
     22 C          -4.3136    2.7641   -0.9549 C.ar    1  UNL1        0.1241
     23 F          -4.0031    3.9316   -1.5699 F       1  UNL1       -0.2055
     24 C          -3.2404    1.9950   -0.5149 C.ar    1  UNL1       -0.0157
     25 C          -3.4794    0.7971    0.1179 C.ar    1  UNL1        0.0253
     26 C           2.9296    0.1176   -1.1529 C.ar    1  UNL1       -0.0316
     27 C           4.0202   -0.6232   -0.6890 C.ar    1  UNL1       -0.0181
     28 H           8.1386   -1.1747   -0.0877 H       1  UNL1        0.0262
     29 H           7.0241   -1.5792   -1.4407 H       1  UNL1        0.0262
     30 H           6.6475   -0.1977   -0.3367 H       1  UNL1        0.0262
     31 H           7.0008   -2.6527    1.1778 H       1  UNL1        0.0694
     32 H           5.8225   -2.9993   -0.0981 H       1  UNL1        0.0694
     33 H           3.4872   -0.2605    2.6025 H       1  UNL1        0.0655
     34 H           1.5783    1.0360    1.7749 H       1  UNL1        0.0638
     35 H          -1.1264    0.5559   -2.0019 H       1  UNL1        0.1966
     36 H          -2.9086   -0.2876    2.6410 H       1  UNL1        0.0345
     37 H          -1.6130   -1.4117    2.0254 H       1  UNL1        0.0345
     38 H          -3.7009   -2.5759    2.3447 H       1  UNL1        0.0508
     39 H          -3.2640   -2.4867    0.5568 H       1  UNL1        0.0508
     40 H          -6.8605    0.7752    0.0382 H       1  UNL1        0.0638
     41 H          -6.4123    2.9801   -1.1276 H       1  UNL1        0.0647
     42 H          -2.2175    2.3261   -0.6568 H       1  UNL1        0.0653
     43 H           2.8135    0.1963   -2.2279 H       1  UNL1        0.0638
     44 H           4.6808   -1.0726   -1.3932 H       1  UNL1        0.0655
@<TRIPOS>BOND
     1     1     2    1
     2     2     3    1
     3     3     4    1
     4     4     5   ar
     5     5     6   ar
     6     6     7   ar
     7     7     8    1
     8     8     9    2
     9     8    10    2
    10     8    11    1
    11    11    12    1
    12    12    13    2
    13    13    14    1
    14    14    15    1
    15    15    16    1
    16    16    17    2
    17    16    18    2
    18    16    19    1
    19    19    20   ar
    20    20    21   ar
    21    21    22   ar
    22    22    23    1
    23    22    24   ar
    24    24    25   ar
    25     7    26   ar
    26    26    27   ar
    27    27     4   ar
    28    25    13    1
    29    25    19   ar
    30     1    28    1
    31     1    29    1
    32     1    30    1
    33     2    31    1
    34     2    32    1
    35     5    33    1
    36     6    34    1
    37    11    35    1
    38    14    36    1
    39    14    37    1
    40    15    38    1
    41    15    39    1
    42    20    40    1
    43    21    41    1
    44    24    42    1
    45    26    43    1
    46    27    44    1
