
     RDKit          3D

 44 46  0  0  0  0  0  0  0  0999 V2000
    7.0687   -1.2273   -0.3858 C   0  0  0  0  0  0  0  0  0  0  0  0
    6.2812   -2.1580    0.4949 C   0  0  0  0  0  0  0  0  0  0  0  0
    5.2838   -1.4811    1.1968 O   0  0  0  0  0  0  0  0  0  0  0  0
    4.2497   -0.7787    0.6505 C   0  0  0  0  0  0  0  0  0  0  0  0
    3.3599   -0.1742    1.5371 C   0  0  0  0  0  0  0  0  0  0  0  0
    2.2689    0.5668    1.0903 C   0  0  0  0  0  0  0  0  0  0  0  0
    2.0596    0.7087   -0.2634 C   0  0  0  0  0  0  0  0  0  0  0  0
    0.7133    1.6232   -0.8365 S   0  0  0  0  0  6  0  0  0  0  0  0
    0.3851    2.7615    0.1236 O   0  0  0  0  0  0  0  0  0  0  0  0
    1.0101    2.2970   -2.1505 O   0  0  0  0  0  0  0  0  0  0  0  0
   -0.6984    0.6524   -1.0554 N   0  0  0  0  0  0  0  0  0  0  0  0
   -1.2448    0.0183    0.0080 N   0  0  0  0  0  0  0  0  0  0  0  0
   -2.3471    0.0041    0.5687 C   0  0  0  0  0  0  0  0  0  0  0  0
   -2.5556   -0.8817    1.7788 C   0  0  0  0  0  0  0  0  0  0  0  0
   -3.5961   -1.9325    1.4497 C   0  0  0  0  0  0  0  0  0  0  0  0
   -5.1255   -1.1204    1.1153 S   0  0  0  0  0  6  0  0  0  0  0  0
   -5.8308   -0.8893    2.4258 O   0  0  0  0  0  0  0  0  0  0  0  0
   -6.0265   -1.9980    0.2605 O   0  0  0  0  0  0  0  0  0  0  0  0
   -4.7871    0.3852    0.3029 C   0  0  0  0  0  0  0  0  0  0  0  0
   -5.8644    1.1395   -0.1293 C   0  0  0  0  0  0  0  0  0  0  0  0
   -5.6078    2.3313   -0.7590 C   0  0  0  0  0  0  0  0  0  0  0  0
   -4.3136    2.7641   -0.9549 C   0  0  0  0  0  0  0  0  0  0  0  0
   -4.0031    3.9316   -1.5699 F   0  0  0  0  0  0  0  0  0  0  0  0
   -3.2404    1.9950   -0.5149 C   0  0  0  0  0  0  0  0  0  0  0  0
   -3.4794    0.7971    0.1179 C   0  0  0  0  0  0  0  0  0  0  0  0
    2.9296    0.1176   -1.1529 C   0  0  0  0  0  0  0  0  0  0  0  0
    4.0202   -0.6232   -0.6890 C   0  0  0  0  0  0  0  0  0  0  0  0
    8.1386   -1.1747   -0.0877 H   0  0  0  0  0  0  0  0  0  0  0  0
    7.0241   -1.5792   -1.4407 H   0  0  0  0  0  0  0  0  0  0  0  0
    6.6475   -0.1977   -0.3367 H   0  0  0  0  0  0  0  0  0  0  0  0
    7.0008   -2.6527    1.1778 H   0  0  0  0  0  0  0  0  0  0  0  0
    5.8225   -2.9993   -0.0981 H   0  0  0  0  0  0  0  0  0  0  0  0
    3.4872   -0.2605    2.6025 H   0  0  0  0  0  0  0  0  0  0  0  0
    1.5783    1.0360    1.7749 H   0  0  0  0  0  0  0  0  0  0  0  0
   -1.1264    0.5559   -2.0019 H   0  0  0  0  0  0  0  0  0  0  0  0
   -2.9086   -0.2876    2.6410 H   0  0  0  0  0  0  0  0  0  0  0  0
   -1.6130   -1.4117    2.0254 H   0  0  0  0  0  0  0  0  0  0  0  0
   -3.7009   -2.5759    2.3447 H   0  0  0  0  0  0  0  0  0  0  0  0
   -3.2640   -2.4867    0.5568 H   0  0  0  0  0  0  0  0  0  0  0  0
   -6.8605    0.7752    0.0382 H   0  0  0  0  0  0  0  0  0  0  0  0
   -6.4123    2.9801   -1.1276 H   0  0  0  0  0  0  0  0  0  0  0  0
   -2.2175    2.3261   -0.6568 H   0  0  0  0  0  0  0  0  0  0  0  0
    2.8135    0.1963   -2.2279 H   0  0  0  0  0  0  0  0  0  0  0  0
    4.6808   -1.0726   -1.3932 H   0  0  0  0  0  0  0  0  0  0  0  0
  1  2  1  0
  2  3  1  0
  3  4  1  0
  4  5  2  0
  5  6  1  0
  6  7  2  0
  7  8  1  0
  8  9  2  0
  8 10  2  0
  8 11  1  0
 11 12  1  0
 12 13  2  3
 13 14  1  0
 14 15  1  0
 15 16  1  0
 16 17  2  0
 16 18  2  0
 16 19  1  0
 19 20  2  0
 20 21  1  0
 21 22  2  0
 22 23  1  0
 22 24  1  0
 24 25  2  0
  7 26  1  0
 26 27  2  0
 27  4  1  0
 25 13  1  0
 25 19  1  0
  1 28  1  0
  1 29  1  0
  1 30  1  0
  2 31  1  0
  2 32  1  0
  5 33  1  0
  6 34  1  0
 11 35  1  0
 14 36  1  0
 14 37  1  0
 15 38  1  0
 15 39  1  0
 20 40  1  0
 21 41  1  0
 24 42  1  0
 26 43  1  0
 27 44  1  0
M  END
$$$$
