@<TRIPOS>MOLECULE
*****
 48 50 0 0 0
SMALL
GASTEIGER

@<TRIPOS>ATOM
      1 C           5.3181    0.3629    0.1145 C.3     1  UNL1       -0.0256
      2 C           4.4937   -0.9100    0.1824 C.3     1  UNL1        0.1602
      3 C           4.7982   -1.8143   -1.0033 C.3     1  UNL1       -0.0256
      4 O           3.1453   -0.6690    0.2032 O.3     1  UNL1       -0.3566
      5 C           2.7307    0.0141   -0.9353 C.3     1  UNL1        0.0928
      6 C           1.2658    0.2610   -0.8834 C.ar    1  UNL1        0.0892
      7 C           0.6398    1.3602   -0.3415 C.ar    1  UNL1       -0.0108
      8 C          -0.7565    1.2402   -0.4782 C.ar    1  UNL1        0.0696
      9 C          -1.7209    2.2489   -0.0333 C.ar    1  UNL1        0.0002
     10 C          -2.8405    1.9390    0.6968 C.ar    1  UNL1       -0.0499
     11 C          -3.7517    2.9024    1.1062 C.ar    1  UNL1       -0.0258
     12 C          -3.5118    4.2075    0.7618 C.ar    1  UNL1        0.1234
     13 F          -4.3732    5.1977    1.1368 F       1  UNL1       -0.2055
     14 C          -2.4073    4.5830    0.0313 C.ar    1  UNL1       -0.0258
     15 C          -1.5420    3.5862   -0.3453 C.ar    1  UNL1       -0.0499
     16 N          -0.9299    0.0686   -1.1005 N.ar    1  UNL1       -0.2590
     17 C          -2.1723   -0.5072   -1.4949 C.3     1  UNL1        0.0685
     18 C          -2.8407   -1.4164   -0.5857 C.ar    1  UNL1       -0.0078
     19 C          -4.0742   -1.9270   -1.0252 C.ar    1  UNL1       -0.0554
     20 C          -4.8081   -2.7984   -0.2638 C.ar    1  UNL1       -0.0614
     21 C          -4.3656   -3.2103    0.9664 C.ar    1  UNL1       -0.0604
     22 C          -3.1781   -2.7340    1.4173 C.ar    1  UNL1       -0.0431
     23 C          -2.4333   -1.8434    0.6333 C.ar    1  UNL1        0.0459
     24 CL         -0.9298   -1.2737    1.2743 Cl      1  UNL1       -0.0832
     25 N           0.2622   -0.5045   -1.3366 N.ar    1  UNL1       -0.1730
     26 C           4.8748   -1.6035    1.4385 C.2     1  UNL1        0.3365
     27 O           6.0606   -1.9369    1.6667 O.2     1  UNL1       -0.2478
     28 O           3.9263   -1.9056    2.4032 O.3     1  UNL1       -0.4786
     29 H           4.8038    1.1632    0.6835 H       1  UNL1        0.0263
     30 H           6.3026    0.1723    0.5792 H       1  UNL1        0.0263
     31 H           5.4918    0.6735   -0.9465 H       1  UNL1        0.0263
     32 H           5.6705   -2.4515   -0.7568 H       1  UNL1        0.0263
     33 H           3.9449   -2.5215   -1.1569 H       1  UNL1        0.0263
     34 H           4.9167   -1.2296   -1.9219 H       1  UNL1        0.0263
     35 H           3.3061    0.9671   -0.9750 H       1  UNL1        0.0626
     36 H           2.9977   -0.5388   -1.8733 H       1  UNL1        0.0626
     37 H           1.0980    2.2248    0.1349 H       1  UNL1        0.0658
     38 H          -3.0770    0.9318    1.0022 H       1  UNL1        0.0625
     39 H          -4.6255    2.6372    1.6794 H       1  UNL1        0.0646
     40 H          -2.2595    5.6268   -0.2172 H       1  UNL1        0.0646
     41 H          -0.6712    3.8524   -0.9168 H       1  UNL1        0.0625
     42 H          -2.8987    0.3000   -1.7765 H       1  UNL1        0.0559
     43 H          -1.9939   -1.0414   -2.4790 H       1  UNL1        0.0559
     44 H          -4.4875   -1.6447   -1.9896 H       1  UNL1        0.0621
     45 H          -5.7638   -3.1934   -0.6053 H       1  UNL1        0.0618
     46 H          -4.9706   -3.9024    1.5466 H       1  UNL1        0.0618
     47 H          -2.8080   -3.0372    2.3717 H       1  UNL1        0.0632
     48 H           4.1437   -1.9064    3.4115 H       1  UNL1        0.2951
@<TRIPOS>BOND
     1     1     2    1
     2     2     3    1
     3     2     4    1
     4     4     5    1
     5     5     6    1
     6     6     7   ar
     7     7     8   ar
     8     8     9    1
     9     9    10   ar
    10    10    11   ar
    11    11    12   ar
    12    12    13    1
    13    12    14   ar
    14    14    15   ar
    15     8    16   ar
    16    16    17    1
    17    17    18    1
    18    18    19   ar
    19    19    20   ar
    20    20    21   ar
    21    21    22   ar
    22    22    23   ar
    23    23    24    1
    24    16    25   ar
    25     2    26    1
    26    26    27    2
    27    26    28    1
    28    25     6   ar
    29    15     9   ar
    30    23    18   ar
    31     1    29    1
    32     1    30    1
    33     1    31    1
    34     3    32    1
    35     3    33    1
    36     3    34    1
    37     5    35    1
    38     5    36    1
    39     7    37    1
    40    10    38    1
    41    11    39    1
    42    14    40    1
    43    15    41    1
    44    17    42    1
    45    17    43    1
    46    19    44    1
    47    20    45    1
    48    21    46    1
    49    22    47    1
    50    28    48    1
