@<TRIPOS>MOLECULE
*****
 52 54 0 0 0
SMALL
GASTEIGER

@<TRIPOS>ATOM
      1 CA         -3.6997   -0.7381   -1.1821 C.3     1  UNL1        0.0461
      2 C          -4.9075   -1.4612   -0.6120 C.3     1  UNL1       -0.0352
      3 C          -4.4982   -2.7867   -0.0439 C.3     1  UNL1       -0.0635
      4 C          -3.0565   -1.5585   -2.2925 C.3     1  UNL1        0.0626
      5 O          -3.9941   -1.8282   -3.2863 O.3     1  UNL1       -0.3932
      6 N          -2.7237   -0.4593   -0.1469 N.pl3   1  UNL1       -0.3083
      7 C          -1.4586    0.1405    0.0494 C.ar    1  UNL1        0.2203
      8 N          -1.3679    1.4302    0.3932 N.ar    1  UNL1       -0.1949
      9 C          -0.1458    2.0070    0.5815 C.ar    1  UNL1        0.1659
     10 C           0.1960    3.2945    0.9378 C.ar    1  UNL1        0.0193
     11 C           1.5736    3.2653    0.9732 C.ar    1  UNL1        0.0554
     12 N           1.9856    2.0259    0.6535 N.ar    1  UNL1       -0.1702
     13 N           0.9359    1.2280    0.4065 N.ar    1  UNL1       -0.1831
     14 C           0.8895   -0.0714    0.0610 C.ar    1  UNL1        0.2214
     15 N           2.1242   -0.7611   -0.0913 N.pl3   1  UNL1       -0.3092
     16 C           2.9110   -1.4217    0.9111 C.3     1  UNL1        0.0370
     17 C           4.1272   -2.0540    0.3837 C.ar    1  UNL1       -0.0303
     18 C           5.3598   -1.4441    0.2627 C.ar    1  UNL1       -0.0571
     19 C           6.4619   -2.1229   -0.2467 C.ar    1  UNL1       -0.0615
     20 C           6.3201   -3.4186   -0.6345 C.ar    1  UNL1       -0.0617
     21 C           5.0973   -4.0212   -0.5140 C.ar    1  UNL1       -0.0615
     22 C           3.9857   -3.3624   -0.0087 C.ar    1  UNL1       -0.0571
     23 N          -0.3532   -0.6069   -0.1165 N.ar    1  UNL1       -0.1811
     24 C          -0.6488    4.4579    1.2177 C.3     1  UNL1       -0.0165
     25 C          -0.7788    5.2797   -0.0675 C.3     1  UNL1       -0.0585
     26 C          -2.0749    4.0468    1.5954 C.3     1  UNL1       -0.0585
     27 HA         -3.9918    0.2248   -1.6408 H       1  UNL1        0.0521
     28 H          -5.3733   -0.7870    0.1422 H       1  UNL1        0.0281
     29 H          -5.6098   -1.5776   -1.4499 H       1  UNL1        0.0281
     30 H          -4.9688   -3.6258   -0.5918 H       1  UNL1        0.0230
     31 H          -3.3979   -2.9037   -0.0013 H       1  UNL1        0.0230
     32 H          -4.9080   -2.8771    1.0028 H       1  UNL1        0.0230
     33 H1         -2.2161   -0.9466   -2.6995 H       1  UNL1        0.0575
     34 H2         -2.6801   -2.5306   -1.9205 H       1  UNL1        0.0575
     35 H          -4.5672   -2.5940   -2.9747 H       1  UNL1        0.2095
     36 H          -2.9246   -0.7632    0.8293 H       1  UNL1        0.1493
     37 H           2.2428    4.0796    1.2130 H       1  UNL1        0.0851
     38 H           2.2175   -0.6089   -1.1167 H       1  UNL1        0.1492
     39 H           3.2695   -0.6882    1.6935 H       1  UNL1        0.0512
     40 H           2.2569   -2.1334    1.4519 H       1  UNL1        0.0512
     41 H           5.4500   -0.4185    0.5741 H       1  UNL1        0.0621
     42 H           7.3927   -1.5377   -0.2974 H       1  UNL1        0.0618
     43 H           7.2174   -3.8733   -1.0168 H       1  UNL1        0.0618
     44 H           4.9976   -5.0608   -0.8279 H       1  UNL1        0.0618
     45 H           3.0682   -3.8995    0.0542 H       1  UNL1        0.0621
     46 H          -0.2026    5.0936    2.0040 H       1  UNL1        0.0345
     47 H           0.2353    5.7236   -0.2928 H       1  UNL1        0.0235
     48 H          -0.9888    4.6000   -0.9100 H       1  UNL1        0.0235
     49 H          -1.4853    6.1104    0.0545 H       1  UNL1        0.0235
     50 H          -2.7589    4.1531    0.7261 H       1  UNL1        0.0235
     51 H          -2.4152    4.7508    2.3778 H       1  UNL1        0.0235
     52 H          -2.1195    3.0304    2.0282 H       1  UNL1        0.0235
@<TRIPOS>BOND
     1     1     2    1
     2     2     3    1
     3     1     4    1
     4     4     5    1
     5     1     6    1
     6     6     7    1
     7     7     8   ar
     8     8     9   ar
     9     9    10   ar
    10    10    11   ar
    11    11    12   ar
    12    12    13   ar
    13    13    14   ar
    14    14    15    1
    15    15    16    1
    16    16    17    1
    17    17    18   ar
    18    18    19   ar
    19    19    20   ar
    20    20    21   ar
    21    21    22   ar
    22    14    23   ar
    23    10    24    1
    24    24    25    1
    25    24    26    1
    26    23     7   ar
    27    13     9   ar
    28    22    17   ar
    29     1    27    1
    30     2    28    1
    31     2    29    1
    32     3    30    1
    33     3    31    1
    34     3    32    1
    35     4    33    1
    36     4    34    1
    37     5    35    1
    38     6    36    1
    39    11    37    1
    40    15    38    1
    41    16    39    1
    42    16    40    1
    43    18    41    1
    44    19    42    1
    45    20    43    1
    46    21    44    1
    47    22    45    1
    48    24    46    1
    49    25    47    1
    50    25    48    1
    51    25    49    1
    52    26    50    1
    53    26    51    1
    54    26    52    1
