
     RDKit          3D

 56 59  0  0  0  0  0  0  0  0999 V2000
    3.3380    5.7260   -0.1872 C   0  0  0  0  0  0  0  0  0  0  0  0
    2.9865    4.9703   -1.3234 O   0  0  0  0  0  0  0  0  0  0  0  0
    2.3634    3.7343   -1.2372 C   0  0  0  0  0  0  0  0  0  0  0  0
    2.0851    3.2428    0.0189 C   0  0  0  0  0  0  0  0  0  0  0  0
    1.4637    2.0093    0.0862 C   0  0  0  0  0  0  0  0  0  0  0  0
    1.1329    1.2950   -1.0432 C   0  0  0  0  0  0  0  0  0  0  0  0
    0.4665   -0.0162   -0.8608 C   0  0  0  0  0  0  0  0  0  0  0  0
    1.3264   -0.9120   -0.0518 C   0  0  0  0  0  0  0  0  0  0  0  0
    2.5471   -1.3241   -0.5257 C   0  0  0  0  0  0  0  0  0  0  0  0
    3.3700   -2.1621    0.2108 C   0  0  0  0  0  0  0  0  0  0  0  0
    2.9668   -2.5980    1.4461 C   0  0  0  0  0  0  0  0  0  0  0  0
    3.7549   -3.4327    2.2122 O   0  0  0  0  0  0  0  0  0  0  0  0
    4.9985   -3.8428    1.7102 C   0  0  0  0  0  0  0  0  0  0  0  0
    1.7526   -2.2012    1.9425 C   0  0  0  0  0  0  0  0  0  0  0  0
    0.9322   -1.3566    1.1906 C   0  0  0  0  0  0  0  0  0  0  0  0
    0.1096   -0.6183   -2.1303 N   0  0  0  0  0  0  0  0  0  0  0  0
   -1.2266   -1.0521   -2.0290 C   0  0  0  0  0  0  0  0  0  0  0  0
   -1.8209   -1.8052   -2.8862 N   0  0  0  0  0  0  0  0  0  0  0  0
   -1.8404   -0.5395   -0.8359 N   0  0  0  0  0  0  0  0  0  0  0  0
   -3.1923   -0.7520   -0.3686 C   0  0  0  0  0  0  0  0  0  0  0  0
   -3.9636    0.5301   -0.2364 C   0  0  0  0  0  0  0  0  0  0  0  0
   -5.0257    0.4806    0.8342 C   0  0  0  0  0  0  0  0  0  0  0  0
   -5.5537   -0.9294    0.9411 C   0  0  0  0  0  0  0  0  0  0  0  0
   -4.4644   -1.7799    1.5356 C   0  0  0  0  0  0  0  0  0  0  0  0
   -3.1164   -1.5297    0.9195 C   0  0  0  0  0  0  0  0  0  0  0  0
   -0.8395    0.2294   -0.1967 C   0  0  0  0  0  0  0  0  0  0  0  0
   -0.9836    1.0075    0.7774 O   0  0  0  0  0  0  0  0  0  0  0  0
    1.4246    1.8141   -2.2828 C   0  0  0  0  0  0  0  0  0  0  0  0
    2.0423    3.0388   -2.3742 C   0  0  0  0  0  0  0  0  0  0  0  0
    2.4589    5.9537    0.4458 H   0  0  0  0  0  0  0  0  0  0  0  0
    3.7059    6.7116   -0.5728 H   0  0  0  0  0  0  0  0  0  0  0  0
    4.1357    5.2174    0.3748 H   0  0  0  0  0  0  0  0  0  0  0  0
    2.3243    3.7641    0.9303 H   0  0  0  0  0  0  0  0  0  0  0  0
    1.2423    1.6130    1.0667 H   0  0  0  0  0  0  0  0  0  0  0  0
    2.9229   -1.0131   -1.4969 H   0  0  0  0  0  0  0  0  0  0  0  0
    4.3426   -2.4719   -0.2018 H   0  0  0  0  0  0  0  0  0  0  0  0
    4.8755   -4.4695    0.7865 H   0  0  0  0  0  0  0  0  0  0  0  0
    5.5144   -4.4879    2.4573 H   0  0  0  0  0  0  0  0  0  0  0  0
    5.6248   -2.9571    1.5504 H   0  0  0  0  0  0  0  0  0  0  0  0
    1.3918   -2.5203    2.9142 H   0  0  0  0  0  0  0  0  0  0  0  0
   -0.0327   -1.0268    1.5574 H   0  0  0  0  0  0  0  0  0  0  0  0
    0.7305   -0.7046   -2.9429 H   0  0  0  0  0  0  0  0  0  0  0  0
   -1.2838   -2.1203   -3.7154 H   0  0  0  0  0  0  0  0  0  0  0  0
   -3.7013   -1.4008   -1.1094 H   0  0  0  0  0  0  0  0  0  0  0  0
   -4.4715    0.7601   -1.1938 H   0  0  0  0  0  0  0  0  0  0  0  0
   -3.3070    1.3982    0.0063 H   0  0  0  0  0  0  0  0  0  0  0  0
   -4.5231    0.7089    1.7955 H   0  0  0  0  0  0  0  0  0  0  0  0
   -5.8125    1.1986    0.5661 H   0  0  0  0  0  0  0  0  0  0  0  0
   -5.9165   -1.3275   -0.0149 H   0  0  0  0  0  0  0  0  0  0  0  0
   -6.4195   -0.9278    1.6448 H   0  0  0  0  0  0  0  0  0  0  0  0
   -4.3907   -1.5418    2.6180 H   0  0  0  0  0  0  0  0  0  0  0  0
   -4.7872   -2.8396    1.4739 H   0  0  0  0  0  0  0  0  0  0  0  0
   -2.4476   -0.9806    1.6241 H   0  0  0  0  0  0  0  0  0  0  0  0
   -2.6759   -2.5204    0.6865 H   0  0  0  0  0  0  0  0  0  0  0  0
    1.1719    1.2674   -3.1767 H   0  0  0  0  0  0  0  0  0  0  0  0
    2.2937    3.4912   -3.3302 H   0  0  0  0  0  0  0  0  0  0  0  0
  1  2  1  0
  2  3  1  0
  3  4  2  0
  4  5  1  0
  5  6  2  0
  6  7  1  0
  7  8  1  0
  8  9  2  0
  9 10  1  0
 10 11  2  0
 11 12  1  0
 12 13  1  0
 11 14  1  0
 14 15  2  0
  7 16  1  0
 16 17  1  0
 17 18  2  3
 17 19  1  0
 19 20  1  0
 20 21  1  0
 21 22  1  0
 22 23  1  0
 23 24  1  0
 24 25  1  0
 19 26  1  0
 26 27  2  0
  6 28  1  0
 28 29  2  0
 29  3  1  0
 26  7  1  0
 15  8  1  0
 25 20  1  0
  1 30  1  0
  1 31  1  0
  1 32  1  0
  4 33  1  0
  5 34  1  0
  9 35  1  0
 10 36  1  0
 13 37  1  0
 13 38  1  0
 13 39  1  0
 14 40  1  0
 15 41  1  0
 16 42  1  0
 18 43  1  0
 20 44  1  0
 21 45  1  0
 21 46  1  0
 22 47  1  0
 22 48  1  0
 23 49  1  0
 23 50  1  0
 24 51  1  0
 24 52  1  0
 25 53  1  0
 25 54  1  0
 28 55  1  0
 29 56  1  0
M  END
$$$$
