@<TRIPOS>MOLECULE
*****
 56 59 0 0 0
SMALL
GASTEIGER

@<TRIPOS>ATOM
      1 C           3.3380    5.7260   -0.1872 C.3     1  UNL1        0.0788
      2 O           2.9865    4.9703   -1.3234 O.3     1  UNL1       -0.4951
      3 C           2.3634    3.7343   -1.2372 C.ar    1  UNL1        0.1201
      4 C           2.0851    3.2428    0.0189 C.ar    1  UNL1       -0.0196
      5 C           1.4637    2.0093    0.0862 C.ar    1  UNL1       -0.0509
      6 C           1.1329    1.2950   -1.0432 C.ar    1  UNL1        0.0055
      7 C           0.4665   -0.0162   -0.8608 C.3     1  UNL1        0.2215
      8 C           1.3264   -0.9120   -0.0518 C.ar    1  UNL1        0.0055
      9 C           2.5471   -1.3241   -0.5257 C.ar    1  UNL1       -0.0509
     10 C           3.3700   -2.1621    0.2108 C.ar    1  UNL1       -0.0196
     11 C           2.9668   -2.5980    1.4461 C.ar    1  UNL1        0.1201
     12 O           3.7549   -3.4327    2.2122 O.3     1  UNL1       -0.4951
     13 C           4.9985   -3.8428    1.7102 C.3     1  UNL1        0.0788
     14 C           1.7526   -2.2012    1.9425 C.ar    1  UNL1       -0.0196
     15 C           0.9322   -1.3566    1.1906 C.ar    1  UNL1       -0.0509
     16 N           0.1096   -0.6183   -2.1303 N.pl3   1  UNL1       -0.2151
     17 C          -1.2266   -1.0521   -2.0290 C.2     1  UNL1        0.3729
     18 N          -1.8209   -1.8052   -2.8862 N.2     1  UNL1       -0.1329
     19 N          -1.8404   -0.5395   -0.8359 N.am    1  UNL1       -0.1561
     20 C          -3.1923   -0.7520   -0.3686 C.3     1  UNL1        0.0795
     21 C          -3.9636    0.5301   -0.2364 C.3     1  UNL1       -0.0205
     22 C          -5.0257    0.4806    0.8342 C.3     1  UNL1       -0.0501
     23 C          -5.5537   -0.9294    0.9411 C.3     1  UNL1       -0.0529
     24 C          -4.4644   -1.7799    1.5356 C.3     1  UNL1       -0.0501
     25 C          -3.1164   -1.5297    0.9195 C.3     1  UNL1       -0.0205
     26 C          -0.8395    0.2294   -0.1967 C.2     1  UNL1        0.3252
     27 O          -0.9836    1.0075    0.7774 O.2     1  UNL1       -0.2524
     28 C           1.4246    1.8141   -2.2828 C.ar    1  UNL1       -0.0509
     29 C           2.0423    3.0388   -2.3742 C.ar    1  UNL1       -0.0196
     30 H           2.4589    5.9537    0.4458 H       1  UNL1        0.0660
     31 H           3.7059    6.7116   -0.5728 H       1  UNL1        0.0660
     32 H           4.1357    5.2174    0.3748 H       1  UNL1        0.0660
     33 H           2.3243    3.7641    0.9303 H       1  UNL1        0.0654
     34 H           1.2423    1.6130    1.0667 H       1  UNL1        0.0623
     35 H           2.9229   -1.0131   -1.4969 H       1  UNL1        0.0623
     36 H           4.3426   -2.4719   -0.2018 H       1  UNL1        0.0654
     37 H           4.8755   -4.4695    0.7865 H       1  UNL1        0.0660
     38 H           5.5144   -4.4879    2.4573 H       1  UNL1        0.0660
     39 H           5.6248   -2.9571    1.5504 H       1  UNL1        0.0660
     40 H           1.3918   -2.5203    2.9142 H       1  UNL1        0.0654
     41 H          -0.0327   -1.0268    1.5574 H       1  UNL1        0.0623
     42 H           0.7305   -0.7046   -2.9429 H       1  UNL1        0.2462
     43 H          -1.2838   -2.1203   -3.7154 H       1  UNL1        0.3058
     44 H          -3.7013   -1.4008   -1.1094 H       1  UNL1        0.0675
     45 H          -4.4715    0.7601   -1.1938 H       1  UNL1        0.0297
     46 H          -3.3070    1.3982    0.0063 H       1  UNL1        0.0297
     47 H          -4.5231    0.7089    1.7955 H       1  UNL1        0.0266
     48 H          -5.8125    1.1986    0.5661 H       1  UNL1        0.0266
     49 H          -5.9165   -1.3275   -0.0149 H       1  UNL1        0.0265
     50 H          -6.4195   -0.9278    1.6448 H       1  UNL1        0.0265
     51 H          -4.3907   -1.5418    2.6180 H       1  UNL1        0.0266
     52 H          -4.7872   -2.8396    1.4739 H       1  UNL1        0.0266
     53 H          -2.4476   -0.9806    1.6241 H       1  UNL1        0.0297
     54 H          -2.6759   -2.5204    0.6865 H       1  UNL1        0.0297
     55 H           1.1719    1.2674   -3.1767 H       1  UNL1        0.0623
     56 H           2.2937    3.4912   -3.3302 H       1  UNL1        0.0654
@<TRIPOS>BOND
     1     1     2    1
     2     2     3    1
     3     3     4   ar
     4     4     5   ar
     5     5     6   ar
     6     6     7    1
     7     7     8    1
     8     8     9   ar
     9     9    10   ar
    10    10    11   ar
    11    11    12    1
    12    12    13    1
    13    11    14   ar
    14    14    15   ar
    15     7    16    1
    16    16    17    1
    17    17    18    2
    18    17    19    1
    19    19    20    1
    20    20    21    1
    21    21    22    1
    22    22    23    1
    23    23    24    1
    24    24    25    1
    25    19    26   am
    26    26    27    2
    27     6    28   ar
    28    28    29   ar
    29    29     3   ar
    30    26     7    1
    31    15     8   ar
    32    25    20    1
    33     1    30    1
    34     1    31    1
    35     1    32    1
    36     4    33    1
    37     5    34    1
    38     9    35    1
    39    10    36    1
    40    13    37    1
    41    13    38    1
    42    13    39    1
    43    14    40    1
    44    15    41    1
    45    16    42    1
    46    18    43    1
    47    20    44    1
    48    21    45    1
    49    21    46    1
    50    22    47    1
    51    22    48    1
    52    23    49    1
    53    23    50    1
    54    24    51    1
    55    24    52    1
    56    25    53    1
    57    25    54    1
    58    28    55    1
    59    29    56    1
