@<TRIPOS>MOLECULE
*****
 66 66 0 0 0
SMALL
GASTEIGER

@<TRIPOS>ATOM
      1 C          -5.4632   -2.2259    1.5840 C.3     1  UNL1        0.0000
      2 C          -5.3398   -2.0335    0.0869 C.3     1  UNL1        0.0000
      3 P          -4.5567   -0.4318   -0.2054 P.3     1  UNL1        0.0000
      4 C          -5.0625    0.7541    1.0591 C.3     1  UNL1        0.0000
      5 C          -4.5039    2.1075    0.7583 C.3     1  UNL1        0.0000
      6 C          -4.7448    0.1780   -1.8723 C.3     1  UNL1        0.0000
      7 C          -6.0511   -0.3024   -2.4694 C.3     1  UNL1        0.0000
      8 AU         -2.4920   -0.7571    0.0579 Au      1  UNL1        0.0000
      9 S          -1.0561    0.0162    0.5262 S.3     1  UNL1        0.0000
     10 C           0.3055    0.4671   -0.6241 C.3     1  UNL1        0.0000
     11 O           0.8025   -0.7233   -1.0616 O.3     1  UNL1        0.0000
     12 C           2.1019   -0.7582   -1.4842 C.3     1  UNL1        0.0000
     13 C           2.4331   -2.1851   -1.8680 C.3     1  UNL1        0.0000
     14 O           2.2505   -2.9835   -0.7337 O.3     1  UNL1        0.0000
     15 C           2.4568   -4.3563   -0.6971 C.2     1  UNL1        0.0000
     16 C           2.1725   -4.9092    0.6681 C.3     1  UNL1        0.0000
     17 O           2.8274   -4.7721   -1.8184 O.2     1  UNL1        0.0000
     18 C           2.9538   -0.2660   -0.3366 C.3     1  UNL1        0.0000
     19 O           4.3043   -0.5648   -0.4623 O.3     1  UNL1        0.0000
     20 C           4.9909   -1.3332    0.4985 C.2     1  UNL1        0.0000
     21 C           6.4342   -1.6006    0.2773 C.3     1  UNL1        0.0000
     22 O           4.5081   -1.8360    1.5573 O.2     1  UNL1        0.0000
     23 C           2.6551    1.2400   -0.3149 C.3     1  UNL1        0.0000
     24 O           3.5202    1.9459    0.5354 O.3     1  UNL1        0.0000
     25 C           4.3863    2.9056    0.0706 C.2     1  UNL1        0.0000
     26 C           5.3456    3.7122    0.8911 C.3     1  UNL1        0.0000
     27 O           4.3056    3.0625   -1.1688 O.2     1  UNL1        0.0000
     28 C           1.2377    1.3205    0.1843 C.3     1  UNL1        0.0000
     29 O           0.7425    2.6243    0.2832 O.3     1  UNL1        0.0000
     30 C           0.3708    3.2203    1.4614 C.2     1  UNL1        0.0000
     31 C          -0.1229    4.6122    1.2917 C.3     1  UNL1        0.0000
     32 O           0.3949    2.7540    2.6216 O.2     1  UNL1        0.0000
     33 H          -5.6050   -3.3218    1.8004 H       1  UNL1        0.0000
     34 H          -6.2714   -1.6599    2.0497 H       1  UNL1        0.0000
     35 H          -4.4773   -1.9933    2.0647 H       1  UNL1        0.0000
     36 H          -6.3014   -2.1643   -0.4073 H       1  UNL1        0.0000
     37 H          -4.6432   -2.8150   -0.2733 H       1  UNL1        0.0000
     38 H          -4.6687    0.4083    2.0268 H       1  UNL1        0.0000
     39 H          -6.1574    0.7636    1.0891 H       1  UNL1        0.0000
     40 H          -3.6392    2.0629    0.0682 H       1  UNL1        0.0000
     41 H          -4.1802    2.6219    1.6791 H       1  UNL1        0.0000
     42 H          -5.2858    2.7007    0.2378 H       1  UNL1        0.0000
     43 H          -4.7246    1.2990   -1.8156 H       1  UNL1        0.0000
     44 H          -3.8799   -0.0916   -2.4928 H       1  UNL1        0.0000
     45 H          -5.8420   -1.3329   -2.8597 H       1  UNL1        0.0000
     46 H          -6.8233   -0.3704   -1.6996 H       1  UNL1        0.0000
     47 H          -6.3684    0.4016   -3.2558 H       1  UNL1        0.0000
     48 H          -0.1436    1.0903   -1.4400 H       1  UNL1        0.0000
     49 H           2.2975   -0.0930   -2.3626 H       1  UNL1        0.0000
     50 H           3.4739   -2.2531   -2.2591 H       1  UNL1        0.0000
     51 H           1.7724   -2.5097   -2.6907 H       1  UNL1        0.0000
     52 H           2.5786   -5.9249    0.7290 H       1  UNL1        0.0000
     53 H           2.6944   -4.2888    1.4198 H       1  UNL1        0.0000
     54 H           1.0831   -4.9518    0.8441 H       1  UNL1        0.0000
     55 H           2.4983   -0.7007    0.5969 H       1  UNL1        0.0000
     56 H           6.6522   -2.6564    0.0980 H       1  UNL1        0.0000
     57 H           6.8793   -0.9474   -0.4792 H       1  UNL1        0.0000
     58 H           6.9362   -1.3369    1.2503 H       1  UNL1        0.0000
     59 H           2.7764    1.5646   -1.3689 H       1  UNL1        0.0000
     60 H           5.8012    3.1000    1.6833 H       1  UNL1        0.0000
     61 H           6.0856    4.1513    0.1931 H       1  UNL1        0.0000
     62 H           4.8229    4.5705    1.3784 H       1  UNL1        0.0000
     63 H           1.2621    0.8972    1.2110 H       1  UNL1        0.0000
     64 H           0.5511    5.1520    0.6034 H       1  UNL1        0.0000
     65 H          -1.1262    4.5914    0.8250 H       1  UNL1        0.0000
     66 H          -0.1347    5.1550    2.2605 H       1  UNL1        0.0000
@<TRIPOS>BOND
     1     1     2    1
     2     2     3    1
     3     3     4    1
     4     4     5    1
     5     3     6    1
     6     6     7    1
     7     3     8    2
     8     8     9    1
     9     9    10    1
    10    10    11    1
    11    11    12    1
    12    12    13    1
    13    13    14    1
    14    14    15    1
    15    15    16    1
    16    15    17    2
    17    12    18    1
    18    18    19    1
    19    19    20    1
    20    20    21    1
    21    20    22    2
    22    18    23    1
    23    23    24    1
    24    24    25    1
    25    25    26    1
    26    25    27    2
    27    23    28    1
    28    28    29    1
    29    29    30    1
    30    30    31    1
    31    30    32    2
    32    28    10    1
    33     1    33    1
    34     1    34    1
    35     1    35    1
    36     2    36    1
    37     2    37    1
    38     4    38    1
    39     4    39    1
    40     5    40    1
    41     5    41    1
    42     5    42    1
    43     6    43    1
    44     6    44    1
    45     7    45    1
    46     7    46    1
    47     7    47    1
    48    10    48    1
    49    12    49    1
    50    13    50    1
    51    13    51    1
    52    16    52    1
    53    16    53    1
    54    16    54    1
    55    18    55    1
    56    21    56    1
    57    21    57    1
    58    21    58    1
    59    23    59    1
    60    26    60    1
    61    26    61    1
    62    26    62    1
    63    28    63    1
    64    31    64    1
    65    31    65    1
    66    31    66    1
