@<TRIPOS>MOLECULE
*****
 57 58 0 0 0
SMALL
GASTEIGER

@<TRIPOS>ATOM
      1 C           3.0923    0.6065   -1.0782 C.3     1  UNL1        0.0832
      2 C           1.8913   -0.2527   -0.8046 C.3     1  UNL1       -0.0360
      3 C           0.7648   -0.0163   -1.7683 C.3     1  UNL1       -0.0520
      4 C           0.2121    1.3429   -1.8151 C.3     1  UNL1       -0.0530
      5 C          -0.3279    2.0113   -0.6349 C.3     1  UNL1       -0.0516
      6 C          -1.4712    1.4527    0.0974 C.3     1  UNL1       -0.0373
      7 C          -1.3645    0.1420    0.7766 C.3     1  UNL1        0.0147
      8 N          -2.6733   -0.0916    1.4438 N.am    1  UNL1       -0.2811
      9 C          -3.9269   -0.1946    0.8379 C.2     1  UNL1        0.4008
     10 O          -4.0779   -0.0987   -0.3853 O.2     1  UNL1       -0.2265
     11 O          -5.1011   -0.4090    1.5225 O.3     1  UNL1       -0.4447
     12 C          -6.3321   -0.5011    0.8323 C.3     1  UNL1        0.1068
     13 C          -6.6457    0.7590    0.0607 C.3     1  UNL1       -0.0253
     14 C          -7.4148   -0.7434    1.8642 C.3     1  UNL1       -0.0253
     15 C          -6.3718   -1.6529   -0.1509 C.3     1  UNL1       -0.0253
     16 C           3.6908    0.4209   -2.3978 C.2     1  UNL1        0.3123
     17 O           4.7057    1.3164   -2.7160 O.3     1  UNL1       -0.4802
     18 O           3.4578   -0.4079   -3.3129 O.2     1  UNL1       -0.2503
     19 C           4.0470    0.4740    0.0517 C.ar    1  UNL1       -0.0086
     20 C           4.0773    1.2669    1.2039 C.ar    1  UNL1        0.0067
     21 N           5.0661    0.8857    2.0324 N.ar    1  UNL1       -0.3603
     22 C           5.7046   -0.1466    1.4663 C.ar    1  UNL1        0.0468
     23 C           5.1011   -0.4128    0.2620 C.ar    1  UNL1        0.0036
     24 C           5.5541   -1.4310   -0.5398 C.ar    1  UNL1       -0.0523
     25 C           6.6380   -2.2017   -0.1259 C.ar    1  UNL1       -0.0611
     26 C           7.2179   -1.8986    1.0977 C.ar    1  UNL1       -0.0598
     27 C           6.7807   -0.8808    1.9208 C.ar    1  UNL1       -0.0378
     28 H           2.7093    1.6687   -1.0510 H       1  UNL1        0.0463
     29 H           2.1142   -1.3277   -0.7887 H       1  UNL1        0.0276
     30 H           1.5143    0.0242    0.2010 H       1  UNL1        0.0276
     31 H           1.1642   -0.1972   -2.8434 H       1  UNL1        0.0266
     32 H           0.0058   -0.7856   -1.6641 H       1  UNL1        0.0266
     33 H           0.8982    2.0711   -2.3585 H       1  UNL1        0.0265
     34 H          -0.6519    1.2905   -2.5728 H       1  UNL1        0.0265
     35 H          -0.6610    3.0704   -0.9445 H       1  UNL1        0.0266
     36 H           0.4759    2.2787    0.1252 H       1  UNL1        0.0266
     37 H          -1.8918    2.2467    0.8085 H       1  UNL1        0.0280
     38 H          -2.3446    1.3597   -0.6342 H       1  UNL1        0.0280
     39 H          -1.1286   -0.7294    0.1837 H       1  UNL1        0.0463
     40 H          -0.6157    0.2562    1.6082 H       1  UNL1        0.0463
     41 H          -2.7199   -0.2000    2.4983 H       1  UNL1        0.1520
     42 H          -6.7938    0.5741   -1.0239 H       1  UNL1        0.0268
     43 H          -5.8720    1.5436    0.1580 H       1  UNL1        0.0268
     44 H          -7.6014    1.2279    0.4307 H       1  UNL1        0.0268
     45 H          -8.3215   -1.1786    1.3874 H       1  UNL1        0.0268
     46 H          -6.9816   -1.3928    2.6440 H       1  UNL1        0.0268
     47 H          -7.6433    0.2276    2.3610 H       1  UNL1        0.0268
     48 H          -7.4673   -1.8127   -0.3693 H       1  UNL1        0.0268
     49 H          -5.9504   -2.5623    0.3061 H       1  UNL1        0.0268
     50 H          -5.9011   -1.4056   -1.1241 H       1  UNL1        0.0268
     51 H           5.3076    1.2240   -3.5244 H       1  UNL1        0.2951
     52 H           3.3732    2.0710    1.3599 H       1  UNL1        0.0810
     53 H           5.2300    1.3718    2.9390 H       1  UNL1        0.1653
     54 H           5.0932   -1.6534   -1.4864 H       1  UNL1        0.0624
     55 H           7.0463   -3.0177   -0.7062 H       1  UNL1        0.0618
     56 H           8.0750   -2.4786    1.4662 H       1  UNL1        0.0618
     57 H           7.2440   -0.6561    2.8738 H       1  UNL1        0.0638
@<TRIPOS>BOND
     1     1     2    1
     2     2     3    1
     3     3     4    1
     4     4     5    1
     5     5     6    1
     6     6     7    1
     7     7     8    1
     8     8     9   am
     9     9    10    2
    10     9    11    1
    11    11    12    1
    12    12    13    1
    13    12    14    1
    14    12    15    1
    15     1    16    1
    16    16    17    1
    17    16    18    2
    18     1    19    1
    19    19    20   ar
    20    20    21   ar
    21    21    22   ar
    22    22    23   ar
    23    23    24   ar
    24    24    25   ar
    25    25    26   ar
    26    26    27   ar
    27    23    19   ar
    28    27    22   ar
    29     1    28    1
    30     2    29    1
    31     2    30    1
    32     3    31    1
    33     3    32    1
    34     4    33    1
    35     4    34    1
    36     5    35    1
    37     5    36    1
    38     6    37    1
    39     6    38    1
    40     7    39    1
    41     7    40    1
    42     8    41    1
    43    13    42    1
    44    13    43    1
    45    13    44    1
    46    14    45    1
    47    14    46    1
    48    14    47    1
    49    15    48    1
    50    15    49    1
    51    15    50    1
    52    17    51    1
    53    20    52    1
    54    21    53    1
    55    24    54    1
    56    25    55    1
    57    26    56    1
    58    27    57    1
