@<TRIPOS>MOLECULE
*****
 48 51 0 0 0
SMALL
GASTEIGER

@<TRIPOS>ATOM
      1 C           7.6836    0.4543    1.3017 C.3     1  UNL1        0.0128
      2 N           6.5409   -0.1064    0.6092 N.ar    1  UNL1       -0.3379
      3 C           6.3999   -0.1202   -0.7297 C.ar    1  UNL1        0.0980
      4 N           5.2142   -0.7232   -0.9710 N.ar    1  UNL1       -0.2163
      5 C           4.6205   -1.0803    0.1580 C.ar    1  UNL1        0.2114
      6 S           3.0714   -1.8919    0.3854 S.O2    1  UNL1        0.0795
      7 O           3.0639   -3.1977   -0.3588 O.2     1  UNL1       -0.1513
      8 O           2.8018   -2.1410    1.8259 O.2     1  UNL1       -0.1513
      9 N           1.8371   -0.9076   -0.2972 N.3     1  UNL1       -0.1745
     10 C           1.7657    0.3955    0.3730 C.3     1  UNL1        0.0237
     11 C           0.4084    0.8639   -0.1112 C.3     1  UNL1       -0.0208
     12 C           0.4925    0.9854   -1.6132 C.3     1  UNL1       -0.0470
     13 C          -0.9086    0.6917   -2.0493 C.3     1  UNL1       -0.0339
     14 C          -1.4866   -0.2406   -1.0184 C.3     1  UNL1        0.0278
     15 N          -2.7112    0.3133   -0.4786 N.am    1  UNL1       -0.3081
     16 C          -3.8965   -0.4643   -0.5116 C.2     1  UNL1        0.2457
     17 O          -3.8349   -1.6122   -1.0124 O.2     1  UNL1       -0.2701
     18 C          -5.1499    0.0491    0.0182 C.ar    1  UNL1        0.0551
     19 C          -5.8180   -0.5534    1.0665 C.ar    1  UNL1       -0.0468
     20 C          -6.9975   -0.0747    1.5690 C.ar    1  UNL1       -0.0426
     21 C          -7.5601    1.0545    1.0212 C.ar    1  UNL1        0.0424
     22 CL         -9.0699    1.6514    1.6780 Cl      1  UNL1       -0.0835
     23 C          -6.9044    1.6631   -0.0228 C.ar    1  UNL1       -0.0243
     24 C          -5.7176    1.1875   -0.5337 C.ar    1  UNL1        0.0544
     25 CL         -4.9258    1.9942   -1.8577 Cl      1  UNL1       -0.0827
     26 C          -0.4402   -0.3462    0.0887 C.3     1  UNL1       -0.0041
     27 C           0.5354   -1.4900   -0.2007 C.3     1  UNL1        0.0254
     28 C           5.4573   -0.6925    1.1810 C.ar    1  UNL1        0.0507
     29 H           8.4390   -0.3423    1.4632 H       1  UNL1        0.0456
     30 H           8.0596    1.2965    0.7034 H       1  UNL1        0.0456
     31 H           7.3774    0.8966    2.2909 H       1  UNL1        0.0456
     32 H           7.1146    0.2810   -1.4411 H       1  UNL1        0.1029
     33 H           2.5505    1.0725    0.0009 H       1  UNL1        0.0447
     34 H           1.7304    0.3047    1.4587 H       1  UNL1        0.0447
     35 H           0.0582    1.7651    0.3836 H       1  UNL1        0.0317
     36 H           0.8485    1.9606   -1.9419 H       1  UNL1        0.0269
     37 H           1.1400    0.1373   -1.9598 H       1  UNL1        0.0269
     38 H          -0.9770    0.1931   -3.0387 H       1  UNL1        0.0283
     39 H          -1.4605    1.6756   -2.0610 H       1  UNL1        0.0283
     40 H          -1.6268   -1.2607   -1.4151 H       1  UNL1        0.0501
     41 H          -2.6761    1.2763   -0.0800 H       1  UNL1        0.1493
     42 H          -5.3466   -1.4480    1.4804 H       1  UNL1        0.0626
     43 H          -7.4711   -0.5755    2.3765 H       1  UNL1        0.0632
     44 H          -7.3910    2.5614   -0.4282 H       1  UNL1        0.0647
     45 H          -0.8904   -0.4394    1.0803 H       1  UNL1        0.0335
     46 H           0.4923   -2.2697    0.5684 H       1  UNL1        0.0447
     47 H           0.2560   -1.9265   -1.2034 H       1  UNL1        0.0447
     48 H           5.3014   -0.8205    2.2534 H       1  UNL1        0.0845
@<TRIPOS>BOND
     1     1     2    1
     2     2     3   ar
     3     3     4   ar
     4     4     5   ar
     5     5     6    1
     6     6     7    2
     7     6     8    2
     8     6     9    1
     9     9    10    1
    10    10    11    1
    11    11    12    1
    12    12    13    1
    13    13    14    1
    14    14    15    1
    15    15    16   am
    16    16    17    2
    17    16    18    1
    18    18    19   ar
    19    19    20   ar
    20    20    21   ar
    21    21    22    1
    22    21    23   ar
    23    23    24   ar
    24    24    25    1
    25    14    26    1
    26    26    27    1
    27     5    28   ar
    28    28     2   ar
    29    27     9    1
    30    26    11    1
    31    24    18   ar
    32     1    29    1
    33     1    30    1
    34     1    31    1
    35     3    32    1
    36    10    33    1
    37    10    34    1
    38    11    35    1
    39    12    36    1
    40    12    37    1
    41    13    38    1
    42    13    39    1
    43    14    40    1
    44    15    41    1
    45    19    42    1
    46    20    43    1
    47    23    44    1
    48    26    45    1
    49    27    46    1
    50    27    47    1
    51    28    48    1
