
     RDKit          3D

 48 51  0  0  0  0  0  0  0  0999 V2000
    7.6836    0.4543    1.3017 C   0  0  0  0  0  0  0  0  0  0  0  0
    6.5409   -0.1064    0.6092 N   0  0  0  0  0  0  0  0  0  0  0  0
    6.3999   -0.1202   -0.7297 C   0  0  0  0  0  0  0  0  0  0  0  0
    5.2142   -0.7232   -0.9710 N   0  0  0  0  0  0  0  0  0  0  0  0
    4.6205   -1.0803    0.1580 C   0  0  0  0  0  0  0  0  0  0  0  0
    3.0714   -1.8919    0.3854 S   0  0  0  0  0  6  0  0  0  0  0  0
    3.0639   -3.1977   -0.3588 O   0  0  0  0  0  0  0  0  0  0  0  0
    2.8018   -2.1410    1.8259 O   0  0  0  0  0  0  0  0  0  0  0  0
    1.8371   -0.9076   -0.2972 N   0  0  0  0  0  0  0  0  0  0  0  0
    1.7657    0.3955    0.3730 C   0  0  0  0  0  0  0  0  0  0  0  0
    0.4084    0.8639   -0.1112 C   0  0  0  0  0  0  0  0  0  0  0  0
    0.4925    0.9854   -1.6132 C   0  0  0  0  0  0  0  0  0  0  0  0
   -0.9086    0.6917   -2.0493 C   0  0  0  0  0  0  0  0  0  0  0  0
   -1.4866   -0.2406   -1.0184 C   0  0  0  0  0  0  0  0  0  0  0  0
   -2.7112    0.3133   -0.4786 N   0  0  0  0  0  0  0  0  0  0  0  0
   -3.8965   -0.4643   -0.5116 C   0  0  0  0  0  0  0  0  0  0  0  0
   -3.8349   -1.6122   -1.0124 O   0  0  0  0  0  0  0  0  0  0  0  0
   -5.1499    0.0491    0.0182 C   0  0  0  0  0  0  0  0  0  0  0  0
   -5.8180   -0.5534    1.0665 C   0  0  0  0  0  0  0  0  0  0  0  0
   -6.9975   -0.0747    1.5690 C   0  0  0  0  0  0  0  0  0  0  0  0
   -7.5601    1.0545    1.0212 C   0  0  0  0  0  0  0  0  0  0  0  0
   -9.0699    1.6514    1.6780 Cl  0  0  0  0  0  0  0  0  0  0  0  0
   -6.9044    1.6631   -0.0228 C   0  0  0  0  0  0  0  0  0  0  0  0
   -5.7176    1.1875   -0.5337 C   0  0  0  0  0  0  0  0  0  0  0  0
   -4.9258    1.9942   -1.8577 Cl  0  0  0  0  0  0  0  0  0  0  0  0
   -0.4402   -0.3462    0.0887 C   0  0  0  0  0  0  0  0  0  0  0  0
    0.5354   -1.4900   -0.2007 C   0  0  0  0  0  0  0  0  0  0  0  0
    5.4573   -0.6925    1.1810 C   0  0  0  0  0  0  0  0  0  0  0  0
    8.4390   -0.3423    1.4632 H   0  0  0  0  0  0  0  0  0  0  0  0
    8.0596    1.2965    0.7034 H   0  0  0  0  0  0  0  0  0  0  0  0
    7.3774    0.8966    2.2909 H   0  0  0  0  0  0  0  0  0  0  0  0
    7.1146    0.2810   -1.4411 H   0  0  0  0  0  0  0  0  0  0  0  0
    2.5505    1.0725    0.0009 H   0  0  0  0  0  0  0  0  0  0  0  0
    1.7304    0.3047    1.4587 H   0  0  0  0  0  0  0  0  0  0  0  0
    0.0582    1.7651    0.3836 H   0  0  0  0  0  0  0  0  0  0  0  0
    0.8485    1.9606   -1.9419 H   0  0  0  0  0  0  0  0  0  0  0  0
    1.1400    0.1373   -1.9598 H   0  0  0  0  0  0  0  0  0  0  0  0
   -0.9770    0.1931   -3.0387 H   0  0  0  0  0  0  0  0  0  0  0  0
   -1.4605    1.6756   -2.0610 H   0  0  0  0  0  0  0  0  0  0  0  0
   -1.6268   -1.2607   -1.4151 H   0  0  0  0  0  0  0  0  0  0  0  0
   -2.6761    1.2763   -0.0800 H   0  0  0  0  0  0  0  0  0  0  0  0
   -5.3466   -1.4480    1.4804 H   0  0  0  0  0  0  0  0  0  0  0  0
   -7.4711   -0.5755    2.3765 H   0  0  0  0  0  0  0  0  0  0  0  0
   -7.3910    2.5614   -0.4282 H   0  0  0  0  0  0  0  0  0  0  0  0
   -0.8904   -0.4394    1.0803 H   0  0  0  0  0  0  0  0  0  0  0  0
    0.4923   -2.2697    0.5684 H   0  0  0  0  0  0  0  0  0  0  0  0
    0.2560   -1.9265   -1.2034 H   0  0  0  0  0  0  0  0  0  0  0  0
    5.3014   -0.8205    2.2534 H   0  0  0  0  0  0  0  0  0  0  0  0
  1  2  1  0
  2  3  1  0
  3  4  2  0
  4  5  1  0
  5  6  1  0
  6  7  2  0
  6  8  2  0
  6  9  1  0
  9 10  1  0
 10 11  1  0
 11 12  1  0
 12 13  1  0
 13 14  1  0
 14 15  1  0
 15 16  1  0
 16 17  2  0
 16 18  1  0
 18 19  2  0
 19 20  1  0
 20 21  2  0
 21 22  1  0
 21 23  1  0
 23 24  2  0
 24 25  1  0
 14 26  1  0
 26 27  1  0
  5 28  2  0
 28  2  1  0
 27  9  1  0
 26 11  1  0
 24 18  1  0
  1 29  1  0
  1 30  1  0
  1 31  1  0
  3 32  1  0
 10 33  1  0
 10 34  1  0
 11 35  1  0
 12 36  1  0
 12 37  1  0
 13 38  1  0
 13 39  1  0
 14 40  1  0
 15 41  1  0
 19 42  1  0
 20 43  1  0
 23 44  1  0
 26 45  1  0
 27 46  1  0
 27 47  1  0
 28 48  1  0
M  END
$$$$
