@<TRIPOS>MOLECULE
*****
 31 33 0 0 0
SMALL
GASTEIGER

@<TRIPOS>ATOM
      1 C          -3.8835    1.8884   -0.2973 C.3     1  UNL1       -0.0155
      2 N          -4.2809    0.6519    0.3005 N.3     1  UNL1       -0.3150
      3 C          -3.7215   -0.5263   -0.2810 C.3     1  UNL1        0.0210
      4 C          -2.2503   -0.6040   -0.2483 C.ar    1  UNL1       -0.0336
      5 C          -1.3917   -0.1234   -1.2430 C.ar    1  UNL1       -0.0567
      6 C          -0.0208   -0.2529   -1.1025 C.ar    1  UNL1       -0.0522
      7 C           0.5547   -0.8495    0.0017 C.ar    1  UNL1        0.0026
      8 C          -0.2755   -1.3303    0.9946 C.ar    1  UNL1       -0.0522
      9 C          -1.6428   -1.2038    0.8597 C.ar    1  UNL1       -0.0567
     10 C           2.0045   -0.9717    0.1220 C.ar    1  UNL1        0.1016
     11 N           2.6550   -2.0836    0.5166 N.ar    1  UNL1       -0.2331
     12 C           3.9942   -2.1341    0.6076 C.ar    1  UNL1        0.1191
     13 N           4.7868   -1.0718    0.3095 N.ar    1  UNL1       -0.2163
     14 C           4.1373    0.0350   -0.0834 C.ar    1  UNL1        0.1614
     15 C           2.7491    0.1468   -0.1969 C.ar    1  UNL1        0.1335
     16 N           2.4836    1.4032   -0.6165 N.ar    1  UNL1       -0.2321
     17 C           3.6627    2.0367   -0.7549 C.ar    1  UNL1        0.0957
     18 N           4.6818    1.2167   -0.4338 N.ar    1  UNL1       -0.3292
     19 H          -4.7576    2.5940   -0.1799 H       1  UNL1        0.0388
     20 H          -3.5953    1.8095   -1.3644 H       1  UNL1        0.0388
     21 H          -3.0474    2.4090    0.2530 H       1  UNL1        0.0388
     22 H          -5.2976    0.5197    0.3820 H       1  UNL1        0.1219
     23 H          -4.0225   -0.6907   -1.3350 H       1  UNL1        0.0473
     24 H          -4.1212   -1.3906    0.2883 H       1  UNL1        0.0473
     25 H          -1.8466    0.3360   -2.0926 H       1  UNL1        0.0621
     26 H           0.6272    0.1338   -1.8995 H       1  UNL1        0.0624
     27 H           0.1601   -1.8049    1.8749 H       1  UNL1        0.0624
     28 H          -2.2444   -1.5921    1.6559 H       1  UNL1        0.0621
     29 H           4.4225   -3.0828    0.9372 H       1  UNL1        0.1048
     30 H           3.7856    3.0626   -1.0786 H       1  UNL1        0.1027
     31 H           5.6946    1.4692   -0.4586 H       1  UNL1        0.1682
@<TRIPOS>BOND
     1     1     2    1
     2     2     3    1
     3     3     4    1
     4     4     5   ar
     5     5     6   ar
     6     6     7   ar
     7     7     8   ar
     8     8     9   ar
     9     7    10    1
    10    10    11   ar
    11    11    12   ar
    12    12    13   ar
    13    13    14   ar
    14    14    15   ar
    15    15    16   ar
    16    16    17   ar
    17    17    18   ar
    18     9     4   ar
    19    15    10   ar
    20    18    14   ar
    21     1    19    1
    22     1    20    1
    23     1    21    1
    24     2    22    1
    25     3    23    1
    26     3    24    1
    27     5    25    1
    28     6    26    1
    29     8    27    1
    30     9    28    1
    31    12    29    1
    32    17    30    1
    33    18    31    1
