
     RDKit          3D

 21 20  0  0  0  0  0  0  0  0999 V2000
   -2.9344    0.6026    0.0196 N   0  0  0  0  0  0  0  0  0  0  0  0
   -2.3816   -0.7349   -0.0275 C   0  0  0  0  0  0  0  0  0  0  0  0
   -1.0000   -0.7505   -0.6476 C   0  0  0  0  0  0  0  0  0  0  0  0
   -0.0312    0.1060    0.1342 C   0  0  0  0  0  0  0  0  0  0  0  0
    1.3240    0.0412   -0.5432 C   0  0  2  0  0  0  0  0  0  0  0  0
    1.8232   -1.2714   -0.5956 N   0  0  0  0  0  0  0  0  0  0  0  0
    2.3076    0.9182    0.1334 C   0  0  0  0  0  0  0  0  0  0  0  0
    2.0584    2.2841    0.3196 O   0  0  0  0  0  0  0  0  0  0  0  0
    3.4122    0.4769    0.5721 O   0  0  0  0  0  0  0  0  0  0  0  0
   -3.1314    0.9403    0.9771 H   0  0  0  0  0  0  0  0  0  0  0  0
   -2.3944    1.2758   -0.5663 H   0  0  0  0  0  0  0  0  0  0  0  0
   -3.0394   -1.3376   -0.6870 H   0  0  0  0  0  0  0  0  0  0  0  0
   -2.3093   -1.2004    0.9778 H   0  0  0  0  0  0  0  0  0  0  0  0
   -1.0402   -0.4022   -1.6862 H   0  0  0  0  0  0  0  0  0  0  0  0
   -0.6324   -1.7996   -0.5860 H   0  0  0  0  0  0  0  0  0  0  0  0
   -0.3483    1.1688    0.1667 H   0  0  0  0  0  0  0  0  0  0  0  0
    0.0498   -0.2249    1.1837 H   0  0  0  0  0  0  0  0  0  0  0  0
    1.1982    0.3975   -1.5986 H   0  0  0  0  0  0  0  0  0  0  0  0
    2.0093   -1.7702    0.2625 H   0  0  0  0  0  0  0  0  0  0  0  0
    2.2825   -1.5817   -1.4555 H   0  0  0  0  0  0  0  0  0  0  0  0
    2.7773    2.8620    0.7090 H   0  0  0  0  0  0  0  0  0  0  0  0
  1  2  1  0
  2  3  1  0
  3  4  1  0
  4  5  1  0
  5  6  1  0
  5  7  1  0
  7  8  1  0
  7  9  2  0
  1 10  1  0
  1 11  1  0
  2 12  1  0
  2 13  1  0
  3 14  1  0
  3 15  1  0
  4 16  1  0
  4 17  1  0
  5 18  1  6
  6 19  1  0
  6 20  1  0
  8 21  1  0
M  END
$$$$
