
     RDKit          3D

247247  0  0  0  0  0  0  0  0999 V2000
    0.9275   -2.6402   -4.9834 C   0  0  0  0  0  0  0  0  0  0  0  0
    2.2786   -2.4374   -5.6507 C   0  0  0  0  0  0  0  0  0  0  0  0
    2.3592   -3.0044   -7.0317 C   0  0  0  0  0  0  0  0  0  0  0  0
    2.3280   -0.8987   -5.8344 C   0  0  0  0  0  0  0  0  0  0  0  0
    3.4462   -2.7228   -4.7978 C   0  0  0  0  0  0  0  0  0  0  0  0
    3.6924   -4.0319   -4.2315 C   0  0  0  0  0  0  0  0  0  0  0  0
    2.6324   -4.5790   -3.3211 C   0  0  0  0  0  0  0  0  0  0  0  0
    4.0356   -5.1512   -5.1968 C   0  0  0  0  0  0  0  0  0  0  0  0
    4.9556   -3.8688   -3.3675 C   0  0  0  0  0  0  0  0  0  0  0  0
    4.6045   -3.5547   -2.0004 C   0  0  0  0  0  0  0  0  0  0  0  0
    5.7432   -3.4076   -1.1212 C   0  0  0  0  0  0  0  0  0  0  0  0
    7.0887   -3.5372   -1.4774 C   0  0  0  0  0  0  0  0  0  0  0  0
    8.0103   -3.3500   -0.4633 O   0  0  0  0  0  0  0  0  0  0  0  0
    7.4258   -2.9238    0.8307 C   0  0  0  0  0  0  0  0  0  0  0  0
    6.9627   -1.5161    0.6245 C   0  0  0  0  0  0  0  0  0  0  0  0
    6.3349   -0.8938    1.6944 O   0  0  0  0  0  0  0  0  0  0  0  0
    6.9656   -0.9195    2.8801 C   0  0  0  0  0  0  0  0  0  0  0  0
    6.5113    0.1077    3.9201 C   0  0  0  0  0  0  0  0  0  0  0  0
    7.2683   -0.0693    5.0637 O   0  0  0  0  0  0  0  0  0  0  0  0
    7.3206    0.9218    5.9933 C   0  0  0  0  0  0  0  0  0  0  0  0
    6.0525    1.5822    6.4296 C   0  0  0  0  0  0  0  0  0  0  0  0
    5.4585    2.2056    5.3002 O   0  0  0  0  0  0  0  0  0  0  0  0
    4.4444    3.0611    5.7504 C   0  0  0  0  0  0  0  0  0  0  0  0
    3.7323    3.7078    4.5890 C   0  0  0  0  0  0  0  0  0  0  0  0
    4.6339    4.4396    3.7800 O   0  0  0  0  0  0  0  0  0  0  0  0
    3.8347    5.0050    2.7575 C   0  0  0  0  0  0  0  0  0  0  0  0
    4.6254    5.6827    1.6983 C   0  0  0  0  0  0  0  0  0  0  0  0
    3.7393    6.2312    0.7549 O   0  0  0  0  0  0  0  0  0  0  0  0
    2.8624    5.3213    0.2190 C   0  0  0  0  0  0  0  0  0  0  0  0
    1.9766    6.0124   -0.8215 C   0  0  0  0  0  0  0  0  0  0  0  0
    1.0862    5.0126   -1.2731 O   0  0  0  0  0  0  0  0  0  0  0  0
    0.1492    5.4369   -2.1613 C   0  0  0  0  0  0  0  0  0  0  0  0
   -0.8262    4.2626   -2.3853 C   0  0  0  0  0  0  0  0  0  0  0  0
   -0.1273    3.2102   -2.9774 O   0  0  0  0  0  0  0  0  0  0  0  0
   -0.9369    2.0938   -3.0748 C   0  0  0  0  0  0  0  0  0  0  0  0
   -0.2151    1.0412   -3.8846 C   0  0  0  0  0  0  0  0  0  0  0  0
    0.0200    1.5578   -5.1780 O   0  0  0  0  0  0  0  0  0  0  0  0
   -1.1347    1.8375   -5.8671 C   0  0  0  0  0  0  0  0  0  0  0  0
   -0.8284    2.4089   -7.2272 C   0  0  0  0  0  0  0  0  0  0  0  0
   -0.1651    3.5771   -7.2761 O   0  0  0  0  0  0  0  0  0  0  0  0
    1.0775    3.6007   -6.7610 C   0  0  0  0  0  0  0  0  0  0  0  0
    1.7150    4.9915   -6.8968 C   0  0  0  0  0  0  0  0  0  0  0  0
    0.9395    5.9153   -6.1818 O   0  0  0  0  0  0  0  0  0  0  0  0
    1.4140    7.1619   -6.3572 C   0  0  0  0  0  0  0  0  0  0  0  0
    0.7855    8.3148   -5.6396 C   0  0  0  0  0  0  0  0  0  0  0  0
   -0.5164    8.5054   -5.9429 O   0  0  0  0  0  0  0  0  0  0  0  0
   -1.4407    7.6617   -5.3378 C   0  0  0  0  0  0  0  0  0  0  0  0
   -1.6211    8.0913   -3.8761 C   0  0  0  0  0  0  0  0  0  0  0  0
   -2.4882    7.2807   -3.1798 O   0  0  0  0  0  0  0  0  0  0  0  0
   -2.9029    7.8268   -2.0019 C   0  0  0  0  0  0  0  0  0  0  0  0
   -3.4175    6.7504   -1.0412 C   0  0  0  0  0  0  0  0  0  0  0  0
   -4.4225    5.9931   -1.5010 O   0  0  0  0  0  0  0  0  0  0  0  0
   -4.9684    4.9929   -0.7451 C   0  0  0  0  0  0  0  0  0  0  0  0
   -3.8959    4.0213   -0.1978 C   0  0  0  0  0  0  0  0  0  0  0  0
   -3.0380    4.7206    0.6296 O   0  0  0  0  0  0  0  0  0  0  0  0
   -3.5157    5.1878    1.7994 C   0  0  0  0  0  0  0  0  0  0  0  0
   -3.7171    4.0975    2.8786 C   0  0  0  0  0  0  0  0  0  0  0  0
   -2.5107    3.5688    3.1387 O   0  0  0  0  0  0  0  0  0  0  0  0
   -2.2034    2.6475    4.0436 C   0  0  0  0  0  0  0  0  0  0  0  0
   -0.6723    2.4669    3.9092 C   0  0  0  0  0  0  0  0  0  0  0  0
   -0.0456    1.6128    4.6912 O   0  0  0  0  0  0  0  0  0  0  0  0
    0.0350    1.8178    6.0425 C   0  0  0  0  0  0  0  0  0  0  0  0
    0.9500    0.8460    6.6880 C   0  0  0  0  0  0  0  0  0  0  0  0
    0.6332   -0.4784    6.6470 O   0  0  0  0  0  0  0  0  0  0  0  0
    1.7363   -1.1652    7.1435 C   0  0  0  0  0  0  0  0  0  0  0  0
    1.6898   -2.6061    7.3757 C   0  0  0  0  0  0  0  0  0  0  0  0
    1.3930   -3.4432    6.3472 O   0  0  0  0  0  0  0  0  0  0  0  0
    1.6109   -4.8201    6.6228 C   0  0  0  0  0  0  0  0  0  0  0  0
    0.9284   -5.5328    5.4551 C   0  0  0  0  0  0  0  0  0  0  0  0
    1.5408   -5.0723    4.2661 O   0  0  0  0  0  0  0  0  0  0  0  0
    0.6538   -5.3933    3.2554 C   0  0  0  0  0  0  0  0  0  0  0  0
    0.5134   -6.8545    2.9952 C   0  0  0  0  0  0  0  0  0  0  0  0
   -0.4880   -7.0607    2.0313 O   0  0  0  0  0  0  0  0  0  0  0  0
   -0.4417   -6.1352    0.9698 C   0  0  0  0  0  0  0  0  0  0  0  0
   -1.6719   -6.4022    0.1409 C   0  0  0  0  0  0  0  0  0  0  0  0
   -2.0510   -5.8038   -0.9193 O   0  0  0  0  0  0  0  0  0  0  0  0
   -2.3482   -4.6035   -1.2791 C   0  0  0  0  0  0  0  0  0  0  0  0
   -1.1975   -3.6060   -1.4481 C   0  0  0  0  0  0  0  0  0  0  0  0
   -0.5441   -3.4650   -0.3145 O   0  0  0  0  0  0  0  0  0  0  0  0
    0.5517   -2.8385   -0.0770 C   0  0  0  0  0  0  0  0  0  0  0  0
    1.0250   -1.4857   -0.1506 C   0  0  0  0  0  0  0  0  0  0  0  0
    0.3968   -0.5100    0.6265 O   0  0  0  0  0  0  0  0  0  0  0  0
    0.5254   -0.8723    1.9819 C   0  0  0  0  0  0  0  0  0  0  0  0
   -0.7735   -1.4102    2.5869 C   0  0  0  0  0  0  0  0  0  0  0  0
   -0.6123   -1.8328    3.8570 O   0  0  0  0  0  0  0  0  0  0  0  0
   -1.5461   -2.1571    4.6869 C   0  0  0  0  0  0  0  0  0  0  0  0
   -2.7290   -3.0302    4.3583 C   0  0  0  0  0  0  0  0  0  0  0  0
   -3.3903   -3.1720    5.5824 O   0  0  0  0  0  0  0  0  0  0  0  0
   -4.6743   -3.5925    5.5220 C   0  0  0  0  0  0  0  0  0  0  0  0
   -4.9555   -4.7922    4.6486 C   0  0  0  0  0  0  0  0  0  0  0  0
   -4.5408   -4.4789    3.3273 O   0  0  0  0  0  0  0  0  0  0  0  0
   -4.8893   -5.3186    2.3411 C   0  0  0  0  0  0  0  0  0  0  0  0
   -6.3849   -5.2842    2.0041 C   0  0  0  0  0  0  0  0  0  0  0  0
   -6.8225   -4.0592    1.5400 O   0  0  0  0  0  0  0  0  0  0  0  0
   -6.6344   -2.9860    2.3580 C   0  0  0  0  0  0  0  0  0  0  0  0
   -7.1811   -1.6565    1.8946 C   0  0  0  0  0  0  0  0  0  0  0  0
   -6.6278   -1.2119    0.6693 O   0  0  0  0  0  0  0  0  0  0  0  0
   -7.0884    0.1023    0.5164 C   0  0  0  0  0  0  0  0  0  0  0  0
   -6.6807    0.7946   -0.7364 C   0  0  0  0  0  0  0  0  0  0  0  0
   -7.1116    0.1317   -1.9177 O   0  0  0  0  0  0  0  0  0  0  0  0
   -6.6684    1.0074   -2.9403 C   0  0  0  0  0  0  0  0  0  0  0  0
   -7.0552    0.5290   -4.3081 C   0  0  0  0  0  0  0  0  0  0  0  0
   -8.4428    0.4054   -4.4242 O   0  0  0  0  0  0  0  0  0  0  0  0
    6.7878   -3.7824   -2.6551 C   0  0  0  0  0  0  0  0  0  0  0  0
    6.3772   -4.0345   -3.8877 C   0  0  0  0  0  0  0  0  0  0  0  0
    0.1679   -2.1063   -5.6290 H   0  0  0  0  0  0  0  0  0  0  0  0
    0.6311   -3.6558   -4.8452 H   0  0  0  0  0  0  0  0  0  0  0  0
    0.9828   -1.9933   -4.0657 H   0  0  0  0  0  0  0  0  0  0  0  0
    1.9050   -3.9919   -7.1815 H   0  0  0  0  0  0  0  0  0  0  0  0
    1.8101   -2.3286   -7.7195 H   0  0  0  0  0  0  0  0  0  0  0  0
    3.4197   -2.9163   -7.3567 H   0  0  0  0  0  0  0  0  0  0  0  0
    3.1148   -0.6538   -6.5658 H   0  0  0  0  0  0  0  0  0  0  0  0
    1.3550   -0.5730   -6.2479 H   0  0  0  0  0  0  0  0  0  0  0  0
    2.5109   -0.4285   -4.8533 H   0  0  0  0  0  0  0  0  0  0  0  0
    3.3785   -1.9903   -3.9256 H   0  0  0  0  0  0  0  0  0  0  0  0
    4.3576   -2.3883   -5.3288 H   0  0  0  0  0  0  0  0  0  0  0  0
    1.9873   -5.3412   -3.8398 H   0  0  0  0  0  0  0  0  0  0  0  0
    3.1355   -5.1728   -2.5416 H   0  0  0  0  0  0  0  0  0  0  0  0
    2.0348   -3.7912   -2.8814 H   0  0  0  0  0  0  0  0  0  0  0  0
    4.5784   -4.7974   -6.0695 H   0  0  0  0  0  0  0  0  0  0  0  0
    3.1240   -5.7775   -5.4017 H   0  0  0  0  0  0  0  0  0  0  0  0
    4.7377   -5.8310   -4.6513 H   0  0  0  0  0  0  0  0  0  0  0  0
    3.5363   -3.4193   -1.7169 H   0  0  0  0  0  0  0  0  0  0  0  0
    5.1379   -3.1643   -0.1633 H   0  0  0  0  0  0  0  0  0  0  0  0
    6.6085   -3.5739    1.1200 H   0  0  0  0  0  0  0  0  0  0  0  0
    8.2702   -2.9241    1.5274 H   0  0  0  0  0  0  0  0  0  0  0  0
    6.4172   -1.2909   -0.2881 H   0  0  0  0  0  0  0  0  0  0  0  0
    7.9307   -0.8662    0.4869 H   0  0  0  0  0  0  0  0  0  0  0  0
    6.7638   -1.9286    3.3889 H   0  0  0  0  0  0  0  0  0  0  0  0
    8.0640   -0.8733    2.8351 H   0  0  0  0  0  0  0  0  0  0  0  0
    5.4504   -0.0189    4.1585 H   0  0  0  0  0  0  0  0  0  0  0  0
    6.7304    1.1271    3.5645 H   0  0  0  0  0  0  0  0  0  0  0  0
    7.9398    1.7601    5.4586 H   0  0  0  0  0  0  0  0  0  0  0  0
    7.9625    0.6734    6.8632 H   0  0  0  0  0  0  0  0  0  0  0  0
    6.2738    2.3283    7.1991 H   0  0  0  0  0  0  0  0  0  0  0  0
    5.3185    0.8350    6.8267 H   0  0  0  0  0  0  0  0  0  0  0  0
    4.8626    3.8898    6.3864 H   0  0  0  0  0  0  0  0  0  0  0  0
    3.7072    2.5470    6.3821 H   0  0  0  0  0  0  0  0  0  0  0  0
    2.9666    4.3813    5.0240 H   0  0  0  0  0  0  0  0  0  0  0  0
    3.2427    2.9184    3.9744 H   0  0  0  0  0  0  0  0  0  0  0  0
    3.2143    5.7689    3.3066 H   0  0  0  0  0  0  0  0  0  0  0  0
    3.2102    4.1545    2.3772 H   0  0  0  0  0  0  0  0  0  0  0  0
    5.2594    4.8920    1.1808 H   0  0  0  0  0  0  0  0  0  0  0  0
    5.2617    6.4491    2.1480 H   0  0  0  0  0  0  0  0  0  0  0  0
    3.3607    4.4434   -0.1992 H   0  0  0  0  0  0  0  0  0  0  0  0
    2.1571    4.9401    1.0159 H   0  0  0  0  0  0  0  0  0  0  0  0
    2.5488    6.3473   -1.6734 H   0  0  0  0  0  0  0  0  0  0  0  0
    1.3701    6.8270   -0.4086 H   0  0  0  0  0  0  0  0  0  0  0  0
   -0.3558    6.3606   -1.8931 H   0  0  0  0  0  0  0  0  0  0  0  0
    0.6523    5.5945   -3.1620 H   0  0  0  0  0  0  0  0  0  0  0  0
   -1.7043    4.5783   -2.9340 H   0  0  0  0  0  0  0  0  0  0  0  0
   -1.1443    3.9293   -1.3538 H   0  0  0  0  0  0  0  0  0  0  0  0
   -1.0306    1.6916   -2.0146 H   0  0  0  0  0  0  0  0  0  0  0  0
   -1.9318    2.3029   -3.4760 H   0  0  0  0  0  0  0  0  0  0  0  0
   -0.8408    0.1478   -3.9757 H   0  0  0  0  0  0  0  0  0  0  0  0
    0.7488    0.7679   -3.4047 H   0  0  0  0  0  0  0  0  0  0  0  0
   -1.7922    2.5788   -5.3601 H   0  0  0  0  0  0  0  0  0  0  0  0
   -1.7255    0.9074   -6.0471 H   0  0  0  0  0  0  0  0  0  0  0  0
   -0.2789    1.6053   -7.8379 H   0  0  0  0  0  0  0  0  0  0  0  0
   -1.8366    2.4813   -7.7512 H   0  0  0  0  0  0  0  0  0  0  0  0
    1.0496    3.4310   -5.6496 H   0  0  0  0  0  0  0  0  0  0  0  0
    1.7552    2.8401   -7.1764 H   0  0  0  0  0  0  0  0  0  0  0  0
    1.6046    5.2575   -7.9784 H   0  0  0  0  0  0  0  0  0  0  0  0
    2.7573    4.9706   -6.5845 H   0  0  0  0  0  0  0  0  0  0  0  0
    1.3663    7.3947   -7.4603 H   0  0  0  0  0  0  0  0  0  0  0  0
    2.5586    7.1807   -6.1738 H   0  0  0  0  0  0  0  0  0  0  0  0
    1.3999    9.2528   -5.8217 H   0  0  0  0  0  0  0  0  0  0  0  0
    0.9653    8.1164   -4.5249 H   0  0  0  0  0  0  0  0  0  0  0  0
   -1.1058    6.6414   -5.3694 H   0  0  0  0  0  0  0  0  0  0  0  0
   -2.4345    7.7733   -5.8469 H   0  0  0  0  0  0  0  0  0  0  0  0
   -0.6597    8.2478   -3.3531 H   0  0  0  0  0  0  0  0  0  0  0  0
   -2.1148    9.1015   -3.9066 H   0  0  0  0  0  0  0  0  0  0  0  0
   -3.7585    8.5432   -2.1846 H   0  0  0  0  0  0  0  0  0  0  0  0
   -2.1090    8.4044   -1.4856 H   0  0  0  0  0  0  0  0  0  0  0  0
   -3.6353    7.2515   -0.0901 H   0  0  0  0  0  0  0  0  0  0  0  0
   -2.4926    6.1246   -0.8936 H   0  0  0  0  0  0  0  0  0  0  0  0
   -5.6034    4.3650   -1.4486 H   0  0  0  0  0  0  0  0  0  0  0  0
   -5.6313    5.3223    0.0618 H   0  0  0  0  0  0  0  0  0  0  0  0
   -4.3181    3.1437    0.2658 H   0  0  0  0  0  0  0  0  0  0  0  0
   -3.3201    3.7276   -1.1217 H   0  0  0  0  0  0  0  0  0  0  0  0
   -4.5269    5.6730    1.7039 H   0  0  0  0  0  0  0  0  0  0  0  0
   -2.7997    5.8824    2.2767 H   0  0  0  0  0  0  0  0  0  0  0  0
   -4.0863    4.6489    3.7756 H   0  0  0  0  0  0  0  0  0  0  0  0
   -4.4729    3.3688    2.5791 H   0  0  0  0  0  0  0  0  0  0  0  0
   -2.4190    2.9685    5.0952 H   0  0  0  0  0  0  0  0  0  0  0  0
   -2.6644    1.6637    3.8644 H   0  0  0  0  0  0  0  0  0  0  0  0
   -0.5498    2.2933    2.7936 H   0  0  0  0  0  0  0  0  0  0  0  0
   -0.3154    3.5463    4.1124 H   0  0  0  0  0  0  0  0  0  0  0  0
   -0.9389    1.8044    6.5761 H   0  0  0  0  0  0  0  0  0  0  0  0
    0.4105    2.8827    6.1915 H   0  0  0  0  0  0  0  0  0  0  0  0
    1.1624    1.1929    7.7436 H   0  0  0  0  0  0  0  0  0  0  0  0
    1.9851    0.9905    6.2194 H   0  0  0  0  0  0  0  0  0  0  0  0
    1.9251   -0.6797    8.1546 H   0  0  0  0  0  0  0  0  0  0  0  0
    2.6565   -0.9136    6.5629 H   0  0  0  0  0  0  0  0  0  0  0  0
    1.0047   -2.8683    8.2264 H   0  0  0  0  0  0  0  0  0  0  0  0
    2.7060   -2.9074    7.7673 H   0  0  0  0  0  0  0  0  0  0  0  0
    2.6799   -5.0494    6.5682 H   0  0  0  0  0  0  0  0  0  0  0  0
    1.1387   -5.0246    7.5835 H   0  0  0  0  0  0  0  0  0  0  0  0
   -0.1449   -5.2988    5.3854 H   0  0  0  0  0  0  0  0  0  0  0  0
    1.0707   -6.6346    5.5640 H   0  0  0  0  0  0  0  0  0  0  0  0
   -0.3017   -4.9163    3.5008 H   0  0  0  0  0  0  0  0  0  0  0  0
    1.1524   -4.9407    2.3296 H   0  0  0  0  0  0  0  0  0  0  0  0
    1.4932   -7.2652    2.7339 H   0  0  0  0  0  0  0  0  0  0  0  0
    0.1753   -7.3829    3.9042 H   0  0  0  0  0  0  0  0  0  0  0  0
   -0.5918   -5.1157    1.4144 H   0  0  0  0  0  0  0  0  0  0  0  0
    0.4269   -6.1705    0.3437 H   0  0  0  0  0  0  0  0  0  0  0  0
   -1.5728   -7.5451   -0.1166 H   0  0  0  0  0  0  0  0  0  0  0  0
   -2.5541   -6.4613    0.9138 H   0  0  0  0  0  0  0  0  0  0  0  0
   -3.0124   -4.5192   -2.1940 H   0  0  0  0  0  0  0  0  0  0  0  0
   -2.9858   -4.0879   -0.4638 H   0  0  0  0  0  0  0  0  0  0  0  0
   -1.6791   -2.5954   -1.7039 H   0  0  0  0  0  0  0  0  0  0  0  0
   -0.6414   -3.9413   -2.3714 H   0  0  0  0  0  0  0  0  0  0  0  0
    1.4212   -3.5060   -0.5452 H   0  0  0  0  0  0  0  0  0  0  0  0
    0.7550   -3.1189    1.0971 H   0  0  0  0  0  0  0  0  0  0  0  0
    2.1353   -1.5140    0.1699 H   0  0  0  0  0  0  0  0  0  0  0  0
    1.1078   -1.1146   -1.1855 H   0  0  0  0  0  0  0  0  0  0  0  0
    0.7626    0.0870    2.5356 H   0  0  0  0  0  0  0  0  0  0  0  0
    1.3635   -1.5567    2.1691 H   0  0  0  0  0  0  0  0  0  0  0  0
   -1.5284   -0.5569    2.6280 H   0  0  0  0  0  0  0  0  0  0  0  0
   -1.2685   -2.1547    1.9296 H   0  0  0  0  0  0  0  0  0  0  0  0
   -2.0081   -1.1851    5.1491 H   0  0  0  0  0  0  0  0  0  0  0  0
   -1.0537   -2.5695    5.6394 H   0  0  0  0  0  0  0  0  0  0  0  0
   -3.3837   -2.5068    3.6507 H   0  0  0  0  0  0  0  0  0  0  0  0
   -2.4386   -3.9879    3.9193 H   0  0  0  0  0  0  0  0  0  0  0  0
   -4.9374   -3.9183    6.5964 H   0  0  0  0  0  0  0  0  0  0  0  0
   -5.4217   -2.7792    5.3173 H   0  0  0  0  0  0  0  0  0  0  0  0
   -4.3929   -5.6824    4.9722 H   0  0  0  0  0  0  0  0  0  0  0  0
   -6.0297   -5.0008    4.6216 H   0  0  0  0  0  0  0  0  0  0  0  0
   -4.6166   -6.3556    2.5943 H   0  0  0  0  0  0  0  0  0  0  0  0
   -4.3211   -5.0590    1.4120 H   0  0  0  0  0  0  0  0  0  0  0  0
   -6.5497   -6.0382    1.2014 H   0  0  0  0  0  0  0  0  0  0  0  0
   -6.9887   -5.6088    2.8777 H   0  0  0  0  0  0  0  0  0  0  0  0
   -5.4983   -2.8163    2.3772 H   0  0  0  0  0  0  0  0  0  0  0  0
   -6.9104   -3.1376    3.4255 H   0  0  0  0  0  0  0  0  0  0  0  0
   -8.2934   -1.7612    1.7086 H   0  0  0  0  0  0  0  0  0  0  0  0
   -6.9518   -0.8979    2.6566 H   0  0  0  0  0  0  0  0  0  0  0  0
   -8.1699    0.1193    0.6883 H   0  0  0  0  0  0  0  0  0  0  0  0
   -6.5750    0.7217    1.3423 H   0  0  0  0  0  0  0  0  0  0  0  0
   -5.6043    0.9381   -0.8435 H   0  0  0  0  0  0  0  0  0  0  0  0
   -7.1900    1.8009   -0.8109 H   0  0  0  0  0  0  0  0  0  0  0  0
   -7.0949    2.0209   -2.7352 H   0  0  0  0  0  0  0  0  0  0  0  0
   -5.5641    1.0541   -2.8582 H   0  0  0  0  0  0  0  0  0  0  0  0
   -6.7571    1.3351   -5.0441 H   0  0  0  0  0  0  0  0  0  0  0  0
   -6.5433   -0.3887   -4.5859 H   0  0  0  0  0  0  0  0  0  0  0  0
   -8.6745   -0.5704   -4.3179 H   0  0  0  0  0  0  0  0  0  0  0  0
    7.9357   -3.8775   -3.0314 H   0  0  0  0  0  0  0  0  0  0  0  0
    6.4033   -4.2608   -4.8846 H   0  0  0  0  0  0  0  0  0  0  0  0
  1  2  1  0
  2  3  1  0
  2  4  1  0
  2  5  1  0
  5  6  1  0
  6  7  1  0
  6  8  1  0
  6  9  1  0
  9 10  2  0
 10 11  1  0
 11 12  2  0
 12 13  1  0
 13 14  1  0
 14 15  1  0
 15 16  1  0
 16 17  1  0
 17 18  1  0
 18 19  1  0
 19 20  1  0
 20 21  1  0
 21 22  1  0
 22 23  1  0
 23 24  1  0
 24 25  1  0
 25 26  1  0
 26 27  1  0
 27 28  1  0
 28 29  1  0
 29 30  1  0
 30 31  1  0
 31 32  1  0
 32 33  1  0
 33 34  1  0
 34 35  1  0
 35 36  1  0
 36 37  1  0
 37 38  1  0
 38 39  1  0
 39 40  1  0
 40 41  1  0
 41 42  1  0
 42 43  1  0
 43 44  1  0
 44 45  1  0
 45 46  1  0
 46 47  1  0
 47 48  1  0
 48 49  1  0
 49 50  1  0
 50 51  1  0
 51 52  1  0
 52 53  1  0
 53 54  1  0
 54 55  1  0
 55 56  1  0
 56 57  1  0
 57 58  1  0
 58 59  1  0
 59 60  1  0
 60 61  1  0
 61 62  1  0
 62 63  1  0
 63 64  1  0
 64 65  1  0
 65 66  1  0
 66 67  1  0
 67 68  1  0
 68 69  1  0
 69 70  1  0
 70 71  1  0
 71 72  1  0
 72 73  1  0
 73 74  1  0
 74 75  1  0
 75 76  1  0
 76 77  1  0
 77 78  1  0
 78 79  1  0
 79 80  1  0
 80 81  1  0
 81 82  1  0
 82 83  1  0
 83 84  1  0
 84 85  1  0
 85 86  1  0
 86 87  1  0
 87 88  1  0
 88 89  1  0
 89 90  1  0
 90 91  1  0
 91 92  1  0
 92 93  1  0
 93 94  1  0
 94 95  1  0
 95 96  1  0
 96 97  1  0
 97 98  1  0
 98 99  1  0
 99100  1  0
100101  1  0
101102  1  0
102103  1  0
 12104  1  0
104105  2  0
105  9  1  0
  1106  1  0
  1107  1  0
  1108  1  0
  3109  1  0
  3110  1  0
  3111  1  0
  4112  1  0
  4113  1  0
  4114  1  0
  5115  1  0
  5116  1  0
  7117  1  0
  7118  1  0
  7119  1  0
  8120  1  0
  8121  1  0
  8122  1  0
 10123  1  0
 11124  1  0
 14125  1  0
 14126  1  0
 15127  1  0
 15128  1  0
 17129  1  0
 17130  1  0
 18131  1  0
 18132  1  0
 20133  1  0
 20134  1  0
 21135  1  0
 21136  1  0
 23137  1  0
 23138  1  0
 24139  1  0
 24140  1  0
 26141  1  0
 26142  1  0
 27143  1  0
 27144  1  0
 29145  1  0
 29146  1  0
 30147  1  0
 30148  1  0
 32149  1  0
 32150  1  0
 33151  1  0
 33152  1  0
 35153  1  0
 35154  1  0
 36155  1  0
 36156  1  0
 38157  1  0
 38158  1  0
 39159  1  0
 39160  1  0
 41161  1  0
 41162  1  0
 42163  1  0
 42164  1  0
 44165  1  0
 44166  1  0
 45167  1  0
 45168  1  0
 47169  1  0
 47170  1  0
 48171  1  0
 48172  1  0
 50173  1  0
 50174  1  0
 51175  1  0
 51176  1  0
 53177  1  0
 53178  1  0
 54179  1  0
 54180  1  0
 56181  1  0
 56182  1  0
 57183  1  0
 57184  1  0
 59185  1  0
 59186  1  0
 60187  1  0
 60188  1  0
 62189  1  0
 62190  1  0
 63191  1  0
 63192  1  0
 65193  1  0
 65194  1  0
 66195  1  0
 66196  1  0
 68197  1  0
 68198  1  0
 69199  1  0
 69200  1  0
 71201  1  0
 71202  1  0
 72203  1  0
 72204  1  0
 74205  1  0
 74206  1  0
 75207  1  0
 75208  1  0
 77209  1  0
 77210  1  0
 78211  1  0
 78212  1  0
 80213  1  0
 80214  1  0
 81215  1  0
 81216  1  0
 83217  1  0
 83218  1  0
 84219  1  0
 84220  1  0
 86221  1  0
 86222  1  0
 87223  1  0
 87224  1  0
 89225  1  0
 89226  1  0
 90227  1  0
 90228  1  0
 92229  1  0
 92230  1  0
 93231  1  0
 93232  1  0
 95233  1  0
 95234  1  0
 96235  1  0
 96236  1  0
 98237  1  0
 98238  1  0
 99239  1  0
 99240  1  0
101241  1  0
101242  1  0
102243  1  0
102244  1  0
103245  1  0
104246  1  0
105247  1  0
M  END
$$$$
