@<TRIPOS>MOLECULE
*****
 247 247 0 0 0
SMALL
GASTEIGER

@<TRIPOS>ATOM
      1 C           0.9275   -2.6402   -4.9834 C.3     1  UNL1       -0.0600
      2 C           2.2786   -2.4374   -5.6507 C.3     1  UNL1       -0.0369
      3 C           2.3592   -3.0044   -7.0317 C.3     1  UNL1       -0.0600
      4 C           2.3280   -0.8987   -5.8344 C.3     1  UNL1       -0.0600
      5 C           3.4462   -2.7228   -4.7978 C.3     1  UNL1       -0.0389
      6 C           3.6924   -4.0319   -4.2315 C.3     1  UNL1       -0.0094
      7 C           2.6324   -4.5790   -3.3211 C.3     1  UNL1       -0.0558
      8 C           4.0356   -5.1512   -5.1968 C.3     1  UNL1       -0.0558
      9 C           4.9556   -3.8688   -3.3675 C.ar    1  UNL1       -0.0415
     10 C           4.6045   -3.5547   -2.0004 C.ar    1  UNL1       -0.0546
     11 C           5.7432   -3.4076   -1.1212 C.ar    1  UNL1       -0.0197
     12 C           7.0887   -3.5372   -1.4774 C.ar    1  UNL1        0.1206
     13 O           8.0103   -3.3500   -0.4633 O.3     1  UNL1       -0.4897
     14 C           7.4258   -2.9238    0.8307 C.3     1  UNL1        0.1128
     15 C           6.9627   -1.5161    0.6245 C.3     1  UNL1        0.0818
     16 O           6.3349   -0.8938    1.6944 O.3     1  UNL1       -0.3742
     17 C           6.9656   -0.9195    2.8801 C.3     1  UNL1        0.0711
     18 C           6.5113    0.1077    3.9201 C.3     1  UNL1        0.0711
     19 O           7.2683   -0.0693    5.0637 O.3     1  UNL1       -0.3752
     20 C           7.3206    0.9218    5.9933 C.3     1  UNL1        0.0711
     21 C           6.0525    1.5822    6.4296 C.3     1  UNL1        0.0711
     22 O           5.4585    2.2056    5.3002 O.3     1  UNL1       -0.3752
     23 C           4.4444    3.0611    5.7504 C.3     1  UNL1        0.0711
     24 C           3.7323    3.7078    4.5890 C.3     1  UNL1        0.0711
     25 O           4.6339    4.4396    3.7800 O.3     1  UNL1       -0.3752
     26 C           3.8347    5.0050    2.7575 C.3     1  UNL1        0.0711
     27 C           4.6254    5.6827    1.6983 C.3     1  UNL1        0.0711
     28 O           3.7393    6.2312    0.7549 O.3     1  UNL1       -0.3752
     29 C           2.8624    5.3213    0.2190 C.3     1  UNL1        0.0711
     30 C           1.9766    6.0124   -0.8215 C.3     1  UNL1        0.0711
     31 O           1.0862    5.0126   -1.2731 O.3     1  UNL1       -0.3752
     32 C           0.1492    5.4369   -2.1613 C.3     1  UNL1        0.0711
     33 C          -0.8262    4.2626   -2.3853 C.3     1  UNL1        0.0711
     34 O          -0.1273    3.2102   -2.9774 O.3     1  UNL1       -0.3752
     35 C          -0.9369    2.0938   -3.0748 C.3     1  UNL1        0.0711
     36 C          -0.2151    1.0412   -3.8846 C.3     1  UNL1        0.0711
     37 O           0.0200    1.5578   -5.1780 O.3     1  UNL1       -0.3752
     38 C          -1.1347    1.8375   -5.8671 C.3     1  UNL1        0.0711
     39 C          -0.8284    2.4089   -7.2272 C.3     1  UNL1        0.0711
     40 O          -0.1651    3.5771   -7.2761 O.3     1  UNL1       -0.3752
     41 C           1.0775    3.6007   -6.7610 C.3     1  UNL1        0.0711
     42 C           1.7150    4.9915   -6.8968 C.3     1  UNL1        0.0711
     43 O           0.9395    5.9153   -6.1818 O.3     1  UNL1       -0.3752
     44 C           1.4140    7.1619   -6.3572 C.3     1  UNL1        0.0711
     45 C           0.7855    8.3148   -5.6396 C.3     1  UNL1        0.0711
     46 O          -0.5164    8.5054   -5.9429 O.3     1  UNL1       -0.3752
     47 C          -1.4407    7.6617   -5.3378 C.3     1  UNL1        0.0711
     48 C          -1.6211    8.0913   -3.8761 C.3     1  UNL1        0.0711
     49 O          -2.4882    7.2807   -3.1798 O.3     1  UNL1       -0.3752
     50 C          -2.9029    7.8268   -2.0019 C.3     1  UNL1        0.0711
     51 C          -3.4175    6.7504   -1.0412 C.3     1  UNL1        0.0711
     52 O          -4.4225    5.9931   -1.5010 O.3     1  UNL1       -0.3752
     53 C          -4.9684    4.9929   -0.7451 C.3     1  UNL1        0.0711
     54 C          -3.8959    4.0213   -0.1978 C.3     1  UNL1        0.0711
     55 O          -3.0380    4.7206    0.6296 O.3     1  UNL1       -0.3752
     56 C          -3.5157    5.1878    1.7994 C.3     1  UNL1        0.0711
     57 C          -3.7171    4.0975    2.8786 C.3     1  UNL1        0.0711
     58 O          -2.5107    3.5688    3.1387 O.3     1  UNL1       -0.3752
     59 C          -2.2034    2.6475    4.0436 C.3     1  UNL1        0.0711
     60 C          -0.6723    2.4669    3.9092 C.3     1  UNL1        0.0711
     61 O          -0.0456    1.6128    4.6912 O.3     1  UNL1       -0.3752
     62 C           0.0350    1.8178    6.0425 C.3     1  UNL1        0.0711
     63 C           0.9500    0.8460    6.6880 C.3     1  UNL1        0.0711
     64 O           0.6332   -0.4784    6.6470 O.3     1  UNL1       -0.3752
     65 C           1.7363   -1.1652    7.1435 C.3     1  UNL1        0.0711
     66 C           1.6898   -2.6061    7.3757 C.3     1  UNL1        0.0711
     67 O           1.3930   -3.4432    6.3472 O.3     1  UNL1       -0.3752
     68 C           1.6109   -4.8201    6.6228 C.3     1  UNL1        0.0711
     69 C           0.9284   -5.5328    5.4551 C.3     1  UNL1        0.0711
     70 O           1.5408   -5.0723    4.2661 O.3     1  UNL1       -0.3752
     71 C           0.6538   -5.3933    3.2554 C.3     1  UNL1        0.0711
     72 C           0.5134   -6.8545    2.9952 C.3     1  UNL1        0.0711
     73 O          -0.4880   -7.0607    2.0313 O.3     1  UNL1       -0.3752
     74 C          -0.4417   -6.1352    0.9698 C.3     1  UNL1        0.0711
     75 C          -1.6719   -6.4022    0.1409 C.3     1  UNL1        0.0711
     76 O          -2.0510   -5.8038   -0.9193 O.3     1  UNL1       -0.3752
     77 C          -2.3482   -4.6035   -1.2791 C.3     1  UNL1        0.0711
     78 C          -1.1975   -3.6060   -1.4481 C.3     1  UNL1        0.0711
     79 O          -0.5441   -3.4650   -0.3145 O.3     1  UNL1       -0.3752
     80 C           0.5517   -2.8385   -0.0770 C.3     1  UNL1        0.0711
     81 C           1.0250   -1.4857   -0.1506 C.3     1  UNL1        0.0711
     82 O           0.3968   -0.5100    0.6265 O.3     1  UNL1       -0.3752
     83 C           0.5254   -0.8723    1.9819 C.3     1  UNL1        0.0711
     84 C          -0.7735   -1.4102    2.5869 C.3     1  UNL1        0.0711
     85 O          -0.6123   -1.8328    3.8570 O.3     1  UNL1       -0.3752
     86 C          -1.5461   -2.1571    4.6869 C.3     1  UNL1        0.0711
     87 C          -2.7290   -3.0302    4.3583 C.3     1  UNL1        0.0711
     88 O          -3.3903   -3.1720    5.5824 O.3     1  UNL1       -0.3752
     89 C          -4.6743   -3.5925    5.5220 C.3     1  UNL1        0.0711
     90 C          -4.9555   -4.7922    4.6486 C.3     1  UNL1        0.0711
     91 O          -4.5408   -4.4789    3.3273 O.3     1  UNL1       -0.3752
     92 C          -4.8893   -5.3186    2.3411 C.3     1  UNL1        0.0711
     93 C          -6.3849   -5.2842    2.0041 C.3     1  UNL1        0.0711
     94 O          -6.8225   -4.0592    1.5400 O.3     1  UNL1       -0.3752
     95 C          -6.6344   -2.9860    2.3580 C.3     1  UNL1        0.0711
     96 C          -7.1811   -1.6565    1.8946 C.3     1  UNL1        0.0711
     97 O          -6.6278   -1.2119    0.6693 O.3     1  UNL1       -0.3752
     98 C          -7.0884    0.1023    0.5164 C.3     1  UNL1        0.0711
     99 C          -6.6807    0.7946   -0.7364 C.3     1  UNL1        0.0711
    100 O          -7.1116    0.1317   -1.9177 O.3     1  UNL1       -0.3752
    101 C          -6.6684    1.0074   -2.9403 C.3     1  UNL1        0.0708
    102 C          -7.0552    0.5290   -4.3081 C.3     1  UNL1        0.0676
    103 O          -8.4428    0.4054   -4.4242 O.3     1  UNL1       -0.3927
    104 C           6.7878   -3.7824   -2.6551 C.ar    1  UNL1       -0.0197
    105 C           6.3772   -4.0345   -3.8877 C.ar    1  UNL1       -0.0546
    106 H           0.1679   -2.1063   -5.6290 H       1  UNL1        0.0235
    107 H           0.6311   -3.6558   -4.8452 H       1  UNL1        0.0235
    108 H           0.9828   -1.9933   -4.0657 H       1  UNL1        0.0235
    109 H           1.9050   -3.9919   -7.1815 H       1  UNL1        0.0235
    110 H           1.8101   -2.3286   -7.7195 H       1  UNL1        0.0235
    111 H           3.4197   -2.9163   -7.3567 H       1  UNL1        0.0235
    112 H           3.1148   -0.6538   -6.5658 H       1  UNL1        0.0235
    113 H           1.3550   -0.5730   -6.2479 H       1  UNL1        0.0235
    114 H           2.5109   -0.4285   -4.8533 H       1  UNL1        0.0235
    115 H           3.3785   -1.9903   -3.9256 H       1  UNL1        0.0279
    116 H           4.3576   -2.3883   -5.3288 H       1  UNL1        0.0279
    117 H           1.9873   -5.3412   -3.8398 H       1  UNL1        0.0238
    118 H           3.1355   -5.1728   -2.5416 H       1  UNL1        0.0238
    119 H           2.0348   -3.7912   -2.8814 H       1  UNL1        0.0238
    120 H           4.5784   -4.7974   -6.0695 H       1  UNL1        0.0238
    121 H           3.1240   -5.7775   -5.4017 H       1  UNL1        0.0238
    122 H           4.7377   -5.8310   -4.6513 H       1  UNL1        0.0238
    123 H           3.5363   -3.4193   -1.7169 H       1  UNL1        0.0622
    124 H           5.1379   -3.1643   -0.1633 H       1  UNL1        0.0654
    125 H           6.6085   -3.5739    1.1200 H       1  UNL1        0.0720
    126 H           8.2702   -2.9241    1.5274 H       1  UNL1        0.0720
    127 H           6.4172   -1.2909   -0.2881 H       1  UNL1        0.0594
    128 H           7.9307   -0.8662    0.4869 H       1  UNL1        0.0594
    129 H           6.7638   -1.9286    3.3889 H       1  UNL1        0.0583
    130 H           8.0640   -0.8733    2.8351 H       1  UNL1        0.0583
    131 H           5.4504   -0.0189    4.1585 H       1  UNL1        0.0583
    132 H           6.7304    1.1271    3.5645 H       1  UNL1        0.0583
    133 H           7.9398    1.7601    5.4586 H       1  UNL1        0.0583
    134 H           7.9625    0.6734    6.8632 H       1  UNL1        0.0583
    135 H           6.2738    2.3283    7.1991 H       1  UNL1        0.0583
    136 H           5.3185    0.8350    6.8267 H       1  UNL1        0.0583
    137 H           4.8626    3.8898    6.3864 H       1  UNL1        0.0583
    138 H           3.7072    2.5470    6.3821 H       1  UNL1        0.0583
    139 H           2.9666    4.3813    5.0240 H       1  UNL1        0.0583
    140 H           3.2427    2.9184    3.9744 H       1  UNL1        0.0583
    141 H           3.2143    5.7689    3.3066 H       1  UNL1        0.0583
    142 H           3.2102    4.1545    2.3772 H       1  UNL1        0.0583
    143 H           5.2594    4.8920    1.1808 H       1  UNL1        0.0583
    144 H           5.2617    6.4491    2.1480 H       1  UNL1        0.0583
    145 H           3.3607    4.4434   -0.1992 H       1  UNL1        0.0583
    146 H           2.1571    4.9401    1.0159 H       1  UNL1        0.0583
    147 H           2.5488    6.3473   -1.6734 H       1  UNL1        0.0583
    148 H           1.3701    6.8270   -0.4086 H       1  UNL1        0.0583
    149 H          -0.3558    6.3606   -1.8931 H       1  UNL1        0.0583
    150 H           0.6523    5.5945   -3.1620 H       1  UNL1        0.0583
    151 H          -1.7043    4.5783   -2.9340 H       1  UNL1        0.0583
    152 H          -1.1443    3.9293   -1.3538 H       1  UNL1        0.0583
    153 H          -1.0306    1.6916   -2.0146 H       1  UNL1        0.0583
    154 H          -1.9318    2.3029   -3.4760 H       1  UNL1        0.0583
    155 H          -0.8408    0.1478   -3.9757 H       1  UNL1        0.0583
    156 H           0.7488    0.7679   -3.4047 H       1  UNL1        0.0583
    157 H          -1.7922    2.5788   -5.3601 H       1  UNL1        0.0583
    158 H          -1.7255    0.9074   -6.0471 H       1  UNL1        0.0583
    159 H          -0.2789    1.6053   -7.8379 H       1  UNL1        0.0583
    160 H          -1.8366    2.4813   -7.7512 H       1  UNL1        0.0583
    161 H           1.0496    3.4310   -5.6496 H       1  UNL1        0.0583
    162 H           1.7552    2.8401   -7.1764 H       1  UNL1        0.0583
    163 H           1.6046    5.2575   -7.9784 H       1  UNL1        0.0583
    164 H           2.7573    4.9706   -6.5845 H       1  UNL1        0.0583
    165 H           1.3663    7.3947   -7.4603 H       1  UNL1        0.0583
    166 H           2.5586    7.1807   -6.1738 H       1  UNL1        0.0583
    167 H           1.3999    9.2528   -5.8217 H       1  UNL1        0.0583
    168 H           0.9653    8.1164   -4.5249 H       1  UNL1        0.0583
    169 H          -1.1058    6.6414   -5.3694 H       1  UNL1        0.0583
    170 H          -2.4345    7.7733   -5.8469 H       1  UNL1        0.0583
    171 H          -0.6597    8.2478   -3.3531 H       1  UNL1        0.0583
    172 H          -2.1148    9.1015   -3.9066 H       1  UNL1        0.0583
    173 H          -3.7585    8.5432   -2.1846 H       1  UNL1        0.0583
    174 H          -2.1090    8.4044   -1.4856 H       1  UNL1        0.0583
    175 H          -3.6353    7.2515   -0.0901 H       1  UNL1        0.0583
    176 H          -2.4926    6.1246   -0.8936 H       1  UNL1        0.0583
    177 H          -5.6034    4.3650   -1.4486 H       1  UNL1        0.0583
    178 H          -5.6313    5.3223    0.0618 H       1  UNL1        0.0583
    179 H          -4.3181    3.1437    0.2658 H       1  UNL1        0.0583
    180 H          -3.3201    3.7276   -1.1217 H       1  UNL1        0.0583
    181 H          -4.5269    5.6730    1.7039 H       1  UNL1        0.0583
    182 H          -2.7997    5.8824    2.2767 H       1  UNL1        0.0583
    183 H          -4.0863    4.6489    3.7756 H       1  UNL1        0.0583
    184 H          -4.4729    3.3688    2.5791 H       1  UNL1        0.0583
    185 H          -2.4190    2.9685    5.0952 H       1  UNL1        0.0583
    186 H          -2.6644    1.6637    3.8644 H       1  UNL1        0.0583
    187 H          -0.5498    2.2933    2.7936 H       1  UNL1        0.0583
    188 H          -0.3154    3.5463    4.1124 H       1  UNL1        0.0583
    189 H          -0.9389    1.8044    6.5761 H       1  UNL1        0.0583
    190 H           0.4105    2.8827    6.1915 H       1  UNL1        0.0583
    191 H           1.1624    1.1929    7.7436 H       1  UNL1        0.0583
    192 H           1.9851    0.9905    6.2194 H       1  UNL1        0.0583
    193 H           1.9251   -0.6797    8.1546 H       1  UNL1        0.0583
    194 H           2.6565   -0.9136    6.5629 H       1  UNL1        0.0583
    195 H           1.0047   -2.8683    8.2264 H       1  UNL1        0.0583
    196 H           2.7060   -2.9074    7.7673 H       1  UNL1        0.0583
    197 H           2.6799   -5.0494    6.5682 H       1  UNL1        0.0583
    198 H           1.1387   -5.0246    7.5835 H       1  UNL1        0.0583
    199 H          -0.1449   -5.2988    5.3854 H       1  UNL1        0.0583
    200 H           1.0707   -6.6346    5.5640 H       1  UNL1        0.0583
    201 H          -0.3017   -4.9163    3.5008 H       1  UNL1        0.0583
    202 H           1.1524   -4.9407    2.3296 H       1  UNL1        0.0583
    203 H           1.4932   -7.2652    2.7339 H       1  UNL1        0.0583
    204 H           0.1753   -7.3829    3.9042 H       1  UNL1        0.0583
    205 H          -0.5918   -5.1157    1.4144 H       1  UNL1        0.0583
    206 H           0.4269   -6.1705    0.3437 H       1  UNL1        0.0583
    207 H          -1.5728   -7.5451   -0.1166 H       1  UNL1        0.0583
    208 H          -2.5541   -6.4613    0.9138 H       1  UNL1        0.0583
    209 H          -3.0124   -4.5192   -2.1940 H       1  UNL1        0.0583
    210 H          -2.9858   -4.0879   -0.4638 H       1  UNL1        0.0583
    211 H          -1.6791   -2.5954   -1.7039 H       1  UNL1        0.0583
    212 H          -0.6414   -3.9413   -2.3714 H       1  UNL1        0.0583
    213 H           1.4212   -3.5060   -0.5452 H       1  UNL1        0.0583
    214 H           0.7550   -3.1189    1.0971 H       1  UNL1        0.0583
    215 H           2.1353   -1.5140    0.1699 H       1  UNL1        0.0583
    216 H           1.1078   -1.1146   -1.1855 H       1  UNL1        0.0583
    217 H           0.7626    0.0870    2.5356 H       1  UNL1        0.0583
    218 H           1.3635   -1.5567    2.1691 H       1  UNL1        0.0583
    219 H          -1.5284   -0.5569    2.6280 H       1  UNL1        0.0583
    220 H          -1.2685   -2.1547    1.9296 H       1  UNL1        0.0583
    221 H          -2.0081   -1.1851    5.1491 H       1  UNL1        0.0583
    222 H          -1.0537   -2.5695    5.6394 H       1  UNL1        0.0583
    223 H          -3.3837   -2.5068    3.6507 H       1  UNL1        0.0583
    224 H          -2.4386   -3.9879    3.9193 H       1  UNL1        0.0583
    225 H          -4.9374   -3.9183    6.5964 H       1  UNL1        0.0583
    226 H          -5.4217   -2.7792    5.3173 H       1  UNL1        0.0583
    227 H          -4.3929   -5.6824    4.9722 H       1  UNL1        0.0583
    228 H          -6.0297   -5.0008    4.6216 H       1  UNL1        0.0583
    229 H          -4.6166   -6.3556    2.5943 H       1  UNL1        0.0583
    230 H          -4.3211   -5.0590    1.4120 H       1  UNL1        0.0583
    231 H          -6.5497   -6.0382    1.2014 H       1  UNL1        0.0583
    232 H          -6.9887   -5.6088    2.8777 H       1  UNL1        0.0583
    233 H          -5.4983   -2.8163    2.3772 H       1  UNL1        0.0583
    234 H          -6.9104   -3.1376    3.4255 H       1  UNL1        0.0583
    235 H          -8.2934   -1.7612    1.7086 H       1  UNL1        0.0583
    236 H          -6.9518   -0.8979    2.6566 H       1  UNL1        0.0583
    237 H          -8.1699    0.1193    0.6883 H       1  UNL1        0.0583
    238 H          -6.5750    0.7217    1.3423 H       1  UNL1        0.0583
    239 H          -5.6043    0.9381   -0.8435 H       1  UNL1        0.0583
    240 H          -7.1900    1.8009   -0.8109 H       1  UNL1        0.0583
    241 H          -7.0949    2.0209   -2.7352 H       1  UNL1        0.0583
    242 H          -5.5641    1.0541   -2.8582 H       1  UNL1        0.0583
    243 H          -6.7571    1.3351   -5.0441 H       1  UNL1        0.0580
    244 H          -6.5433   -0.3887   -4.5859 H       1  UNL1        0.0580
    245 H          -8.6745   -0.5704   -4.3179 H       1  UNL1        0.2095
    246 H           7.9357   -3.8775   -3.0314 H       1  UNL1        0.0654
    247 H           6.4033   -4.2608   -4.8846 H       1  UNL1        0.0622
@<TRIPOS>BOND
     1     1     2    1
     2     2     3    1
     3     2     4    1
     4     2     5    1
     5     5     6    1
     6     6     7    1
     7     6     8    1
     8     6     9    1
     9     9    10   ar
    10    10    11   ar
    11    11    12   ar
    12    12    13    1
    13    13    14    1
    14    14    15    1
    15    15    16    1
    16    16    17    1
    17    17    18    1
    18    18    19    1
    19    19    20    1
    20    20    21    1
    21    21    22    1
    22    22    23    1
    23    23    24    1
    24    24    25    1
    25    25    26    1
    26    26    27    1
    27    27    28    1
    28    28    29    1
    29    29    30    1
    30    30    31    1
    31    31    32    1
    32    32    33    1
    33    33    34    1
    34    34    35    1
    35    35    36    1
    36    36    37    1
    37    37    38    1
    38    38    39    1
    39    39    40    1
    40    40    41    1
    41    41    42    1
    42    42    43    1
    43    43    44    1
    44    44    45    1
    45    45    46    1
    46    46    47    1
    47    47    48    1
    48    48    49    1
    49    49    50    1
    50    50    51    1
    51    51    52    1
    52    52    53    1
    53    53    54    1
    54    54    55    1
    55    55    56    1
    56    56    57    1
    57    57    58    1
    58    58    59    1
    59    59    60    1
    60    60    61    1
    61    61    62    1
    62    62    63    1
    63    63    64    1
    64    64    65    1
    65    65    66    1
    66    66    67    1
    67    67    68    1
    68    68    69    1
    69    69    70    1
    70    70    71    1
    71    71    72    1
    72    72    73    1
    73    73    74    1
    74    74    75    1
    75    75    76    1
    76    76    77    1
    77    77    78    1
    78    78    79    1
    79    79    80    1
    80    80    81    1
    81    81    82    1
    82    82    83    1
    83    83    84    1
    84    84    85    1
    85    85    86    1
    86    86    87    1
    87    87    88    1
    88    88    89    1
    89    89    90    1
    90    90    91    1
    91    91    92    1
    92    92    93    1
    93    93    94    1
    94    94    95    1
    95    95    96    1
    96    96    97    1
    97    97    98    1
    98    98    99    1
    99    99   100    1
   100   100   101    1
   101   101   102    1
   102   102   103    1
   103    12   104   ar
   104   104   105   ar
   105   105     9   ar
   106     1   106    1
   107     1   107    1
   108     1   108    1
   109     3   109    1
   110     3   110    1
   111     3   111    1
   112     4   112    1
   113     4   113    1
   114     4   114    1
   115     5   115    1
   116     5   116    1
   117     7   117    1
   118     7   118    1
   119     7   119    1
   120     8   120    1
   121     8   121    1
   122     8   122    1
   123    10   123    1
   124    11   124    1
   125    14   125    1
   126    14   126    1
   127    15   127    1
   128    15   128    1
   129    17   129    1
   130    17   130    1
   131    18   131    1
   132    18   132    1
   133    20   133    1
   134    20   134    1
   135    21   135    1
   136    21   136    1
   137    23   137    1
   138    23   138    1
   139    24   139    1
   140    24   140    1
   141    26   141    1
   142    26   142    1
   143    27   143    1
   144    27   144    1
   145    29   145    1
   146    29   146    1
   147    30   147    1
   148    30   148    1
   149    32   149    1
   150    32   150    1
   151    33   151    1
   152    33   152    1
   153    35   153    1
   154    35   154    1
   155    36   155    1
   156    36   156    1
   157    38   157    1
   158    38   158    1
   159    39   159    1
   160    39   160    1
   161    41   161    1
   162    41   162    1
   163    42   163    1
   164    42   164    1
   165    44   165    1
   166    44   166    1
   167    45   167    1
   168    45   168    1
   169    47   169    1
   170    47   170    1
   171    48   171    1
   172    48   172    1
   173    50   173    1
   174    50   174    1
   175    51   175    1
   176    51   176    1
   177    53   177    1
   178    53   178    1
   179    54   179    1
   180    54   180    1
   181    56   181    1
   182    56   182    1
   183    57   183    1
   184    57   184    1
   185    59   185    1
   186    59   186    1
   187    60   187    1
   188    60   188    1
   189    62   189    1
   190    62   190    1
   191    63   191    1
   192    63   192    1
   193    65   193    1
   194    65   194    1
   195    66   195    1
   196    66   196    1
   197    68   197    1
   198    68   198    1
   199    69   199    1
   200    69   200    1
   201    71   201    1
   202    71   202    1
   203    72   203    1
   204    72   204    1
   205    74   205    1
   206    74   206    1
   207    75   207    1
   208    75   208    1
   209    77   209    1
   210    77   210    1
   211    78   211    1
   212    78   212    1
   213    80   213    1
   214    80   214    1
   215    81   215    1
   216    81   216    1
   217    83   217    1
   218    83   218    1
   219    84   219    1
   220    84   220    1
   221    86   221    1
   222    86   222    1
   223    87   223    1
   224    87   224    1
   225    89   225    1
   226    89   226    1
   227    90   227    1
   228    90   228    1
   229    92   229    1
   230    92   230    1
   231    93   231    1
   232    93   232    1
   233    95   233    1
   234    95   234    1
   235    96   235    1
   236    96   236    1
   237    98   237    1
   238    98   238    1
   239    99   239    1
   240    99   240    1
   241   101   241    1
   242   101   242    1
   243   102   243    1
   244   102   244    1
   245   103   245    1
   246   104   246    1
   247   105   247    1
