
     RDKit          3D

 50 53  0  0  0  0  0  0  0  0999 V2000
    1.7141    1.2759   -1.1473 C   0  0  1  0  0  0  0  0  0  0  0  0
    1.1111    1.0470   -2.5214 C   0  0  0  0  0  0  0  0  0  0  0  0
   -0.2474    0.9303   -2.3810 O   0  0  0  0  0  0  0  0  0  0  0  0
   -0.5413    0.6861   -1.0633 C   0  0  2  0  0  0  0  0  0  0  0  0
   -1.8338    1.3459   -0.6122 C   0  0  1  0  0  0  0  0  0  0  0  0
   -1.4067    2.7965   -0.6173 C   0  0  0  0  0  0  0  0  0  0  0  0
   -0.0275    2.8401   -0.6166 O   0  0  0  0  0  0  0  0  0  0  0  0
    0.4524    1.5791   -0.3468 C   0  0  2  0  0  0  0  0  0  0  0  0
   -2.8864    1.0716   -1.4683 O   0  0  0  0  0  0  0  0  0  0  0  0
   -4.0506    0.4287   -1.0833 C   0  0  0  0  0  0  0  0  0  0  0  0
   -4.8996    0.3141   -2.1923 C   0  0  0  0  0  0  0  0  0  0  0  0
   -6.1508   -0.3025   -2.0700 C   0  0  0  0  0  0  0  0  0  0  0  0
   -6.5629   -0.8065   -0.8493 C   0  0  0  0  0  0  0  0  0  0  0  0
   -5.6899   -0.6684    0.2114 C   0  0  0  0  0  0  0  0  0  0  0  0
   -4.4615   -0.0699    0.1181 C   0  0  0  0  0  0  0  0  0  0  0  0
   -6.0871   -1.1865    1.5147 C   0  0  0  0  0  0  0  0  0  0  0  0
   -6.9375   -2.2900    1.6660 N   0  0  0  0  0  0  0  0  0  0  0  0
   -5.8381   -0.8660    2.7377 N   0  0  0  0  0  0  0  0  0  0  0  0
    2.1823    0.0355   -0.6975 O   0  0  0  0  0  0  0  0  0  0  0  0
    3.4799   -0.1598   -0.2491 C   0  0  0  0  0  0  0  0  0  0  0  0
    3.6442   -1.4927    0.1296 C   0  0  0  0  0  0  0  0  0  0  0  0
    4.8709   -1.9508    0.6208 C   0  0  0  0  0  0  0  0  0  0  0  0
    5.9319   -1.0834    0.7347 C   0  0  0  0  0  0  0  0  0  0  0  0
    5.7397    0.2476    0.3478 C   0  0  0  0  0  0  0  0  0  0  0  0
    4.5442    0.6861   -0.1290 C   0  0  0  0  0  0  0  0  0  0  0  0
    7.2366   -1.4870    1.2365 C   0  0  0  0  0  0  0  0  0  0  0  0
    8.3716   -0.7985    0.7425 N   0  0  0  0  0  0  0  0  0  0  0  0
    7.5166   -2.3958    2.0802 N   0  0  0  0  0  0  0  0  0  0  0  0
    2.4259    2.0980   -1.1298 H   0  0  0  0  0  0  0  0  0  0  0  0
    1.5306    0.1395   -2.9880 H   0  0  0  0  0  0  0  0  0  0  0  0
    1.4044    1.9474   -3.1339 H   0  0  0  0  0  0  0  0  0  0  0  0
   -0.4813   -0.3696   -0.7606 H   0  0  0  0  0  0  0  0  0  0  0  0
   -2.0056    1.0026    0.4177 H   0  0  0  0  0  0  0  0  0  0  0  0
   -1.8459    3.3558   -1.4704 H   0  0  0  0  0  0  0  0  0  0  0  0
   -1.7255    3.3334    0.3023 H   0  0  0  0  0  0  0  0  0  0  0  0
    0.5522    1.3457    0.7207 H   0  0  0  0  0  0  0  0  0  0  0  0
   -4.7286    0.6522   -3.2049 H   0  0  0  0  0  0  0  0  0  0  0  0
   -6.8486   -0.4232   -2.8777 H   0  0  0  0  0  0  0  0  0  0  0  0
   -7.5125   -1.2879   -0.7043 H   0  0  0  0  0  0  0  0  0  0  0  0
   -3.7460    0.0686    0.8883 H   0  0  0  0  0  0  0  0  0  0  0  0
   -6.9876   -3.3083    1.8260 H   0  0  0  0  0  0  0  0  0  0  0  0
   -7.9331   -1.9645    1.5870 H   0  0  0  0  0  0  0  0  0  0  0  0
   -5.2173   -0.0610    2.9655 H   0  0  0  0  0  0  0  0  0  0  0  0
    2.9084   -2.2945    0.0999 H   0  0  0  0  0  0  0  0  0  0  0  0
    5.0720   -2.9587    0.9309 H   0  0  0  0  0  0  0  0  0  0  0  0
    6.5428    0.9689    0.4180 H   0  0  0  0  0  0  0  0  0  0  0  0
    4.2990    1.6897   -0.4516 H   0  0  0  0  0  0  0  0  0  0  0  0
    9.3100   -0.6405    0.3211 H   0  0  0  0  0  0  0  0  0  0  0  0
    8.9698   -0.0001    0.4959 H   0  0  0  0  0  0  0  0  0  0  0  0
    6.8427   -3.0202    2.5666 H   0  0  0  0  0  0  0  0  0  0  0  0
  1  2  1  0
  2  3  1  0
  3  4  1  0
  4  5  1  0
  5  6  1  0
  6  7  1  0
  7  8  1  0
  5  9  1  0
  9 10  1  0
 10 11  2  0
 11 12  1  0
 12 13  2  0
 13 14  1  0
 14 15  2  0
 14 16  1  0
 16 17  1  0
 16 18  2  3
  1 19  1  0
 19 20  1  0
 20 21  2  0
 21 22  1  0
 22 23  2  0
 23 24  1  0
 24 25  2  0
 23 26  1  0
 26 27  1  0
 26 28  2  3
  8  1  1  0
 15 10  1  0
 25 20  1  0
  8  4  1  0
  1 29  1  6
  2 30  1  0
  2 31  1  0
  4 32  1  1
  5 33  1  1
  6 34  1  0
  6 35  1  0
  8 36  1  1
 11 37  1  0
 12 38  1  0
 13 39  1  0
 15 40  1  0
 17 41  1  0
 17 42  1  0
 18 43  1  0
 21 44  1  0
 22 45  1  0
 24 46  1  0
 25 47  1  0
 27 48  1  0
 27 49  1  0
 28 50  1  0
M  END
$$$$
