@<TRIPOS>MOLECULE
*****
 47 49 0 0 0
SMALL
GASTEIGER

@<TRIPOS>ATOM
      1 O           5.9424   -1.6925    0.8269 O.2     1  UNL1       -0.2451
      2 C           4.9377   -1.1175    0.3582 C.2     1  UNL1        0.3386
      3 O           3.7145   -1.7455    0.4277 O.3     1  UNL1       -0.4771
      4 C           5.0999    0.1917   -0.2417 C.ar    1  UNL1        0.0800
      5 C           6.3353    0.8056   -0.3019 C.ar    1  UNL1       -0.0460
      6 C           6.4943    2.0513   -0.8718 C.ar    1  UNL1       -0.0609
      7 C           5.3891    2.6996   -1.3949 C.ar    1  UNL1       -0.0600
      8 C           4.1686    2.0643   -1.3215 C.ar    1  UNL1       -0.0396
      9 C           3.9850    0.8208   -0.7573 C.ar    1  UNL1        0.0487
     10 N           2.7266    0.1611   -0.6794 N.am    1  UNL1       -0.2685
     11 C           1.8293    0.2927    0.3986 C.2     1  UNL1        0.3065
     12 O           2.2064    1.0516    1.3290 O.2     1  UNL1       -0.2523
     13 N           0.5714   -0.3448    0.5132 N.am    1  UNL1       -0.2853
     14 C          -0.0010   -1.2407   -0.4661 C.3     1  UNL1        0.0167
     15 C          -1.3973   -0.7450   -0.8856 C.3     1  UNL1       -0.0302
     16 C          -2.1897   -0.5829    0.3972 C.3     1  UNL1       -0.0125
     17 C          -3.6201   -0.7272    0.2613 C.ar    1  UNL1       -0.0326
     18 C          -4.1951   -2.0109    0.3652 C.ar    1  UNL1       -0.0578
     19 C          -5.5355   -2.2699    0.2478 C.ar    1  UNL1       -0.0615
     20 C          -6.3911   -1.2248    0.0136 C.ar    1  UNL1       -0.0612
     21 C          -5.8549    0.0339   -0.0915 C.ar    1  UNL1       -0.0498
     22 C          -4.4800    0.3117    0.0273 C.ar    1  UNL1        0.0582
     23 C          -3.9975    1.6749   -0.0971 C.3     1  UNL1        0.4177
     24 F          -3.0984    1.9433   -1.0845 F       1  UNL1       -0.1659
     25 F          -3.7537    2.3354    1.1014 F       1  UNL1       -0.1659
     26 F          -5.1149    2.4380   -0.5566 F       1  UNL1       -0.1659
     27 C          -1.5966    0.4564    1.2612 C.3     1  UNL1       -0.0302
     28 C          -0.2096   -0.0707    1.7276 C.3     1  UNL1        0.0167
     29 H           3.6122   -2.7645    0.5385 H       1  UNL1        0.2954
     30 H           7.2196    0.3291    0.0963 H       1  UNL1        0.0626
     31 H           7.4388    2.5537   -0.9339 H       1  UNL1        0.0618
     32 H           5.4457    3.6722   -1.8528 H       1  UNL1        0.0618
     33 H           3.2997    2.5596   -1.7258 H       1  UNL1        0.0636
     34 H           2.4601   -0.4557   -1.4729 H       1  UNL1        0.1564
     35 H           0.6371   -1.2964   -1.3561 H       1  UNL1        0.0465
     36 H          -0.1611   -2.2135    0.0289 H       1  UNL1        0.0465
     37 H          -1.1963    0.1601   -1.4405 H       1  UNL1        0.0286
     38 H          -1.8751   -1.5559   -1.4661 H       1  UNL1        0.0286
     39 H          -1.8640   -1.5477    0.9475 H       1  UNL1        0.0350
     40 H          -3.5227   -2.8646    0.5517 H       1  UNL1        0.0620
     41 H          -5.9526   -3.2496    0.3296 H       1  UNL1        0.0618
     42 H          -7.4727   -1.3970   -0.0859 H       1  UNL1        0.0618
     43 H          -6.5389    0.8782   -0.2788 H       1  UNL1        0.0623
     44 H          -1.2895    1.4013    0.7792 H       1  UNL1        0.0286
     45 H          -2.1296    0.5690    2.2252 H       1  UNL1        0.0286
     46 H          -0.3302   -1.0318    2.2604 H       1  UNL1        0.0465
     47 H           0.2547    0.6939    2.3495 H       1  UNL1        0.0465
@<TRIPOS>BOND
     1     1     2    2
     2     2     3    1
     3     2     4    1
     4     4     5   ar
     5     5     6   ar
     6     6     7   ar
     7     7     8   ar
     8     8     9   ar
     9     9    10    1
    10    10    11   am
    11    11    12    2
    12    11    13   am
    13    13    14    1
    14    14    15    1
    15    15    16    1
    16    16    17    1
    17    17    18   ar
    18    18    19   ar
    19    19    20   ar
    20    20    21   ar
    21    21    22   ar
    22    22    23    1
    23    23    24    1
    24    23    25    1
    25    23    26    1
    26    16    27    1
    27    27    28    1
    28     9     4   ar
    29    28    13    1
    30    22    17   ar
    31     3    29    1
    32     5    30    1
    33     6    31    1
    34     7    32    1
    35     8    33    1
    36    10    34    1
    37    14    35    1
    38    14    36    1
    39    15    37    1
    40    15    38    1
    41    16    39    1
    42    18    40    1
    43    19    41    1
    44    20    42    1
    45    21    43    1
    46    27    44    1
    47    27    45    1
    48    28    46    1
    49    28    47    1
