
     RDKit          3D

 47 49  0  0  0  0  0  0  0  0999 V2000
    5.9424   -1.6925    0.8269 O   0  0  0  0  0  0  0  0  0  0  0  0
    4.9377   -1.1175    0.3582 C   0  0  0  0  0  0  0  0  0  0  0  0
    3.7145   -1.7455    0.4277 O   0  0  0  0  0  0  0  0  0  0  0  0
    5.0999    0.1917   -0.2417 C   0  0  0  0  0  0  0  0  0  0  0  0
    6.3353    0.8056   -0.3019 C   0  0  0  0  0  0  0  0  0  0  0  0
    6.4943    2.0513   -0.8718 C   0  0  0  0  0  0  0  0  0  0  0  0
    5.3891    2.6996   -1.3949 C   0  0  0  0  0  0  0  0  0  0  0  0
    4.1686    2.0643   -1.3215 C   0  0  0  0  0  0  0  0  0  0  0  0
    3.9850    0.8208   -0.7573 C   0  0  0  0  0  0  0  0  0  0  0  0
    2.7266    0.1611   -0.6794 N   0  0  0  0  0  0  0  0  0  0  0  0
    1.8293    0.2927    0.3986 C   0  0  0  0  0  0  0  0  0  0  0  0
    2.2064    1.0516    1.3290 O   0  0  0  0  0  0  0  0  0  0  0  0
    0.5714   -0.3448    0.5132 N   0  0  0  0  0  0  0  0  0  0  0  0
   -0.0010   -1.2407   -0.4661 C   0  0  0  0  0  0  0  0  0  0  0  0
   -1.3973   -0.7450   -0.8856 C   0  0  0  0  0  0  0  0  0  0  0  0
   -2.1897   -0.5829    0.3972 C   0  0  0  0  0  0  0  0  0  0  0  0
   -3.6201   -0.7272    0.2613 C   0  0  0  0  0  0  0  0  0  0  0  0
   -4.1951   -2.0109    0.3652 C   0  0  0  0  0  0  0  0  0  0  0  0
   -5.5355   -2.2699    0.2478 C   0  0  0  0  0  0  0  0  0  0  0  0
   -6.3911   -1.2248    0.0136 C   0  0  0  0  0  0  0  0  0  0  0  0
   -5.8549    0.0339   -0.0915 C   0  0  0  0  0  0  0  0  0  0  0  0
   -4.4800    0.3117    0.0273 C   0  0  0  0  0  0  0  0  0  0  0  0
   -3.9975    1.6749   -0.0971 C   0  0  0  0  0  0  0  0  0  0  0  0
   -3.0984    1.9433   -1.0845 F   0  0  0  0  0  0  0  0  0  0  0  0
   -3.7537    2.3354    1.1014 F   0  0  0  0  0  0  0  0  0  0  0  0
   -5.1149    2.4380   -0.5566 F   0  0  0  0  0  0  0  0  0  0  0  0
   -1.5966    0.4564    1.2612 C   0  0  0  0  0  0  0  0  0  0  0  0
   -0.2096   -0.0707    1.7276 C   0  0  0  0  0  0  0  0  0  0  0  0
    3.6122   -2.7645    0.5385 H   0  0  0  0  0  0  0  0  0  0  0  0
    7.2196    0.3291    0.0963 H   0  0  0  0  0  0  0  0  0  0  0  0
    7.4388    2.5537   -0.9339 H   0  0  0  0  0  0  0  0  0  0  0  0
    5.4457    3.6722   -1.8528 H   0  0  0  0  0  0  0  0  0  0  0  0
    3.2997    2.5596   -1.7258 H   0  0  0  0  0  0  0  0  0  0  0  0
    2.4601   -0.4557   -1.4729 H   0  0  0  0  0  0  0  0  0  0  0  0
    0.6371   -1.2964   -1.3561 H   0  0  0  0  0  0  0  0  0  0  0  0
   -0.1611   -2.2135    0.0289 H   0  0  0  0  0  0  0  0  0  0  0  0
   -1.1963    0.1601   -1.4405 H   0  0  0  0  0  0  0  0  0  0  0  0
   -1.8751   -1.5559   -1.4661 H   0  0  0  0  0  0  0  0  0  0  0  0
   -1.8640   -1.5477    0.9475 H   0  0  0  0  0  0  0  0  0  0  0  0
   -3.5227   -2.8646    0.5517 H   0  0  0  0  0  0  0  0  0  0  0  0
   -5.9526   -3.2496    0.3296 H   0  0  0  0  0  0  0  0  0  0  0  0
   -7.4727   -1.3970   -0.0859 H   0  0  0  0  0  0  0  0  0  0  0  0
   -6.5389    0.8782   -0.2788 H   0  0  0  0  0  0  0  0  0  0  0  0
   -1.2895    1.4013    0.7792 H   0  0  0  0  0  0  0  0  0  0  0  0
   -2.1296    0.5690    2.2252 H   0  0  0  0  0  0  0  0  0  0  0  0
   -0.3302   -1.0318    2.2604 H   0  0  0  0  0  0  0  0  0  0  0  0
    0.2547    0.6939    2.3495 H   0  0  0  0  0  0  0  0  0  0  0  0
  1  2  2  0
  2  3  1  0
  2  4  1  0
  4  5  2  0
  5  6  1  0
  6  7  2  0
  7  8  1  0
  8  9  2  0
  9 10  1  0
 10 11  1  0
 11 12  2  0
 11 13  1  0
 13 14  1  0
 14 15  1  0
 15 16  1  0
 16 17  1  0
 17 18  2  0
 18 19  1  0
 19 20  2  0
 20 21  1  0
 21 22  2  0
 22 23  1  0
 23 24  1  0
 23 25  1  0
 23 26  1  0
 16 27  1  0
 27 28  1  0
  9  4  1  0
 28 13  1  0
 22 17  1  0
  3 29  1  0
  5 30  1  0
  6 31  1  0
  7 32  1  0
  8 33  1  0
 10 34  1  0
 14 35  1  0
 14 36  1  0
 15 37  1  0
 15 38  1  0
 16 39  1  0
 18 40  1  0
 19 41  1  0
 20 42  1  0
 21 43  1  0
 27 44  1  0
 27 45  1  0
 28 46  1  0
 28 47  1  0
M  END
$$$$
