@<TRIPOS>MOLECULE
*****
 42 44 0 0 0
SMALL
GASTEIGER

@<TRIPOS>ATOM
      1 C          -1.0196    0.1380   -1.8929 C.3     1  UNL1        0.1005
      2 S          -0.4406   -1.0474   -0.6483 S.3     1  UNL1       -0.1273
      3 C          -2.0569   -1.4072    0.0871 C.3     1  UNL1        0.0417
      4 C          -2.4470   -2.8555   -0.0697 C.3     1  UNL1       -0.0484
      5 C          -2.1191   -1.0066    1.5395 C.3     1  UNL1       -0.0484
      6 CA         -2.9696   -0.4723   -0.6679 C.3     1  UNL1        0.1379
      7 N          -2.1687    0.6266   -1.1727 N.am    1  UNL1       -0.2708
      8 C          -1.7498    1.9558   -1.4414 C.2     1  UNL1        0.2402
      9 O          -2.3035    3.1014   -1.3621 O.2     1  UNL1       -0.2734
     10 CA         -0.4479    1.4894   -1.8398 C.3     1  UNL1        0.1278
     11 N           0.6776    1.7303   -1.0040 N.am    1  UNL1       -0.2989
     12 C           1.8629    2.2976   -1.4830 C.2     1  UNL1        0.2513
     13 O           1.9447    2.6148   -2.7019 O.2     1  UNL1       -0.2721
     14 C           3.1661    2.6574   -0.8804 C.3     1  UNL1        0.1652
     15 O           3.2625    2.3660    0.4944 O.3     1  UNL1       -0.4828
     16 C           3.1716    1.1382    1.0835 C.ar    1  UNL1        0.1212
     17 C           3.3146    1.2809    2.4699 C.ar    1  UNL1       -0.0199
     18 C           3.2630    0.1756    3.3192 C.ar    1  UNL1       -0.0583
     19 C           3.0694   -1.0786    2.8010 C.ar    1  UNL1       -0.0615
     20 C           2.9289   -1.2243    1.4457 C.ar    1  UNL1       -0.0583
     21 C           2.9765   -0.1534    0.5961 C.ar    1  UNL1       -0.0199
     22 C          -3.5839   -1.1541   -1.8423 C.2     1  UNL1        0.3269
     23 O          -4.3080   -2.0205   -2.6382 O.3     1  UNL1       -0.4793
     24 OXT        -3.4820   -0.8895   -3.0721 O.2     1  UNL1       -0.2489
     25 H          -1.2329   -0.3022   -2.8851 H       1  UNL1        0.0640
     26 H          -3.5414   -2.9878   -0.1499 H       1  UNL1        0.0244
     27 H          -2.1524   -3.3614    0.8871 H       1  UNL1        0.0244
     28 H          -1.8617   -3.3159   -0.8667 H       1  UNL1        0.0244
     29 H          -1.7829   -1.8240    2.1881 H       1  UNL1        0.0244
     30 H          -3.1770   -0.8169    1.7807 H       1  UNL1        0.0244
     31 H          -1.5486   -0.0673    1.6837 H       1  UNL1        0.0244
     32 HA         -3.7679   -0.0765    0.0149 H       1  UNL1        0.0631
     33 HA         -0.2201    1.8224   -2.8914 H       1  UNL1        0.0622
     34 H           0.7462    1.5286    0.0167 H       1  UNL1        0.1496
     35 H           3.9429    2.0029   -1.3704 H       1  UNL1        0.0795
     36 H           3.4386    3.7190   -1.0612 H       1  UNL1        0.0795
     37 H           3.4736    2.1965    3.0440 H       1  UNL1        0.0654
     38 H           3.3659    0.2190    4.3935 H       1  UNL1        0.0619
     39 H           3.0115   -2.0132    3.3633 H       1  UNL1        0.0618
     40 H           2.7711   -2.1406    0.8868 H       1  UNL1        0.0619
     41 H           2.8826   -0.1153   -0.4836 H       1  UNL1        0.0654
     42 H          -4.8887   -2.7297   -2.2197 H       1  UNL1        0.2951
@<TRIPOS>BOND
     1     1     2    1
     2     2     3    1
     3     3     4    1
     4     3     5    1
     5     3     6    1
     6     6     7    1
     7     7     8   am
     8     8     9    2
     9     8    10    1
    10    10    11    1
    11    11    12   am
    12    12    13    2
    13    12    14    1
    14    14    15    1
    15    15    16    1
    16    16    17   ar
    17    17    18   ar
    18    18    19   ar
    19    19    20   ar
    20    20    21   ar
    21     6    22    1
    22    22    23    1
    23    22    24    2
    24     7     1    1
    25    21    16   ar
    26    10     1    1
    27     1    25    1
    28     4    26    1
    29     4    27    1
    30     4    28    1
    31     5    29    1
    32     5    30    1
    33     5    31    1
    34     6    32    1
    35    10    33    1
    36    11    34    1
    37    14    35    1
    38    14    36    1
    39    17    37    1
    40    18    38    1
    41    19    39    1
    42    20    40    1
    43    21    41    1
    44    23    42    1
