@<TRIPOS>MOLECULE
*****
 41 42 0 0 0
SMALL
GASTEIGER

@<TRIPOS>ATOM
      1 C          -7.6238   -0.7439    1.7930 C.3     1  UNL1       -0.0306
      2 C          -6.5889   -1.6140    1.1145 C.3     1  UNL1        0.0900
      3 O          -5.4971   -0.7329    0.7891 O.3     1  UNL1       -0.4614
      4 C          -4.3748   -1.1775    0.1524 C.2     1  UNL1        0.3392
      5 O          -4.3575   -2.4175   -0.1340 O.2     1  UNL1       -0.2450
      6 C          -3.2151   -0.3834   -0.2266 C.ar    1  UNL1        0.0591
      7 C          -3.1145    0.9714    0.0446 C.ar    1  UNL1       -0.0460
      8 C          -1.9878    1.7117   -0.3500 C.ar    1  UNL1       -0.0397
      9 C          -0.9599    1.0928   -1.0179 C.ar    1  UNL1        0.0334
     10 N           0.1646    1.8250   -1.4336 N.am    1  UNL1       -0.2848
     11 C           1.3119    1.9637   -0.6203 C.2     1  UNL1        0.2275
     12 O           1.3320    1.4228    0.5058 O.2     1  UNL1       -0.2746
     13 C           2.4819    2.7668   -1.1508 C.3     1  UNL1        0.0779
     14 S           3.4355    1.6088   -2.1596 S.3     1  UNL1       -0.0785
     15 C           4.1593    0.3458   -1.1397 C.ar    1  UNL1        0.1696
     16 N           5.4240    0.5705   -0.6736 N.ar    1  UNL1       -0.2285
     17 C           6.0675   -0.3168    0.0932 C.ar    1  UNL1        0.0462
     18 C           7.4547   -0.0484    0.5871 C.3     1  UNL1       -0.0221
     19 C           5.4565   -1.4933    0.4335 C.ar    1  UNL1        0.0239
     20 C           4.1825   -1.7119   -0.0395 C.ar    1  UNL1        0.2523
     21 O           3.6287   -2.7930    0.2771 O.2     1  UNL1       -0.2678
     22 N           3.5694   -0.8031   -0.8042 N.ar    1  UNL1       -0.3019
     23 C          -1.0338   -0.2483   -1.2982 C.ar    1  UNL1       -0.0397
     24 C          -2.1586   -0.9609   -0.8977 C.ar    1  UNL1       -0.0460
     25 H          -8.6605   -1.1094    1.6247 H       1  UNL1        0.0262
     26 H          -7.3537   -0.7040    2.8667 H       1  UNL1        0.0262
     27 H          -7.5159    0.3161    1.4157 H       1  UNL1        0.0262
     28 H          -6.2599   -2.3841    1.8401 H       1  UNL1        0.0695
     29 H          -6.9477   -2.1407    0.2294 H       1  UNL1        0.0695
     30 H          -3.8978    1.4836    0.5618 H       1  UNL1        0.0626
     31 H          -1.8979    2.7738   -0.1433 H       1  UNL1        0.0636
     32 H           0.1337    2.2696   -2.3700 H       1  UNL1        0.1548
     33 H           2.1433    3.6056   -1.7640 H       1  UNL1        0.0475
     34 H           3.0244    3.1227   -0.2589 H       1  UNL1        0.0475
     35 H           7.4277    0.0812    1.6843 H       1  UNL1        0.0293
     36 H           7.8735    0.8371    0.1034 H       1  UNL1        0.0293
     37 H           8.0920   -0.9576    0.3846 H       1  UNL1        0.0293
     38 H           5.9721   -2.2308    1.0619 H       1  UNL1        0.0690
     39 H           2.5942   -0.9669   -1.1667 H       1  UNL1        0.1708
     40 H          -0.2552   -0.7978   -1.8219 H       1  UNL1        0.0636
     41 H          -2.2289   -2.0326   -1.1168 H       1  UNL1        0.0626
@<TRIPOS>BOND
     1     1     2    1
     2     2     3    1
     3     3     4    1
     4     4     5    2
     5     4     6    1
     6     6     7   ar
     7     7     8   ar
     8     8     9   ar
     9     9    10    1
    10    10    11   am
    11    11    12    2
    12    11    13    1
    13    13    14    1
    14    14    15    1
    15    15    16   ar
    16    16    17   ar
    17    17    18    1
    18    17    19   ar
    19    19    20   ar
    20    20    21    2
    21    20    22   ar
    22     9    23   ar
    23    23    24   ar
    24    24     6   ar
    25    22    15   ar
    26     1    25    1
    27     1    26    1
    28     1    27    1
    29     2    28    1
    30     2    29    1
    31     7    30    1
    32     8    31    1
    33    10    32    1
    34    13    33    1
    35    13    34    1
    36    18    35    1
    37    18    36    1
    38    18    37    1
    39    19    38    1
    40    22    39    1
    41    23    40    1
    42    24    41    1
