
     RDKit          3D

 41 42  0  0  0  0  0  0  0  0999 V2000
   -7.6238   -0.7439    1.7930 C   0  0  0  0  0  0  0  0  0  0  0  0
   -6.5889   -1.6140    1.1145 C   0  0  0  0  0  0  0  0  0  0  0  0
   -5.4971   -0.7329    0.7891 O   0  0  0  0  0  0  0  0  0  0  0  0
   -4.3748   -1.1775    0.1524 C   0  0  0  0  0  0  0  0  0  0  0  0
   -4.3575   -2.4175   -0.1340 O   0  0  0  0  0  0  0  0  0  0  0  0
   -3.2151   -0.3834   -0.2266 C   0  0  0  0  0  0  0  0  0  0  0  0
   -3.1145    0.9714    0.0446 C   0  0  0  0  0  0  0  0  0  0  0  0
   -1.9878    1.7117   -0.3500 C   0  0  0  0  0  0  0  0  0  0  0  0
   -0.9599    1.0928   -1.0179 C   0  0  0  0  0  0  0  0  0  0  0  0
    0.1646    1.8250   -1.4336 N   0  0  0  0  0  0  0  0  0  0  0  0
    1.3119    1.9637   -0.6203 C   0  0  0  0  0  0  0  0  0  0  0  0
    1.3320    1.4228    0.5058 O   0  0  0  0  0  0  0  0  0  0  0  0
    2.4819    2.7668   -1.1508 C   0  0  0  0  0  0  0  0  0  0  0  0
    3.4355    1.6088   -2.1596 S   0  0  0  0  0  0  0  0  0  0  0  0
    4.1593    0.3458   -1.1397 C   0  0  0  0  0  0  0  0  0  0  0  0
    5.4240    0.5705   -0.6736 N   0  0  0  0  0  0  0  0  0  0  0  0
    6.0675   -0.3168    0.0932 C   0  0  0  0  0  0  0  0  0  0  0  0
    7.4547   -0.0484    0.5871 C   0  0  0  0  0  0  0  0  0  0  0  0
    5.4565   -1.4933    0.4335 C   0  0  0  0  0  0  0  0  0  0  0  0
    4.1825   -1.7119   -0.0395 C   0  0  0  0  0  0  0  0  0  0  0  0
    3.6287   -2.7930    0.2771 O   0  0  0  0  0  0  0  0  0  0  0  0
    3.5694   -0.8031   -0.8042 N   0  0  0  0  0  0  0  0  0  0  0  0
   -1.0338   -0.2483   -1.2982 C   0  0  0  0  0  0  0  0  0  0  0  0
   -2.1586   -0.9609   -0.8977 C   0  0  0  0  0  0  0  0  0  0  0  0
   -8.6605   -1.1094    1.6247 H   0  0  0  0  0  0  0  0  0  0  0  0
   -7.3537   -0.7040    2.8667 H   0  0  0  0  0  0  0  0  0  0  0  0
   -7.5159    0.3161    1.4157 H   0  0  0  0  0  0  0  0  0  0  0  0
   -6.2599   -2.3841    1.8401 H   0  0  0  0  0  0  0  0  0  0  0  0
   -6.9477   -2.1407    0.2294 H   0  0  0  0  0  0  0  0  0  0  0  0
   -3.8978    1.4836    0.5618 H   0  0  0  0  0  0  0  0  0  0  0  0
   -1.8979    2.7738   -0.1433 H   0  0  0  0  0  0  0  0  0  0  0  0
    0.1337    2.2696   -2.3700 H   0  0  0  0  0  0  0  0  0  0  0  0
    2.1433    3.6056   -1.7640 H   0  0  0  0  0  0  0  0  0  0  0  0
    3.0244    3.1227   -0.2589 H   0  0  0  0  0  0  0  0  0  0  0  0
    7.4277    0.0812    1.6843 H   0  0  0  0  0  0  0  0  0  0  0  0
    7.8735    0.8371    0.1034 H   0  0  0  0  0  0  0  0  0  0  0  0
    8.0920   -0.9576    0.3846 H   0  0  0  0  0  0  0  0  0  0  0  0
    5.9721   -2.2308    1.0619 H   0  0  0  0  0  0  0  0  0  0  0  0
    2.5942   -0.9669   -1.1667 H   0  0  0  0  0  0  0  0  0  0  0  0
   -0.2552   -0.7978   -1.8219 H   0  0  0  0  0  0  0  0  0  0  0  0
   -2.2289   -2.0326   -1.1168 H   0  0  0  0  0  0  0  0  0  0  0  0
  1  2  1  0
  2  3  1  0
  3  4  1  0
  4  5  2  0
  4  6  1  0
  6  7  2  0
  7  8  1  0
  8  9  2  0
  9 10  1  0
 10 11  1  0
 11 12  2  0
 11 13  1  0
 13 14  1  0
 14 15  1  0
 15 16  2  0
 16 17  1  0
 17 18  1  0
 17 19  2  0
 19 20  1  0
 20 21  2  0
 20 22  1  0
  9 23  1  0
 23 24  2  0
 24  6  1  0
 22 15  1  0
  1 25  1  0
  1 26  1  0
  1 27  1  0
  2 28  1  0
  2 29  1  0
  7 30  1  0
  8 31  1  0
 10 32  1  0
 13 33  1  0
 13 34  1  0
 18 35  1  0
 18 36  1  0
 18 37  1  0
 19 38  1  0
 22 39  1  0
 23 40  1  0
 24 41  1  0
M  END
$$$$
