@<TRIPOS>MOLECULE
*****
 54 56 0 0 0
SMALL
GASTEIGER

@<TRIPOS>ATOM
      1 C          -6.0684    2.3984    1.6707 C.3     1  UNL1       -0.0415
      2 N          -5.0934    1.3459    1.6119 N.4     1  UNL1        0.2401
      3 C          -5.4407    0.3784    2.6456 C.3     1  UNL1       -0.0415
      4 C          -5.1689    0.6105    0.3443 C.3     1  UNL1       -0.0415
      5 C          -3.7555    1.7746    1.8543 C.3     1  UNL1       -0.0049
      6 C          -2.7600    1.1969    0.9205 C.ar    1  UNL1       -0.0028
      7 C          -2.1769    0.0051    1.2954 C.ar    1  UNL1       -0.0528
      8 C          -1.2218   -0.6375    0.4944 C.ar    1  UNL1       -0.0492
      9 C          -0.8490   -0.0703   -0.7021 C.ar    1  UNL1        0.0370
     10 C           0.1322   -0.6841   -1.5751 C.2     1  UNL1        0.2483
     11 O           0.4110   -0.0929   -2.6591 O.2     1  UNL1       -0.2699
     12 N           0.8142   -1.9014   -1.3187 N.am    1  UNL1       -0.2808
     13 C           1.7736   -2.4417   -2.2386 C.ar    1  UNL1        0.0459
     14 C           1.4461   -3.3113   -3.2574 C.ar    1  UNL1       -0.0384
     15 C           2.3829   -3.8181   -4.1295 C.ar    1  UNL1       -0.0416
     16 C           3.6830   -3.4545   -3.9908 C.ar    1  UNL1        0.0418
     17 CL          4.9641   -4.0386   -5.0456 Cl      1  UNL1       -0.0835
     18 C           4.0255   -2.5815   -2.9716 C.ar    1  UNL1       -0.0295
     19 C           3.0924   -2.0696   -2.0938 C.ar    1  UNL1        0.0596
     20 C           3.4416   -1.1509   -1.0188 C.2     1  UNL1        0.2511
     21 O           2.5481   -0.6981   -0.2251 O.2     1  UNL1       -0.2697
     22 N           4.7528   -0.6824   -0.7513 N.am    1  UNL1       -0.2663
     23 C           5.0838    0.2140    0.2999 C.ar    1  UNL1        0.1252
     24 C           5.4366   -0.1712    1.5676 C.ar    1  UNL1       -0.0201
     25 C           5.7330    0.8003    2.4900 C.ar    1  UNL1       -0.0387
     26 C           5.6804    2.1377    2.1597 C.ar    1  UNL1        0.0592
     27 CL          6.0505    3.4153    3.3040 Cl      1  UNL1       -0.0820
     28 C           5.3261    2.4875    0.8904 C.ar    1  UNL1        0.0480
     29 N           5.0392    1.5420   -0.0015 N.ar    1  UNL1       -0.2387
     30 C          -1.4509    1.1215   -1.0474 C.ar    1  UNL1       -0.0492
     31 C          -2.3908    1.7597   -0.2656 C.ar    1  UNL1       -0.0528
     32 H          -5.6811    3.3100    2.2028 H       1  UNL1        0.0778
     33 H          -6.4200    2.6687    0.6423 H       1  UNL1        0.0778
     34 H          -6.9944    2.1142    2.2236 H       1  UNL1        0.0778
     35 H          -6.5107    0.0935    2.4299 H       1  UNL1        0.0778
     36 H          -5.3964    0.9152    3.6152 H       1  UNL1        0.0778
     37 H          -4.7778   -0.4953    2.6527 H       1  UNL1        0.0778
     38 H          -4.7855    1.2260   -0.4993 H       1  UNL1        0.0778
     39 H          -6.2234    0.3739    0.0877 H       1  UNL1        0.0778
     40 H          -4.6532   -0.3680    0.4355 H       1  UNL1        0.0778
     41 H          -3.7295    2.8900    1.6782 H       1  UNL1        0.0868
     42 H          -3.4981    1.6323    2.9037 H       1  UNL1        0.0868
     43 H          -2.4181   -0.5011    2.2200 H       1  UNL1        0.0622
     44 H          -0.7735   -1.5614    0.7908 H       1  UNL1        0.0625
     45 H           0.5858   -2.3912   -0.4239 H       1  UNL1        0.1552
     46 H           0.3937   -3.5966   -3.3584 H       1  UNL1        0.0637
     47 H           2.1029   -4.4943   -4.9154 H       1  UNL1        0.0633
     48 H           5.0686   -2.2947   -2.8666 H       1  UNL1        0.0640
     49 H           5.5236   -1.0159   -1.3638 H       1  UNL1        0.1566
     50 H           5.4679   -1.2207    1.7923 H       1  UNL1        0.0652
     51 H           6.0136    0.5429    3.4928 H       1  UNL1        0.0634
     52 H           5.2651    3.5326    0.5642 H       1  UNL1        0.0845
     53 H          -1.1543    1.5736   -2.0005 H       1  UNL1        0.0625
     54 H          -2.8460    2.6923   -0.5606 H       1  UNL1        0.0622
@<TRIPOS>UNITY_ATOM_ATTR
2 1
charge 1
@<TRIPOS>BOND
     1     1     2    1
     2     2     3    1
     3     2     4    1
     4     2     5    1
     5     5     6    1
     6     6     7   ar
     7     7     8   ar
     8     8     9   ar
     9     9    10    1
    10    10    11    2
    11    10    12   am
    12    12    13    1
    13    13    14   ar
    14    14    15   ar
    15    15    16   ar
    16    16    17    1
    17    16    18   ar
    18    18    19   ar
    19    19    20    1
    20    20    21    2
    21    20    22   am
    22    22    23    1
    23    23    24   ar
    24    24    25   ar
    25    25    26   ar
    26    26    27    1
    27    26    28   ar
    28    28    29   ar
    29     9    30   ar
    30    30    31   ar
    31    31     6   ar
    32    19    13   ar
    33    29    23   ar
    34     1    32    1
    35     1    33    1
    36     1    34    1
    37     3    35    1
    38     3    36    1
    39     3    37    1
    40     4    38    1
    41     4    39    1
    42     4    40    1
    43     5    41    1
    44     5    42    1
    45     7    43    1
    46     8    44    1
    47    12    45    1
    48    14    46    1
    49    15    47    1
    50    18    48    1
    51    22    49    1
    52    24    50    1
    53    25    51    1
    54    28    52    1
    55    30    53    1
    56    31    54    1
