
     RDKit          3D

 54 56  0  0  0  0  0  0  0  0999 V2000
   -6.0684    2.3984    1.6707 C   0  0  0  0  0  0  0  0  0  0  0  0
   -5.0934    1.3459    1.6119 N   0  0  0  0  0  4  0  0  0  0  0  0
   -5.4407    0.3784    2.6456 C   0  0  0  0  0  0  0  0  0  0  0  0
   -5.1689    0.6105    0.3443 C   0  0  0  0  0  0  0  0  0  0  0  0
   -3.7555    1.7746    1.8543 C   0  0  0  0  0  0  0  0  0  0  0  0
   -2.7600    1.1969    0.9205 C   0  0  0  0  0  0  0  0  0  0  0  0
   -2.1769    0.0051    1.2954 C   0  0  0  0  0  0  0  0  0  0  0  0
   -1.2218   -0.6375    0.4944 C   0  0  0  0  0  0  0  0  0  0  0  0
   -0.8490   -0.0703   -0.7021 C   0  0  0  0  0  0  0  0  0  0  0  0
    0.1322   -0.6841   -1.5751 C   0  0  0  0  0  0  0  0  0  0  0  0
    0.4110   -0.0929   -2.6591 O   0  0  0  0  0  0  0  0  0  0  0  0
    0.8142   -1.9014   -1.3187 N   0  0  0  0  0  0  0  0  0  0  0  0
    1.7736   -2.4417   -2.2386 C   0  0  0  0  0  0  0  0  0  0  0  0
    1.4461   -3.3113   -3.2574 C   0  0  0  0  0  0  0  0  0  0  0  0
    2.3829   -3.8181   -4.1295 C   0  0  0  0  0  0  0  0  0  0  0  0
    3.6830   -3.4545   -3.9908 C   0  0  0  0  0  0  0  0  0  0  0  0
    4.9641   -4.0386   -5.0456 Cl  0  0  0  0  0  0  0  0  0  0  0  0
    4.0255   -2.5815   -2.9716 C   0  0  0  0  0  0  0  0  0  0  0  0
    3.0924   -2.0696   -2.0938 C   0  0  0  0  0  0  0  0  0  0  0  0
    3.4416   -1.1509   -1.0188 C   0  0  0  0  0  0  0  0  0  0  0  0
    2.5481   -0.6981   -0.2251 O   0  0  0  0  0  0  0  0  0  0  0  0
    4.7528   -0.6824   -0.7513 N   0  0  0  0  0  0  0  0  0  0  0  0
    5.0838    0.2140    0.2999 C   0  0  0  0  0  0  0  0  0  0  0  0
    5.4366   -0.1712    1.5676 C   0  0  0  0  0  0  0  0  0  0  0  0
    5.7330    0.8003    2.4900 C   0  0  0  0  0  0  0  0  0  0  0  0
    5.6804    2.1377    2.1597 C   0  0  0  0  0  0  0  0  0  0  0  0
    6.0505    3.4153    3.3040 Cl  0  0  0  0  0  0  0  0  0  0  0  0
    5.3261    2.4875    0.8904 C   0  0  0  0  0  0  0  0  0  0  0  0
    5.0392    1.5420   -0.0015 N   0  0  0  0  0  0  0  0  0  0  0  0
   -1.4509    1.1215   -1.0474 C   0  0  0  0  0  0  0  0  0  0  0  0
   -2.3908    1.7597   -0.2656 C   0  0  0  0  0  0  0  0  0  0  0  0
   -5.6811    3.3100    2.2028 H   0  0  0  0  0  0  0  0  0  0  0  0
   -6.4200    2.6687    0.6423 H   0  0  0  0  0  0  0  0  0  0  0  0
   -6.9944    2.1142    2.2236 H   0  0  0  0  0  0  0  0  0  0  0  0
   -6.5107    0.0935    2.4299 H   0  0  0  0  0  0  0  0  0  0  0  0
   -5.3964    0.9152    3.6152 H   0  0  0  0  0  0  0  0  0  0  0  0
   -4.7778   -0.4953    2.6527 H   0  0  0  0  0  0  0  0  0  0  0  0
   -4.7855    1.2260   -0.4993 H   0  0  0  0  0  0  0  0  0  0  0  0
   -6.2234    0.3739    0.0877 H   0  0  0  0  0  0  0  0  0  0  0  0
   -4.6532   -0.3680    0.4355 H   0  0  0  0  0  0  0  0  0  0  0  0
   -3.7295    2.8900    1.6782 H   0  0  0  0  0  0  0  0  0  0  0  0
   -3.4981    1.6323    2.9037 H   0  0  0  0  0  0  0  0  0  0  0  0
   -2.4181   -0.5011    2.2200 H   0  0  0  0  0  0  0  0  0  0  0  0
   -0.7735   -1.5614    0.7908 H   0  0  0  0  0  0  0  0  0  0  0  0
    0.5858   -2.3912   -0.4239 H   0  0  0  0  0  0  0  0  0  0  0  0
    0.3937   -3.5966   -3.3584 H   0  0  0  0  0  0  0  0  0  0  0  0
    2.1029   -4.4943   -4.9154 H   0  0  0  0  0  0  0  0  0  0  0  0
    5.0686   -2.2947   -2.8666 H   0  0  0  0  0  0  0  0  0  0  0  0
    5.5236   -1.0159   -1.3638 H   0  0  0  0  0  0  0  0  0  0  0  0
    5.4679   -1.2207    1.7923 H   0  0  0  0  0  0  0  0  0  0  0  0
    6.0136    0.5429    3.4928 H   0  0  0  0  0  0  0  0  0  0  0  0
    5.2651    3.5326    0.5642 H   0  0  0  0  0  0  0  0  0  0  0  0
   -1.1543    1.5736   -2.0005 H   0  0  0  0  0  0  0  0  0  0  0  0
   -2.8460    2.6923   -0.5606 H   0  0  0  0  0  0  0  0  0  0  0  0
  1  2  1  0
  2  3  1  0
  2  4  1  0
  2  5  1  0
  5  6  1  0
  6  7  2  0
  7  8  1  0
  8  9  2  0
  9 10  1  0
 10 11  2  0
 10 12  1  0
 12 13  1  0
 13 14  2  0
 14 15  1  0
 15 16  2  0
 16 17  1  0
 16 18  1  0
 18 19  2  0
 19 20  1  0
 20 21  2  0
 20 22  1  0
 22 23  1  0
 23 24  2  0
 24 25  1  0
 25 26  2  0
 26 27  1  0
 26 28  1  0
 28 29  2  0
  9 30  1  0
 30 31  2  0
 31  6  1  0
 19 13  1  0
 29 23  1  0
  1 32  1  0
  1 33  1  0
  1 34  1  0
  3 35  1  0
  3 36  1  0
  3 37  1  0
  4 38  1  0
  4 39  1  0
  4 40  1  0
  5 41  1  0
  5 42  1  0
  7 43  1  0
  8 44  1  0
 12 45  1  0
 14 46  1  0
 15 47  1  0
 18 48  1  0
 22 49  1  0
 24 50  1  0
 25 51  1  0
 28 52  1  0
 30 53  1  0
 31 54  1  0
M  CHG  1   2   1
M  END
$$$$
