
     RDKit          3D

 44 46  0  0  0  0  0  0  0  0999 V2000
   -4.0180   -3.2306    0.2721 N   0  0  0  0  0  0  0  0  0  0  0  0
   -4.1386   -2.1087    0.0847 C   0  0  0  0  0  0  0  0  0  0  0  0
   -4.2726   -0.6662   -0.1707 C   0  0  1  0  0  0  0  0  0  0  0  0
   -5.7037   -0.3086    0.2894 C   0  0  0  0  0  0  0  0  0  0  0  0
   -5.9611    1.1608    0.2018 C   0  0  0  0  0  0  0  0  0  0  0  0
   -5.0055    1.9000    0.9120 O   0  0  0  0  0  0  0  0  0  0  0  0
   -3.7926    1.6399    0.3379 C   0  0  0  0  0  0  0  0  0  0  0  0
   -3.3468    0.1886    0.6105 C   0  0  2  0  0  0  0  0  0  0  0  0
   -1.9694    0.0905    0.1161 N   0  0  0  0  0  0  0  0  0  0  0  0
   -1.4677   -0.8707   -0.6619 C   0  0  0  0  0  0  0  0  0  0  0  0
   -0.1544   -0.5944   -0.9330 C   0  0  0  0  0  0  0  0  0  0  0  0
    0.8082   -1.3399   -1.7259 C   0  0  0  0  0  0  0  0  0  0  0  0
    0.3447   -2.5427   -2.3551 N   0  0  0  0  0  0  0  0  0  0  0  0
    1.9945   -1.0230   -1.9023 O   0  0  0  0  0  0  0  0  0  0  0  0
    0.1262    0.6108   -0.2652 C   0  0  0  0  0  0  0  0  0  0  0  0
    1.3782    1.2662   -0.3397 N   0  0  0  0  0  0  0  0  0  0  0  0
    2.5999    0.8531    0.1809 C   0  0  0  0  0  0  0  0  0  0  0  0
    3.7448    1.4394   -0.3150 C   0  0  0  0  0  0  0  0  0  0  0  0
    4.9759    1.0561    0.1708 C   0  0  0  0  0  0  0  0  0  0  0  0
    5.0685    0.0894    1.1476 C   0  0  0  0  0  0  0  0  0  0  0  0
    6.2892   -0.3186    1.6532 O   0  0  0  0  0  0  0  0  0  0  0  0
    7.5557    0.1230    1.2621 C   0  0  0  0  0  0  0  0  0  0  0  0
    8.4254   -0.9384    1.2210 F   0  0  0  0  0  0  0  0  0  0  0  0
    8.0710    1.0061    2.2343 F   0  0  0  0  0  0  0  0  0  0  0  0
    3.9092   -0.4978    1.6440 C   0  0  0  0  0  0  0  0  0  0  0  0
    2.6921   -0.0977    1.1438 C   0  0  0  0  0  0  0  0  0  0  0  0
   -1.0017    0.9607    0.3413 N   0  0  0  0  0  0  0  0  0  0  0  0
   -4.2661   -0.4563   -1.2376 H   0  0  0  0  0  0  0  0  0  0  0  0
   -6.3997   -0.8138   -0.4040 H   0  0  0  0  0  0  0  0  0  0  0  0
   -5.8208   -0.6357    1.3375 H   0  0  0  0  0  0  0  0  0  0  0  0
   -6.0362    1.4725   -0.8402 H   0  0  0  0  0  0  0  0  0  0  0  0
   -6.9313    1.3480    0.7108 H   0  0  0  0  0  0  0  0  0  0  0  0
   -3.9437    1.6600   -0.7784 H   0  0  0  0  0  0  0  0  0  0  0  0
   -3.0102    2.3630    0.5416 H   0  0  0  0  0  0  0  0  0  0  0  0
   -3.4260    0.0701    1.6886 H   0  0  0  0  0  0  0  0  0  0  0  0
   -1.9769   -1.7677   -1.0538 H   0  0  0  0  0  0  0  0  0  0  0  0
    0.3474   -2.5469   -3.4052 H   0  0  0  0  0  0  0  0  0  0  0  0
    0.0237   -3.3642   -1.8139 H   0  0  0  0  0  0  0  0  0  0  0  0
    1.3418    2.1989   -0.8647 H   0  0  0  0  0  0  0  0  0  0  0  0
    3.7019    2.2101   -1.0960 H   0  0  0  0  0  0  0  0  0  0  0  0
    5.8718    1.5453   -0.2465 H   0  0  0  0  0  0  0  0  0  0  0  0
    7.5579    0.7268    0.3259 H   0  0  0  0  0  0  0  0  0  0  0  0
    3.9960   -1.2687    2.4341 H   0  0  0  0  0  0  0  0  0  0  0  0
    1.8188   -0.5888    1.5716 H   0  0  0  0  0  0  0  0  0  0  0  0
  1  2  3  0
  2  3  1  0
  3  4  1  0
  4  5  1  0
  5  6  1  0
  6  7  1  0
  7  8  1  0
  8  9  1  0
  9 10  1  0
 10 11  2  0
 11 12  1  0
 12 13  1  0
 12 14  2  0
 11 15  1  0
 15 16  1  0
 16 17  1  0
 17 18  2  0
 18 19  1  0
 19 20  2  0
 20 21  1  0
 21 22  1  0
 22 23  1  0
 22 24  1  0
 20 25  1  0
 25 26  2  0
 15 27  2  0
  8  3  1  0
 27  9  1  0
 26 17  1  0
  3 28  1  6
  4 29  1  0
  4 30  1  0
  5 31  1  0
  5 32  1  0
  7 33  1  0
  7 34  1  0
  8 35  1  1
 10 36  1  0
 13 37  1  0
 13 38  1  0
 16 39  1  0
 18 40  1  0
 19 41  1  0
 22 42  1  0
 25 43  1  0
 26 44  1  0
M  END
$$$$
