@<TRIPOS>MOLECULE
*****
 44 46 0 0 0
SMALL
GASTEIGER

@<TRIPOS>ATOM
      1 N          -4.0180   -3.2306    0.2721 N.1     1  UNL1       -0.1962
      2 C          -4.1386   -2.1087    0.0847 C.1     1  UNL1        0.0681
      3 C          -4.2726   -0.6662   -0.1707 C.3     1  UNL1        0.0727
      4 C          -5.7037   -0.3086    0.2894 C.3     1  UNL1       -0.0118
      5 C          -5.9611    1.1608    0.2018 C.3     1  UNL1        0.0490
      6 O          -5.0055    1.9000    0.9120 O.3     1  UNL1       -0.3776
      7 C          -3.7926    1.6399    0.3379 C.3     1  UNL1        0.0712
      8 C          -3.3468    0.1886    0.6105 C.3     1  UNL1        0.0915
      9 N          -1.9694    0.0905    0.1161 N.ar    1  UNL1       -0.2624
     10 C          -1.4677   -0.8707   -0.6619 C.ar    1  UNL1        0.0400
     11 C          -0.1544   -0.5944   -0.9330 C.ar    1  UNL1        0.0957
     12 C           0.8082   -1.3399   -1.7259 C.2     1  UNL1        0.2464
     13 N           0.3447   -2.5427   -2.3551 N.am    1  UNL1       -0.3252
     14 O           1.9945   -1.0230   -1.9023 O.2     1  UNL1       -0.2702
     15 C           0.1262    0.6108   -0.2652 C.ar    1  UNL1        0.1570
     16 N           1.3782    1.2662   -0.3397 N.pl3   1  UNL1       -0.2974
     17 C           2.5999    0.8531    0.1809 C.ar    1  UNL1        0.0326
     18 C           3.7448    1.4394   -0.3150 C.ar    1  UNL1       -0.0371
     19 C           4.9759    1.0561    0.1708 C.ar    1  UNL1       -0.0180
     20 C           5.0685    0.0894    1.1476 C.ar    1  UNL1        0.1270
     21 O           6.2892   -0.3186    1.6532 O.3     1  UNL1       -0.4342
     22 C           7.5557    0.1230    1.2621 C.3     1  UNL1        0.3893
     23 F           8.4254   -0.9384    1.2210 F       1  UNL1       -0.1663
     24 F           8.0710    1.0061    2.2343 F       1  UNL1       -0.1663
     25 C           3.9092   -0.4978    1.6440 C.ar    1  UNL1       -0.0180
     26 C           2.6921   -0.0977    1.1438 C.ar    1  UNL1       -0.0371
     27 N          -1.0017    0.9607    0.3413 N.ar    1  UNL1       -0.1549
     28 H          -4.2661   -0.4563   -1.2376 H       1  UNL1        0.0476
     29 H          -6.3997   -0.8138   -0.4040 H       1  UNL1        0.0300
     30 H          -5.8208   -0.6357    1.3375 H       1  UNL1        0.0300
     31 H          -6.0362    1.4725   -0.8402 H       1  UNL1        0.0560
     32 H          -6.9313    1.3480    0.7108 H       1  UNL1        0.0560
     33 H          -3.9437    1.6600   -0.7784 H       1  UNL1        0.0581
     34 H          -3.0102    2.3630    0.5416 H       1  UNL1        0.0581
     35 H          -3.4260    0.0701    1.6886 H       1  UNL1        0.0580
     36 H          -1.9769   -1.7677   -1.0538 H       1  UNL1        0.0835
     37 H           0.3474   -2.5469   -3.4052 H       1  UNL1        0.1453
     38 H           0.0237   -3.3642   -1.8139 H       1  UNL1        0.1453
     39 H           1.3418    2.1989   -0.8647 H       1  UNL1        0.1536
     40 H           3.7019    2.2101   -1.0960 H       1  UNL1        0.0637
     41 H           5.8718    1.5453   -0.2465 H       1  UNL1        0.0655
     42 H           7.5579    0.7268    0.3259 H       1  UNL1        0.1520
     43 H           3.9960   -1.2687    2.4341 H       1  UNL1        0.0655
     44 H           1.8188   -0.5888    1.5716 H       1  UNL1        0.0637
@<TRIPOS>BOND
     1     1     2    3
     2     2     3    1
     3     3     4    1
     4     4     5    1
     5     5     6    1
     6     6     7    1
     7     7     8    1
     8     8     9    1
     9     9    10   ar
    10    10    11   ar
    11    11    12    1
    12    12    13   am
    13    12    14    2
    14    11    15   ar
    15    15    16    1
    16    16    17    1
    17    17    18   ar
    18    18    19   ar
    19    19    20   ar
    20    20    21    1
    21    21    22    1
    22    22    23    1
    23    22    24    1
    24    20    25   ar
    25    25    26   ar
    26    15    27   ar
    27     8     3    1
    28    27     9   ar
    29    26    17   ar
    30     3    28    1
    31     4    29    1
    32     4    30    1
    33     5    31    1
    34     5    32    1
    35     7    33    1
    36     7    34    1
    37     8    35    1
    38    10    36    1
    39    13    37    1
    40    13    38    1
    41    16    39    1
    42    18    40    1
    43    19    41    1
    44    22    42    1
    45    25    43    1
    46    26    44    1
