
     RDKit          3D

 51 53  0  0  0  0  0  0  0  0999 V2000
   -2.0268   -0.9647   -2.3751 C   0  0  0  0  0  0  0  0  0  0  0  0
   -1.9765   -1.5511   -0.9894 C   0  0  0  0  0  0  0  0  0  0  0  0
   -1.4181   -2.9817   -1.1122 C   0  0  0  0  0  0  0  0  0  0  0  0
   -3.2555   -1.6854   -0.4625 O   0  0  0  0  0  0  0  0  0  0  0  0
   -4.1793   -0.6864   -0.2362 C   0  0  0  0  0  0  0  0  0  0  0  0
   -3.9269    0.6346   -0.5209 C   0  0  0  0  0  0  0  0  0  0  0  0
   -4.8788    1.6231   -0.2821 C   0  0  0  0  0  0  0  0  0  0  0  0
   -6.0898    1.2532    0.2494 C   0  0  0  0  0  0  0  0  0  0  0  0
   -7.3041    2.4908    0.5573 Cl  0  0  0  0  0  0  0  0  0  0  0  0
   -6.3469   -0.0711    0.5364 C   0  0  0  0  0  0  0  0  0  0  0  0
   -5.3979   -1.0464    0.2969 C   0  0  0  0  0  0  0  0  0  0  0  0
   -1.1118   -0.7863   -0.0752 C   0  0  0  0  0  0  0  0  0  0  0  0
   -1.5935   -0.3753    1.0101 O   0  0  0  0  0  0  0  0  0  0  0  0
    0.2499   -0.4864   -0.3588 N   0  0  0  0  0  0  0  0  0  0  0  0
    1.0404    0.2567    0.5605 C   0  0  1  0  0  0  0  0  0  0  0  0
    2.2619   -0.4857    1.0505 C   0  0  0  0  0  0  0  0  0  0  0  0
    2.8828    0.3340    2.1369 C   0  0  0  0  0  0  0  0  0  0  0  0
    3.1541    1.6301    1.8113 O   0  0  0  0  0  0  0  0  0  0  0  0
    2.2046    2.3144    1.1159 C   0  0  0  0  0  0  0  0  0  0  0  0
    1.5705    1.5603   -0.0229 C   0  0  0  0  0  0  0  0  0  0  0  0
    2.4682    1.3289   -1.1855 C   0  0  0  0  0  0  0  0  0  0  0  0
    3.5021    0.2755   -1.0167 C   0  0  1  0  0  0  0  0  0  0  0  0
    4.8427    0.8886   -0.7282 C   0  0  0  0  0  0  0  0  0  0  0  0
    5.9978    0.1150   -0.5181 N   0  0  0  0  0  0  0  0  0  0  0  0
    4.9293    2.1258   -0.6744 O   0  0  0  0  0  0  0  0  0  0  0  0
    3.1709   -0.8257   -0.0766 C   0  0  0  0  0  0  0  0  0  0  0  0
   -1.7071   -1.7183   -3.1504 H   0  0  0  0  0  0  0  0  0  0  0  0
   -1.4299   -0.0354   -2.4561 H   0  0  0  0  0  0  0  0  0  0  0  0
   -3.0793   -0.7449   -2.6163 H   0  0  0  0  0  0  0  0  0  0  0  0
   -2.2351   -3.5887   -1.5685 H   0  0  0  0  0  0  0  0  0  0  0  0
   -1.2695   -3.3342   -0.0754 H   0  0  0  0  0  0  0  0  0  0  0  0
   -0.5020   -3.0043   -1.7163 H   0  0  0  0  0  0  0  0  0  0  0  0
   -2.9897    0.9570   -0.9369 H   0  0  0  0  0  0  0  0  0  0  0  0
   -4.6976    2.6525   -0.4978 H   0  0  0  0  0  0  0  0  0  0  0  0
   -7.3073   -0.3378    0.9542 H   0  0  0  0  0  0  0  0  0  0  0  0
   -5.6516   -2.0803    0.5420 H   0  0  0  0  0  0  0  0  0  0  0  0
    0.6345   -0.8340   -1.2625 H   0  0  0  0  0  0  0  0  0  0  0  0
    0.4454    0.5308    1.4556 H   0  0  0  0  0  0  0  0  0  0  0  0
    1.8979   -1.4341    1.4992 H   0  0  0  0  0  0  0  0  0  0  0  0
    2.2649    0.2188    3.0525 H   0  0  0  0  0  0  0  0  0  0  0  0
    3.8665   -0.1599    2.3917 H   0  0  0  0  0  0  0  0  0  0  0  0
    2.7133    3.2082    0.6472 H   0  0  0  0  0  0  0  0  0  0  0  0
    1.4014    2.7521    1.7462 H   0  0  0  0  0  0  0  0  0  0  0  0
    0.6860    2.1324   -0.3648 H   0  0  0  0  0  0  0  0  0  0  0  0
    3.0076    2.2987   -1.3862 H   0  0  0  0  0  0  0  0  0  0  0  0
    1.8367    1.1228   -2.0743 H   0  0  0  0  0  0  0  0  0  0  0  0
    3.6540   -0.1954   -2.0362 H   0  0  0  0  0  0  0  0  0  0  0  0
    6.6376   -0.2276   -1.2682 H   0  0  0  0  0  0  0  0  0  0  0  0
    6.2581   -0.1511    0.4561 H   0  0  0  0  0  0  0  0  0  0  0  0
    4.1128   -1.2493    0.3475 H   0  0  0  0  0  0  0  0  0  0  0  0
    2.6831   -1.6624   -0.6476 H   0  0  0  0  0  0  0  0  0  0  0  0
  1  2  1  0
  2  3  1  0
  2  4  1  0
  4  5  1  0
  5  6  2  0
  6  7  1  0
  7  8  2  0
  8  9  1  0
  8 10  1  0
 10 11  2  0
  2 12  1  0
 12 13  2  0
 12 14  1  0
 14 15  1  0
 15 16  1  0
 16 17  1  0
 17 18  1  0
 18 19  1  0
 19 20  1  0
 20 21  1  0
 21 22  1  0
 22 23  1  0
 23 24  1  0
 23 25  2  0
 22 26  1  0
 11  5  1  0
 20 15  1  0
 26 16  1  0
  1 27  1  0
  1 28  1  0
  1 29  1  0
  3 30  1  0
  3 31  1  0
  3 32  1  0
  6 33  1  0
  7 34  1  0
 10 35  1  0
 11 36  1  0
 14 37  1  0
 15 38  1  1
 16 39  1  0
 17 40  1  0
 17 41  1  0
 19 42  1  0
 19 43  1  0
 20 44  1  0
 21 45  1  0
 21 46  1  0
 22 47  1  6
 24 48  1  0
 24 49  1  0
 26 50  1  0
 26 51  1  0
M  END
$$$$
