@<TRIPOS>MOLECULE
*****
 51 53 0 0 0
SMALL
GASTEIGER

@<TRIPOS>ATOM
      1 C          -2.0268   -0.9647   -2.3751 C.3     1  UNL1       -0.0165
      2 C          -1.9765   -1.5511   -0.9894 C.3     1  UNL1        0.1799
      3 C          -1.4181   -2.9817   -1.1122 C.3     1  UNL1       -0.0165
      4 O          -3.2555   -1.6854   -0.4625 O.3     1  UNL1       -0.4770
      5 C          -4.1793   -0.6864   -0.2362 C.ar    1  UNL1        0.1221
      6 C          -3.9269    0.6346   -0.5209 C.ar    1  UNL1       -0.0185
      7 C          -4.8788    1.6231   -0.2821 C.ar    1  UNL1       -0.0399
      8 C          -6.0898    1.2532    0.2494 C.ar    1  UNL1        0.0412
      9 CL         -7.3041    2.4908    0.5573 Cl      1  UNL1       -0.0835
     10 C          -6.3469   -0.0711    0.5364 C.ar    1  UNL1       -0.0399
     11 C          -5.3979   -1.0464    0.2969 C.ar    1  UNL1       -0.0185
     12 C          -1.1118   -0.7863   -0.0752 C.2     1  UNL1        0.2566
     13 O          -1.5935   -0.3753    1.0101 O.2     1  UNL1       -0.2714
     14 N           0.2499   -0.4864   -0.3588 N.am    1  UNL1       -0.3085
     15 C           1.0404    0.2567    0.5605 C.3     1  UNL1        0.0331
     16 C           2.2619   -0.4857    1.0505 C.3     1  UNL1        0.0019
     17 C           2.8828    0.3340    2.1369 C.3     1  UNL1        0.0522
     18 O           3.1541    1.6301    1.8113 O.3     1  UNL1       -0.3791
     19 C           2.2046    2.3144    1.1159 C.3     1  UNL1        0.0522
     20 C           1.5705    1.5603   -0.0229 C.3     1  UNL1        0.0019
     21 C           2.4682    1.3289   -1.1855 C.3     1  UNL1       -0.0353
     22 C           3.5021    0.2755   -1.0167 C.3     1  UNL1        0.0361
     23 C           4.8427    0.8886   -0.7282 C.2     1  UNL1        0.2136
     24 N           5.9978    0.1150   -0.5181 N.am    1  UNL1       -0.3291
     25 O           4.9293    2.1258   -0.6744 O.2     1  UNL1       -0.2757
     26 C           3.1709   -0.8257   -0.0766 C.3     1  UNL1       -0.0353
     27 H          -1.7071   -1.7183   -3.1504 H       1  UNL1        0.0273
     28 H          -1.4299   -0.0354   -2.4561 H       1  UNL1        0.0273
     29 H          -3.0793   -0.7449   -2.6163 H       1  UNL1        0.0273
     30 H          -2.2351   -3.5887   -1.5685 H       1  UNL1        0.0273
     31 H          -1.2695   -3.3342   -0.0754 H       1  UNL1        0.0273
     32 H          -0.5020   -3.0043   -1.7163 H       1  UNL1        0.0273
     33 H          -2.9897    0.9570   -0.9369 H       1  UNL1        0.0654
     34 H          -4.6976    2.6525   -0.4978 H       1  UNL1        0.0633
     35 H          -7.3073   -0.3378    0.9542 H       1  UNL1        0.0633
     36 H          -5.6516   -2.0803    0.5420 H       1  UNL1        0.0654
     37 H           0.6345   -0.8340   -1.2625 H       1  UNL1        0.1491
     38 H           0.4454    0.5308    1.4556 H       1  UNL1        0.0505
     39 H           1.8979   -1.4341    1.4992 H       1  UNL1        0.0341
     40 H           2.2649    0.2188    3.0525 H       1  UNL1        0.0563
     41 H           3.8665   -0.1599    2.3917 H       1  UNL1        0.0563
     42 H           2.7133    3.2082    0.6472 H       1  UNL1        0.0563
     43 H           1.4014    2.7521    1.7462 H       1  UNL1        0.0563
     44 H           0.6860    2.1324   -0.3648 H       1  UNL1        0.0341
     45 H           3.0076    2.2987   -1.3862 H       1  UNL1        0.0276
     46 H           1.8367    1.1228   -2.0743 H       1  UNL1        0.0276
     47 H           3.6540   -0.1954   -2.0362 H       1  UNL1        0.0394
     48 H           6.6376   -0.2276   -1.2682 H       1  UNL1        0.1449
     49 H           6.2581   -0.1511    0.4561 H       1  UNL1        0.1449
     50 H           4.1128   -1.2493    0.3475 H       1  UNL1        0.0276
     51 H           2.6831   -1.6624   -0.6476 H       1  UNL1        0.0276
@<TRIPOS>BOND
     1     1     2    1
     2     2     3    1
     3     2     4    1
     4     4     5    1
     5     5     6   ar
     6     6     7   ar
     7     7     8   ar
     8     8     9    1
     9     8    10   ar
    10    10    11   ar
    11     2    12    1
    12    12    13    2
    13    12    14   am
    14    14    15    1
    15    15    16    1
    16    16    17    1
    17    17    18    1
    18    18    19    1
    19    19    20    1
    20    20    21    1
    21    21    22    1
    22    22    23    1
    23    23    24   am
    24    23    25    2
    25    22    26    1
    26    11     5   ar
    27    20    15    1
    28    26    16    1
    29     1    27    1
    30     1    28    1
    31     1    29    1
    32     3    30    1
    33     3    31    1
    34     3    32    1
    35     6    33    1
    36     7    34    1
    37    10    35    1
    38    11    36    1
    39    14    37    1
    40    15    38    1
    41    16    39    1
    42    17    40    1
    43    17    41    1
    44    19    42    1
    45    19    43    1
    46    20    44    1
    47    21    45    1
    48    21    46    1
    49    22    47    1
    50    24    48    1
    51    24    49    1
    52    26    50    1
    53    26    51    1
