
     RDKit          3D

 36 36  0  0  0  0  0  0  0  0999 V2000
    4.8069   -2.0405    0.1530 N   0  0  0  0  0  0  0  0  0  0  0  0
    4.3990   -0.7012   -0.0206 C   0  0  0  0  0  0  0  0  0  0  0  0
    5.2894    0.3174   -0.4414 N   0  0  0  0  0  0  0  0  0  0  0  0
    3.4042    0.0705    0.0598 N   0  0  0  0  0  0  0  0  0  0  0  0
    2.0504   -0.3122    0.4580 C   0  0  0  0  0  0  0  0  0  0  0  0
    1.0785    0.7201   -0.0308 C   0  0  0  0  0  0  0  0  0  0  0  0
   -0.2926    0.5185    0.2583 N   0  0  0  0  0  0  0  0  0  0  0  0
   -1.0485    1.4236   -0.4997 C   0  0  0  0  0  0  0  0  0  0  0  0
   -2.4497    1.7375   -0.1171 C   0  0  0  0  0  0  0  0  0  0  0  0
   -3.3406    0.9778   -1.0835 C   0  0  0  0  0  0  0  0  0  0  0  0
   -3.0510   -0.5007   -0.8666 C   0  0  0  0  0  0  0  0  0  0  0  0
   -3.2445   -0.8070    0.5812 C   0  0  0  0  0  0  0  0  0  0  0  0
   -2.0286   -0.8349    1.4164 C   0  0  0  0  0  0  0  0  0  0  0  0
   -0.7309   -0.7176    0.6953 C   0  0  0  0  0  0  0  0  0  0  0  0
    5.6738   -2.3025   -0.3101 H   0  0  0  0  0  0  0  0  0  0  0  0
    4.0699   -2.4822    0.7634 H   0  0  0  0  0  0  0  0  0  0  0  0
    5.8207    1.1143    0.0157 H   0  0  0  0  0  0  0  0  0  0  0  0
    5.7011    0.5855   -1.3795 H   0  0  0  0  0  0  0  0  0  0  0  0
    2.0405   -0.3415    1.5591 H   0  0  0  0  0  0  0  0  0  0  0  0
    1.9129   -1.3083    0.0018 H   0  0  0  0  0  0  0  0  0  0  0  0
    1.3147    0.9518   -1.0843 H   0  0  0  0  0  0  0  0  0  0  0  0
    1.3472    1.7028    0.5127 H   0  0  0  0  0  0  0  0  0  0  0  0
   -0.5016    2.4189   -0.4434 H   0  0  0  0  0  0  0  0  0  0  0  0
   -0.9685    1.2228   -1.6264 H   0  0  0  0  0  0  0  0  0  0  0  0
   -2.7144    2.8263   -0.3296 H   0  0  0  0  0  0  0  0  0  0  0  0
   -2.7511    1.5902    0.9111 H   0  0  0  0  0  0  0  0  0  0  0  0
   -4.4090    1.1276   -0.8369 H   0  0  0  0  0  0  0  0  0  0  0  0
   -3.0861    1.2979   -2.1154 H   0  0  0  0  0  0  0  0  0  0  0  0
   -2.0731   -0.8002   -1.2591 H   0  0  0  0  0  0  0  0  0  0  0  0
   -3.8075   -1.0259   -1.4893 H   0  0  0  0  0  0  0  0  0  0  0  0
   -3.9375   -0.0545    1.0132 H   0  0  0  0  0  0  0  0  0  0  0  0
   -3.8410   -1.7712    0.6320 H   0  0  0  0  0  0  0  0  0  0  0  0
   -2.0049   -1.8549    1.9141 H   0  0  0  0  0  0  0  0  0  0  0  0
   -2.0050   -0.1569    2.2948 H   0  0  0  0  0  0  0  0  0  0  0  0
    0.0317   -1.0214    1.4978 H   0  0  0  0  0  0  0  0  0  0  0  0
   -0.6546   -1.5698   -0.0169 H   0  0  0  0  0  0  0  0  0  0  0  0
  1  2  1  0
  2  3  1  0
  2  4  2  3
  4  5  1  0
  5  6  1  0
  6  7  1  0
  7  8  1  0
  8  9  1  0
  9 10  1  0
 10 11  1  0
 11 12  1  0
 12 13  1  0
 13 14  1  0
 14  7  1  0
  1 15  1  0
  1 16  1  0
  3 17  1  0
  3 18  1  0
  5 19  1  0
  5 20  1  0
  6 21  1  0
  6 22  1  0
  8 23  1  0
  8 24  1  0
  9 25  1  0
  9 26  1  0
 10 27  1  0
 10 28  1  0
 11 29  1  0
 11 30  1  0
 12 31  1  0
 12 32  1  0
 13 33  1  0
 13 34  1  0
 14 35  1  0
 14 36  1  0
M  END
$$$$
