@<TRIPOS>MOLECULE
*****
 62 66 0 0 0
SMALL
GASTEIGER

@<TRIPOS>ATOM
      1 C           6.8325    0.2844    2.6429 C.3     1  UNL1        0.0788
      2 O           6.8500   -0.6275    1.5783 O.3     1  UNL1       -0.4950
      3 C           5.6907   -0.8249    0.8481 C.ar    1  UNL1        0.1243
      4 C           5.7486   -1.7393   -0.2021 C.ar    1  UNL1        0.0218
      5 C           4.6199   -1.9624   -0.9493 C.ar    1  UNL1        0.1243
      6 O           4.6601   -2.8636   -1.9916 O.3     1  UNL1       -0.4950
      7 C           5.8472   -3.5627   -2.3035 C.3     1  UNL1        0.0788
      8 C           3.4529   -1.2937   -0.6646 C.ar    1  UNL1       -0.0074
      9 C           3.3720   -0.3834    0.3708 C.ar    1  UNL1        0.0454
     10 C           2.1193    0.3234    0.6636 C.ar    1  UNL1        0.2488
     11 N           1.9824    1.2196    1.6584 N.ar    1  UNL1       -0.1071
     12 N           0.7338    1.6627    1.6429 N.ar    1  UNL1       -0.1072
     13 C           0.0884    1.0499    0.6453 C.ar    1  UNL1        0.2707
     14 C          -1.2903    1.1907    0.2194 C.3     1  UNL1        0.2702
     15 C          -2.2242    1.8940    1.1298 C.3     1  UNL1        0.0303
     16 C          -1.9125    3.2791    1.4717 C.ar    1  UNL1       -0.0426
     17 C          -2.2856    4.3085    0.6208 C.ar    1  UNL1       -0.0584
     18 C          -2.0234    5.6255    0.9341 C.ar    1  UNL1       -0.0615
     19 C          -1.3814    5.9761    2.1022 C.ar    1  UNL1       -0.0617
     20 C          -1.0066    4.9606    2.9552 C.ar    1  UNL1       -0.0615
     21 C          -1.2733    3.6225    2.6371 C.ar    1  UNL1       -0.0584
     22 O          -1.4135    1.7944   -1.0726 O.3     1  UNL1       -0.4237
     23 C          -2.6565    1.3934   -1.5417 C.2     1  UNL1        0.4114
     24 O          -3.4065    1.9835   -2.3840 O.2     1  UNL1       -0.2257
     25 N          -3.0194    0.1549   -0.9248 N.am    1  UNL1       -0.1965
     26 C          -4.2422   -0.6166   -1.1367 C.3     1  UNL1        0.0590
     27 C          -4.9990   -0.7338    0.1522 C.3     1  UNL1       -0.0417
     28 C          -3.9356   -1.9751   -1.6475 C.ar    1  UNL1       -0.0267
     29 C          -4.5629   -3.0877   -1.1287 C.ar    1  UNL1       -0.0568
     30 C          -4.2729   -4.3697   -1.6113 C.ar    1  UNL1       -0.0614
     31 C          -3.3509   -4.5569   -2.6199 C.ar    1  UNL1       -0.0617
     32 C          -2.7317   -3.4341   -3.1286 C.ar    1  UNL1       -0.0614
     33 C          -3.0106   -2.1670   -2.6600 C.ar    1  UNL1       -0.0568
     34 C          -1.9283   -0.1533   -0.0686 C.2     1  UNL1        0.2787
     35 O          -1.5998   -1.2788    0.3335 O.2     1  UNL1       -0.2701
     36 O           0.9749    0.2443    0.0789 O.2     1  UNL1       -0.4157
     37 C           4.5105   -0.1665    1.1150 C.ar    1  UNL1       -0.0074
     38 H           5.9389    0.1536    3.3027 H       1  UNL1        0.0660
     39 H           7.7613    0.1800    3.2600 H       1  UNL1        0.0660
     40 H           6.7872    1.3226    2.2536 H       1  UNL1        0.0660
     41 H           6.6640   -2.2554   -0.4155 H       1  UNL1        0.0691
     42 H           5.7084   -4.0388   -3.3087 H       1  UNL1        0.0660
     43 H           6.7329   -2.9011   -2.3508 H       1  UNL1        0.0660
     44 H           6.0514   -4.3950   -1.5935 H       1  UNL1        0.0660
     45 H           2.5537   -1.4615   -1.2483 H       1  UNL1        0.0662
     46 H          -3.2661    1.8712    0.6884 H       1  UNL1        0.0362
     47 H          -2.3568    1.2764    2.0727 H       1  UNL1        0.0362
     48 H          -2.7844    4.0585   -0.2898 H       1  UNL1        0.0620
     49 H          -2.3090    6.4468    0.2781 H       1  UNL1        0.0618
     50 H          -1.1720    7.0207    2.3529 H       1  UNL1        0.0618
     51 H          -0.4974    5.2245    3.8836 H       1  UNL1        0.0618
     52 H          -0.9567    2.8973    3.3720 H       1  UNL1        0.0620
     53 H          -4.9062   -0.1232   -1.8662 H       1  UNL1        0.0553
     54 H          -6.0183   -1.1059   -0.0780 H       1  UNL1        0.0251
     55 H          -4.4938   -1.4903    0.7842 H       1  UNL1        0.0251
     56 H          -5.1141    0.2394    0.6721 H       1  UNL1        0.0251
     57 H          -5.2914   -2.9916   -0.3389 H       1  UNL1        0.0621
     58 H          -4.7802   -5.2412   -1.1879 H       1  UNL1        0.0618
     59 H          -3.1412   -5.5621   -2.9794 H       1  UNL1        0.0618
     60 H          -2.0037   -3.5720   -3.9236 H       1  UNL1        0.0618
     61 H          -2.5322   -1.2784   -3.0499 H       1  UNL1        0.0621
     62 H           4.4698    0.5548    1.9455 H       1  UNL1        0.0662
@<TRIPOS>BOND
     1     1     2    1
     2     2     3    1
     3     3     4   ar
     4     4     5   ar
     5     5     6    1
     6     6     7    1
     7     5     8   ar
     8     8     9   ar
     9     9    10    1
    10    10    11   ar
    11    11    12   ar
    12    12    13   ar
    13    13    14    1
    14    14    15    1
    15    15    16    1
    16    16    17   ar
    17    17    18   ar
    18    18    19   ar
    19    19    20   ar
    20    20    21   ar
    21    14    22    1
    22    22    23    1
    23    23    24    2
    24    23    25   am
    25    25    26    1
    26    26    27    1
    27    26    28    1
    28    28    29   ar
    29    29    30   ar
    30    30    31   ar
    31    31    32   ar
    32    32    33   ar
    33    25    34   am
    34    34    35    2
    35    13    36   ar
    36     9    37   ar
    37    37     3   ar
    38    36    10   ar
    39    34    14    1
    40    21    16   ar
    41    33    28   ar
    42     1    38    1
    43     1    39    1
    44     1    40    1
    45     4    41    1
    46     7    42    1
    47     7    43    1
    48     7    44    1
    49     8    45    1
    50    15    46    1
    51    15    47    1
    52    17    48    1
    53    18    49    1
    54    19    50    1
    55    20    51    1
    56    21    52    1
    57    26    53    1
    58    27    54    1
    59    27    55    1
    60    27    56    1
    61    29    57    1
    62    30    58    1
    63    31    59    1
    64    32    60    1
    65    33    61    1
    66    37    62    1
