
     RDKit          3D

 62 66  0  0  0  0  0  0  0  0999 V2000
    6.8325    0.2844    2.6429 C   0  0  0  0  0  0  0  0  0  0  0  0
    6.8500   -0.6275    1.5783 O   0  0  0  0  0  0  0  0  0  0  0  0
    5.6907   -0.8249    0.8481 C   0  0  0  0  0  0  0  0  0  0  0  0
    5.7486   -1.7393   -0.2021 C   0  0  0  0  0  0  0  0  0  0  0  0
    4.6199   -1.9624   -0.9493 C   0  0  0  0  0  0  0  0  0  0  0  0
    4.6601   -2.8636   -1.9916 O   0  0  0  0  0  0  0  0  0  0  0  0
    5.8472   -3.5627   -2.3035 C   0  0  0  0  0  0  0  0  0  0  0  0
    3.4529   -1.2937   -0.6646 C   0  0  0  0  0  0  0  0  0  0  0  0
    3.3720   -0.3834    0.3708 C   0  0  0  0  0  0  0  0  0  0  0  0
    2.1193    0.3234    0.6636 C   0  0  0  0  0  0  0  0  0  0  0  0
    1.9824    1.2196    1.6584 N   0  0  0  0  0  0  0  0  0  0  0  0
    0.7338    1.6627    1.6429 N   0  0  0  0  0  0  0  0  0  0  0  0
    0.0884    1.0499    0.6453 C   0  0  0  0  0  0  0  0  0  0  0  0
   -1.2903    1.1907    0.2194 C   0  0  1  0  0  0  0  0  0  0  0  0
   -2.2242    1.8940    1.1298 C   0  0  0  0  0  0  0  0  0  0  0  0
   -1.9125    3.2791    1.4717 C   0  0  0  0  0  0  0  0  0  0  0  0
   -2.2856    4.3085    0.6208 C   0  0  0  0  0  0  0  0  0  0  0  0
   -2.0234    5.6255    0.9341 C   0  0  0  0  0  0  0  0  0  0  0  0
   -1.3814    5.9761    2.1022 C   0  0  0  0  0  0  0  0  0  0  0  0
   -1.0066    4.9606    2.9552 C   0  0  0  0  0  0  0  0  0  0  0  0
   -1.2733    3.6225    2.6371 C   0  0  0  0  0  0  0  0  0  0  0  0
   -1.4135    1.7944   -1.0726 O   0  0  0  0  0  0  0  0  0  0  0  0
   -2.6565    1.3934   -1.5417 C   0  0  0  0  0  0  0  0  0  0  0  0
   -3.4065    1.9835   -2.3840 O   0  0  0  0  0  0  0  0  0  0  0  0
   -3.0194    0.1549   -0.9248 N   0  0  0  0  0  0  0  0  0  0  0  0
   -4.2422   -0.6166   -1.1367 C   0  0  2  0  0  0  0  0  0  0  0  0
   -4.9990   -0.7338    0.1522 C   0  0  0  0  0  0  0  0  0  0  0  0
   -3.9356   -1.9751   -1.6475 C   0  0  0  0  0  0  0  0  0  0  0  0
   -4.5629   -3.0877   -1.1287 C   0  0  0  0  0  0  0  0  0  0  0  0
   -4.2729   -4.3697   -1.6113 C   0  0  0  0  0  0  0  0  0  0  0  0
   -3.3509   -4.5569   -2.6199 C   0  0  0  0  0  0  0  0  0  0  0  0
   -2.7317   -3.4341   -3.1286 C   0  0  0  0  0  0  0  0  0  0  0  0
   -3.0106   -2.1670   -2.6600 C   0  0  0  0  0  0  0  0  0  0  0  0
   -1.9283   -0.1533   -0.0686 C   0  0  0  0  0  0  0  0  0  0  0  0
   -1.5998   -1.2788    0.3335 O   0  0  0  0  0  0  0  0  0  0  0  0
    0.9749    0.2443    0.0789 O   0  0  0  0  0  0  0  0  0  0  0  0
    4.5105   -0.1665    1.1150 C   0  0  0  0  0  0  0  0  0  0  0  0
    5.9389    0.1536    3.3027 H   0  0  0  0  0  0  0  0  0  0  0  0
    7.7613    0.1800    3.2600 H   0  0  0  0  0  0  0  0  0  0  0  0
    6.7872    1.3226    2.2536 H   0  0  0  0  0  0  0  0  0  0  0  0
    6.6640   -2.2554   -0.4155 H   0  0  0  0  0  0  0  0  0  0  0  0
    5.7084   -4.0388   -3.3087 H   0  0  0  0  0  0  0  0  0  0  0  0
    6.7329   -2.9011   -2.3508 H   0  0  0  0  0  0  0  0  0  0  0  0
    6.0514   -4.3950   -1.5935 H   0  0  0  0  0  0  0  0  0  0  0  0
    2.5537   -1.4615   -1.2483 H   0  0  0  0  0  0  0  0  0  0  0  0
   -3.2661    1.8712    0.6884 H   0  0  0  0  0  0  0  0  0  0  0  0
   -2.3568    1.2764    2.0727 H   0  0  0  0  0  0  0  0  0  0  0  0
   -2.7844    4.0585   -0.2898 H   0  0  0  0  0  0  0  0  0  0  0  0
   -2.3090    6.4468    0.2781 H   0  0  0  0  0  0  0  0  0  0  0  0
   -1.1720    7.0207    2.3529 H   0  0  0  0  0  0  0  0  0  0  0  0
   -0.4974    5.2245    3.8836 H   0  0  0  0  0  0  0  0  0  0  0  0
   -0.9567    2.8973    3.3720 H   0  0  0  0  0  0  0  0  0  0  0  0
   -4.9062   -0.1232   -1.8662 H   0  0  0  0  0  0  0  0  0  0  0  0
   -6.0183   -1.1059   -0.0780 H   0  0  0  0  0  0  0  0  0  0  0  0
   -4.4938   -1.4903    0.7842 H   0  0  0  0  0  0  0  0  0  0  0  0
   -5.1141    0.2394    0.6721 H   0  0  0  0  0  0  0  0  0  0  0  0
   -5.2914   -2.9916   -0.3389 H   0  0  0  0  0  0  0  0  0  0  0  0
   -4.7802   -5.2412   -1.1879 H   0  0  0  0  0  0  0  0  0  0  0  0
   -3.1412   -5.5621   -2.9794 H   0  0  0  0  0  0  0  0  0  0  0  0
   -2.0037   -3.5720   -3.9236 H   0  0  0  0  0  0  0  0  0  0  0  0
   -2.5322   -1.2784   -3.0499 H   0  0  0  0  0  0  0  0  0  0  0  0
    4.4698    0.5548    1.9455 H   0  0  0  0  0  0  0  0  0  0  0  0
  1  2  1  0
  2  3  1  0
  3  4  2  0
  4  5  1  0
  5  6  1  0
  6  7  1  0
  5  8  2  0
  8  9  1  0
  9 10  1  0
 10 11  2  0
 11 12  1  0
 12 13  2  0
 13 14  1  0
 14 15  1  1
 15 16  1  0
 16 17  2  0
 17 18  1  0
 18 19  2  0
 19 20  1  0
 20 21  2  0
 14 22  1  0
 22 23  1  0
 23 24  2  0
 23 25  1  0
 25 26  1  0
 26 27  1  0
 26 28  1  0
 28 29  2  0
 29 30  1  0
 30 31  2  0
 31 32  1  0
 32 33  2  0
 25 34  1  0
 34 35  2  0
 13 36  1  0
  9 37  2  0
 37  3  1  0
 36 10  1  0
 34 14  1  0
 21 16  1  0
 33 28  1  0
  1 38  1  0
  1 39  1  0
  1 40  1  0
  4 41  1  0
  7 42  1  0
  7 43  1  0
  7 44  1  0
  8 45  1  0
 15 46  1  0
 15 47  1  0
 17 48  1  0
 18 49  1  0
 19 50  1  0
 20 51  1  0
 21 52  1  0
 26 53  1  6
 27 54  1  0
 27 55  1  0
 27 56  1  0
 29 57  1  0
 30 58  1  0
 31 59  1  0
 32 60  1  0
 33 61  1  0
 37 62  1  0
M  END
$$$$
