@<TRIPOS>MOLECULE
*****
 45 46 0 0 0
SMALL
GASTEIGER

@<TRIPOS>ATOM
      1 C           4.6038    1.6013    0.2016 C.3     1  UNL1       -0.0652
      2 C           5.1666    0.2074    0.3688 C.3     1  UNL1       -0.0542
      3 C           4.1160   -0.8034    0.6917 C.3     1  UNL1       -0.0299
      4 C           3.0909   -0.8625   -0.4084 C.3     1  UNL1        0.0986
      5 C           3.6333   -1.2347   -1.7433 C.3     1  UNL1       -0.0415
      6 S           1.9955    0.5872   -0.4371 S.3     1  UNL1       -0.0771
      7 C           0.6275   -0.1850    0.4277 C.2     1  UNL1        0.1476
      8 N          -0.5460    0.4204    0.9695 N.pl3   1  UNL1       -0.3227
      9 C          -1.7602   -0.2569    1.3527 C.3     1  UNL1        0.0222
     10 C          -2.8191    0.6404    1.8894 C.3     1  UNL1       -0.0345
     11 C          -3.5370    1.5600    1.0202 C.3     1  UNL1       -0.0514
     12 C          -3.1355    1.7604   -0.3827 C.3     1  UNL1       -0.0530
     13 C          -4.0500    1.0168   -1.3440 C.3     1  UNL1       -0.0531
     14 C          -3.9618   -0.4452   -1.0638 C.3     1  UNL1       -0.0530
     15 C          -2.5426   -0.9371   -0.9780 C.3     1  UNL1       -0.0514
     16 C          -2.2070   -1.3122    0.4241 C.3     1  UNL1       -0.0345
     17 N           0.8295   -1.4572    0.5188 N.am    1  UNL1       -0.1582
     18 C           2.0376   -1.8870   -0.0695 C.2     1  UNL1        0.2544
     19 O           2.2229   -3.1248   -0.3055 O.2     1  UNL1       -0.2721
     20 H           3.7883    1.7769    0.9299 H       1  UNL1        0.0230
     21 H           5.3708    2.3824    0.4241 H       1  UNL1        0.0230
     22 H           4.2055    1.8025   -0.8078 H       1  UNL1        0.0230
     23 H           5.8921    0.2774    1.2317 H       1  UNL1        0.0263
     24 H           5.7668   -0.0244   -0.5093 H       1  UNL1        0.0263
     25 H           4.5724   -1.7910    0.7918 H       1  UNL1        0.0283
     26 H           3.6110   -0.5572    1.6283 H       1  UNL1        0.0283
     27 H           4.0318   -0.3739   -2.3171 H       1  UNL1        0.0248
     28 H           2.8329   -1.7152   -2.3561 H       1  UNL1        0.0248
     29 H           4.4517   -1.9449   -1.5971 H       1  UNL1        0.0248
     30 H          -0.4976    1.4780    1.0944 H       1  UNL1        0.1480
     31 H          -1.4305   -0.8454    2.2618 H       1  UNL1        0.0498
     32 H          -2.3156    1.1996    2.7277 H       1  UNL1        0.0283
     33 H          -3.5249   -0.0335    2.4634 H       1  UNL1        0.0283
     34 H          -4.6309    1.2679    0.9916 H       1  UNL1        0.0266
     35 H          -3.6067    2.5826    1.5019 H       1  UNL1        0.0266
     36 H          -3.2464    2.8383   -0.7090 H       1  UNL1        0.0265
     37 H          -2.1161    1.5022   -0.6774 H       1  UNL1        0.0265
     38 H          -3.8316    1.2713   -2.3935 H       1  UNL1        0.0265
     39 H          -5.0739    1.3875   -1.1053 H       1  UNL1        0.0265
     40 H          -4.5235   -0.6663   -0.1136 H       1  UNL1        0.0265
     41 H          -4.5697   -0.9571   -1.8508 H       1  UNL1        0.0265
     42 H          -1.8038   -0.3335   -1.5105 H       1  UNL1        0.0266
     43 H          -2.5482   -1.9115   -1.5552 H       1  UNL1        0.0266
     44 H          -3.1165   -1.7753    0.8595 H       1  UNL1        0.0283
     45 H          -1.4518   -2.1254    0.4052 H       1  UNL1        0.0283
@<TRIPOS>BOND
     1     1     2    1
     2     2     3    1
     3     4     3    1
     4     4     5    1
     5     4     6    1
     6     6     7    1
     7     7     8    1
     8     8     9    1
     9     9    10    1
    10    10    11    1
    11    11    12    1
    12    12    13    1
    13    13    14    1
    14    14    15    1
    15    15    16    1
    16     7    17    2
    17    17    18    1
    18    18    19    2
    19    18     4    1
    20    16     9    1
    21     1    20    1
    22     1    21    1
    23     1    22    1
    24     2    23    1
    25     2    24    1
    26     3    25    1
    27     3    26    1
    28     5    27    1
    29     5    28    1
    30     5    29    1
    31     8    30    1
    32     9    31    1
    33    10    32    1
    34    10    33    1
    35    11    34    1
    36    11    35    1
    37    12    36    1
    38    12    37    1
    39    13    38    1
    40    13    39    1
    41    14    40    1
    42    14    41    1
    43    15    42    1
    44    15    43    1
    45    16    44    1
    46    16    45    1
