@<TRIPOS>MOLECULE
*****
 61 61 0 0 0
SMALL
GASTEIGER

@<TRIPOS>ATOM
      1 C           8.2087    0.0472    1.5883 C.3     1  UNL1       -0.0653
      2 C           7.0046    0.8967    1.9637 C.3     1  UNL1       -0.0559
      3 C           6.5576    1.7497    0.8232 C.3     1  UNL1       -0.0533
      4 C           6.1591    0.9805   -0.4024 C.3     1  UNL1       -0.0530
      5 C           5.0074    0.0605   -0.0435 C.3     1  UNL1       -0.0510
      6 C           4.5796   -0.7314   -1.2730 C.3     1  UNL1       -0.0295
      7 C           3.4497   -1.6630   -1.0069 C.3     1  UNL1        0.0477
      8 O           2.2952   -1.0304   -0.5662 O.3     1  UNL1       -0.3798
      9 C           1.8217   -0.1033   -1.4892 C.3     1  UNL1        0.0477
     10 C           0.5617    0.5740   -0.9981 C.3     1  UNL1       -0.0294
     11 C          -0.4898   -0.4654   -0.7835 C.3     1  UNL1       -0.0498
     12 C          -1.7972    0.1342   -0.2871 C.3     1  UNL1       -0.0401
     13 C          -2.7635   -0.9964   -0.1157 C.3     1  UNL1       -0.0006
     14 N          -4.0608   -0.6415    0.3459 N.3     1  UNL1       -0.2923
     15 C          -4.1796   -0.1735    1.6544 C.3     1  UNL1        0.0279
     16 C          -5.1358    0.9291    1.9307 C.3     1  UNL1        0.0962
     17 O          -6.2926    0.4476    2.5492 O.3     1  UNL1       -0.3879
     18 C          -5.5687    1.6737    0.6892 C.3     1  UNL1        0.1095
     19 O          -4.5945    2.5727    0.2589 O.3     1  UNL1       -0.3866
     20 C          -5.9766    0.7310   -0.4164 C.3     1  UNL1        0.1011
     21 O          -7.2670    0.2685   -0.0845 O.3     1  UNL1       -0.3875
     22 C          -5.0503   -0.4151   -0.6079 C.3     1  UNL1        0.0621
     23 C          -5.8898   -1.6906   -0.7656 C.3     1  UNL1        0.0622
     24 O          -6.8578   -1.4240   -1.7195 O.3     1  UNL1       -0.3934
     25 H           8.7781   -0.1431    2.5052 H       1  UNL1        0.0230
     26 H           8.8527    0.5568    0.8604 H       1  UNL1        0.0230
     27 H           7.8880   -0.9437    1.1773 H       1  UNL1        0.0230
     28 H           7.3796    1.5964    2.7535 H       1  UNL1        0.0263
     29 H           6.2003    0.2710    2.3474 H       1  UNL1        0.0263
     30 H           5.6291    2.2885    1.1657 H       1  UNL1        0.0265
     31 H           7.2926    2.5489    0.5909 H       1  UNL1        0.0265
     32 H           5.7378    1.7251   -1.1352 H       1  UNL1        0.0265
     33 H           6.9974    0.3938   -0.8438 H       1  UNL1        0.0265
     34 H           4.1907    0.6734    0.3812 H       1  UNL1        0.0266
     35 H           5.3476   -0.6292    0.7556 H       1  UNL1        0.0266
     36 H           4.4157   -0.0605   -2.1366 H       1  UNL1        0.0287
     37 H           5.4646   -1.3543   -1.5425 H       1  UNL1        0.0287
     38 H           3.7707   -2.3605   -0.2001 H       1  UNL1        0.0560
     39 H           3.2949   -2.2837   -1.9069 H       1  UNL1        0.0560
     40 H           1.5930   -0.5510   -2.4736 H       1  UNL1        0.0560
     41 H           2.5873    0.7006   -1.5839 H       1  UNL1        0.0560
     42 H           0.2260    1.3000   -1.7740 H       1  UNL1        0.0287
     43 H           0.7524    1.1699   -0.0707 H       1  UNL1        0.0287
     44 H          -0.7158   -0.9106   -1.7973 H       1  UNL1        0.0266
     45 H          -0.0967   -1.2354   -0.1026 H       1  UNL1        0.0266
     46 H          -2.1784    0.8244   -1.0562 H       1  UNL1        0.0278
     47 H          -1.6479    0.6381    0.6882 H       1  UNL1        0.0278
     48 H          -2.3195   -1.7151    0.6197 H       1  UNL1        0.0427
     49 H          -2.8738   -1.5675   -1.0763 H       1  UNL1        0.0427
     50 H          -4.4023   -1.0432    2.3412 H       1  UNL1        0.0453
     51 H          -3.1628    0.1730    2.0067 H       1  UNL1        0.0453
     52 H          -4.7075    1.6981    2.6365 H       1  UNL1        0.0633
     53 H          -6.2441   -0.5366    2.5586 H       1  UNL1        0.2099
     54 H          -6.4641    2.2708    0.9569 H       1  UNL1        0.0646
     55 H          -4.6483    2.5857   -0.7405 H       1  UNL1        0.2100
     56 H          -6.1052    1.3435   -1.3378 H       1  UNL1        0.0636
     57 H          -7.9213    0.4441   -0.8038 H       1  UNL1        0.2100
     58 H          -4.5656   -0.2796   -1.6161 H       1  UNL1        0.0511
     59 H          -5.2231   -2.4805   -1.1304 H       1  UNL1        0.0573
     60 H          -6.3758   -1.9564    0.2026 H       1  UNL1        0.0573
     61 H          -6.4679   -0.8970   -2.4632 H       1  UNL1        0.2095
@<TRIPOS>BOND
     1     1     2    1
     2     2     3    1
     3     3     4    1
     4     4     5    1
     5     5     6    1
     6     6     7    1
     7     7     8    1
     8     8     9    1
     9     9    10    1
    10    10    11    1
    11    11    12    1
    12    12    13    1
    13    13    14    1
    14    14    15    1
    15    15    16    1
    16    16    17    1
    17    16    18    1
    18    18    19    1
    19    18    20    1
    20    20    21    1
    21    20    22    1
    22    22    23    1
    23    23    24    1
    24    22    14    1
    25     1    25    1
    26     1    26    1
    27     1    27    1
    28     2    28    1
    29     2    29    1
    30     3    30    1
    31     3    31    1
    32     4    32    1
    33     4    33    1
    34     5    34    1
    35     5    35    1
    36     6    36    1
    37     6    37    1
    38     7    38    1
    39     7    39    1
    40     9    40    1
    41     9    41    1
    42    10    42    1
    43    10    43    1
    44    11    44    1
    45    11    45    1
    46    12    46    1
    47    12    47    1
    48    13    48    1
    49    13    49    1
    50    15    50    1
    51    15    51    1
    52    16    52    1
    53    17    53    1
    54    18    54    1
    55    19    55    1
    56    20    56    1
    57    21    57    1
    58    22    58    1
    59    23    59    1
    60    23    60    1
    61    24    61    1
