
     RDKit          3D

 58 62  0  0  0  0  0  0  0  0999 V2000
    0.3784   -2.2316    2.9747 O   0  0  0  0  0  0  0  0  0  0  0  0
    1.4149   -1.8757    2.3040 C   0  0  0  0  0  0  0  0  0  0  0  0
    2.7294   -2.1759    2.8633 C   0  0  0  0  0  0  0  0  0  0  0  0
    3.7794   -1.6961    2.0219 N   0  0  0  0  0  0  0  0  0  0  0  0
    3.9692   -0.3095    1.8252 C   0  0  0  0  0  0  0  0  0  0  0  0
    3.2637    0.7060    2.3589 N   0  0  0  0  0  0  0  0  0  0  0  0
    3.7361    1.8507    1.9526 N   0  0  0  0  0  0  0  0  0  0  0  0
    4.7839    1.6379    1.1248 C   0  0  0  0  0  0  0  0  0  0  0  0
    5.6147    2.5019    0.4406 C   0  0  0  0  0  0  0  0  0  0  0  0
    6.6089    1.9825   -0.3369 C   0  0  0  0  0  0  0  0  0  0  0  0
    6.8097    0.6155   -0.4603 C   0  0  0  0  0  0  0  0  0  0  0  0
    7.8972    0.1013   -1.3148 C   0  0  0  0  0  0  0  0  0  0  0  0
    8.2712   -1.1770   -1.0249 F   0  0  0  0  0  0  0  0  0  0  0  0
    9.0297    0.9084   -1.2192 F   0  0  0  0  0  0  0  0  0  0  0  0
    7.4921    0.1576   -2.6433 F   0  0  0  0  0  0  0  0  0  0  0  0
    5.9603   -0.2209    0.2383 C   0  0  0  0  0  0  0  0  0  0  0  0
    4.9333    0.2760    1.0426 C   0  0  0  0  0  0  0  0  0  0  0  0
    1.1930   -1.2209    1.0724 N   0  0  0  0  0  0  0  0  0  0  0  0
   -0.1656   -0.9752    0.6222 C   0  0  0  0  0  0  0  0  0  0  0  0
   -0.4387   -1.3953   -0.7973 C   0  0  0  0  0  0  0  0  0  0  0  0
   -1.0931   -0.1565   -1.0492 N   0  0  0  0  0  0  0  0  0  0  0  0
   -2.5196   -0.1008   -0.8243 C   0  0  1  0  0  0  0  0  0  0  0  0
   -2.9876    1.2832   -1.1488 C   0  0  0  0  0  0  0  0  0  0  0  0
   -4.4554    1.5066   -1.0819 C   0  0  0  0  0  0  0  0  0  0  0  0
   -5.1386    0.1926   -0.7661 C   0  0  1  0  0  0  0  0  0  0  0  0
   -6.5653    0.3507   -0.6638 C   0  0  0  0  0  0  0  0  0  0  0  0
   -7.4170    0.1659    0.3631 C   0  0  0  0  0  0  0  0  0  0  0  0
   -8.6762    0.3822    0.1849 N   0  0  0  0  0  0  0  0  0  0  0  0
   -9.2250    0.7581   -0.8690 C   0  0  0  0  0  0  0  0  0  0  0  0
   -7.6984    0.8746   -1.9653 S   0  0  0  0  0  0  0  0  0  0  0  0
   -4.7026   -0.7873   -1.8441 C   0  0  0  0  0  0  0  0  0  0  0  0
   -3.2855   -1.1461   -1.5490 C   0  0  0  0  0  0  0  0  0  0  0  0
   -0.3955    0.4198    0.0845 C   0  0  0  0  0  0  0  0  0  0  0  0
    2.8416   -3.2739    2.9825 H   0  0  0  0  0  0  0  0  0  0  0  0
    2.7827   -1.6830    3.8708 H   0  0  0  0  0  0  0  0  0  0  0  0
    4.4185   -2.3719    1.5420 H   0  0  0  0  0  0  0  0  0  0  0  0
    3.3856    2.7896    2.2060 H   0  0  0  0  0  0  0  0  0  0  0  0
    5.4417    3.5487    0.5502 H   0  0  0  0  0  0  0  0  0  0  0  0
    7.2718    2.6351   -0.8828 H   0  0  0  0  0  0  0  0  0  0  0  0
    6.1147   -1.2733    0.1436 H   0  0  0  0  0  0  0  0  0  0  0  0
    2.0212   -0.9317    0.5038 H   0  0  0  0  0  0  0  0  0  0  0  0
   -0.8957   -1.3419    1.3392 H   0  0  0  0  0  0  0  0  0  0  0  0
   -1.0253   -2.3170   -0.9280 H   0  0  0  0  0  0  0  0  0  0  0  0
    0.5108   -1.4784   -1.3968 H   0  0  0  0  0  0  0  0  0  0  0  0
   -2.6751   -0.2439    0.2711 H   0  0  0  0  0  0  0  0  0  0  0  0
   -2.6443    1.4946   -2.2008 H   0  0  0  0  0  0  0  0  0  0  0  0
   -2.4500    2.0593   -0.5390 H   0  0  0  0  0  0  0  0  0  0  0  0
   -4.8311    1.9314   -2.0485 H   0  0  0  0  0  0  0  0  0  0  0  0
   -4.6745    2.2341   -0.2716 H   0  0  0  0  0  0  0  0  0  0  0  0
   -4.7067   -0.1693    0.1867 H   0  0  0  0  0  0  0  0  0  0  0  0
   -7.0165   -0.1725    1.3542 H   0  0  0  0  0  0  0  0  0  0  0  0
  -10.1811    0.9992   -1.2701 H   0  0  0  0  0  0  0  0  0  0  0  0
   -4.8454   -0.3623   -2.8597 H   0  0  0  0  0  0  0  0  0  0  0  0
   -5.3332   -1.6913   -1.7259 H   0  0  0  0  0  0  0  0  0  0  0  0
   -2.7988   -1.4435   -2.4972 H   0  0  0  0  0  0  0  0  0  0  0  0
   -3.2821   -2.0641   -0.9124 H   0  0  0  0  0  0  0  0  0  0  0  0
    0.5369    0.9591   -0.1522 H   0  0  0  0  0  0  0  0  0  0  0  0
   -1.0664    0.9641    0.8061 H   0  0  0  0  0  0  0  0  0  0  0  0
  1  2  2  0
  2  3  1  0
  3  4  1  0
  4  5  1  0
  5  6  2  0
  6  7  1  0
  7  8  1  0
  8  9  2  0
  9 10  1  0
 10 11  2  0
 11 12  1  0
 12 13  1  0
 12 14  1  0
 12 15  1  0
 11 16  1  0
 16 17  2  0
  2 18  1  0
 18 19  1  0
 19 20  1  0
 20 21  1  0
 21 22  1  0
 22 23  1  0
 23 24  1  0
 24 25  1  0
 25 26  1  0
 26 27  2  0
 27 28  1  0
 28 29  2  0
 29 30  1  0
 25 31  1  0
 31 32  1  0
 21 33  1  0
 17  5  1  0
 33 19  1  0
 17  8  1  0
 32 22  1  0
 30 26  1  0
  3 34  1  0
  3 35  1  0
  4 36  1  0
  7 37  1  0
  9 38  1  0
 10 39  1  0
 16 40  1  0
 18 41  1  0
 19 42  1  0
 20 43  1  0
 20 44  1  0
 22 45  1  1
 23 46  1  0
 23 47  1  0
 24 48  1  0
 24 49  1  0
 25 50  1  1
 27 51  1  0
 29 52  1  0
 31 53  1  0
 31 54  1  0
 32 55  1  0
 32 56  1  0
 33 57  1  0
 33 58  1  0
M  END
$$$$
