@<TRIPOS>MOLECULE
*****
 58 62 0 0 0
SMALL
GASTEIGER

@<TRIPOS>ATOM
      1 O           0.3784   -2.2316    2.9747 O.2     1  UNL1       -0.2741
      2 C           1.4149   -1.8757    2.3040 C.2     1  UNL1        0.2305
      3 C           2.7294   -2.1759    2.8633 C.3     1  UNL1        0.0870
      4 N           3.7794   -1.6961    2.0219 N.pl3   1  UNL1       -0.3186
      5 C           3.9692   -0.3095    1.8252 C.ar    1  UNL1        0.1486
      6 N           3.2637    0.7060    2.3589 N.ar    1  UNL1       -0.1578
      7 N           3.7361    1.8507    1.9526 N.ar    1  UNL1       -0.2752
      8 C           4.7839    1.6379    1.1248 C.ar    1  UNL1        0.0676
      9 C           5.6147    2.5019    0.4406 C.ar    1  UNL1       -0.0357
     10 C           6.6089    1.9825   -0.3369 C.ar    1  UNL1       -0.0481
     11 C           6.8097    0.6155   -0.4603 C.ar    1  UNL1        0.0556
     12 C           7.8972    0.1013   -1.3148 C.3     1  UNL1        0.4174
     13 F           8.2712   -1.1770   -1.0249 F       1  UNL1       -0.1659
     14 F           9.0297    0.9084   -1.2192 F       1  UNL1       -0.1659
     15 F           7.4921    0.1576   -2.6433 F       1  UNL1       -0.1659
     16 C           5.9603   -0.2209    0.2383 C.ar    1  UNL1       -0.0376
     17 C           4.9333    0.2760    1.0426 C.ar    1  UNL1        0.0417
     18 N           1.1930   -1.2209    1.0724 N.am    1  UNL1       -0.3087
     19 C          -0.1656   -0.9752    0.6222 C.3     1  UNL1        0.0486
     20 C          -0.4387   -1.3953   -0.7973 C.3     1  UNL1        0.0189
     21 N          -1.0931   -0.1565   -1.0492 N.3     1  UNL1       -0.2958
     22 C          -2.5196   -0.1008   -0.8243 C.3     1  UNL1        0.0106
     23 C          -2.9876    1.2832   -1.1488 C.3     1  UNL1       -0.0368
     24 C          -4.4554    1.5066   -1.0819 C.3     1  UNL1       -0.0443
     25 C          -5.1386    0.1926   -0.7661 C.3     1  UNL1       -0.0080
     26 C          -6.5653    0.3507   -0.6638 C.ar    1  UNL1        0.0123
     27 C          -7.4170    0.1659    0.3631 C.ar    1  UNL1        0.0381
     28 N          -8.6762    0.3822    0.1849 N.ar    1  UNL1       -0.2554
     29 C          -9.2250    0.7581   -0.8690 C.ar    1  UNL1        0.0649
     30 S          -7.6984    0.8746   -1.9653 S.2     1  UNL1       -0.0801
     31 C          -4.7026   -0.7873   -1.8441 C.3     1  UNL1       -0.0443
     32 C          -3.2855   -1.1461   -1.5490 C.3     1  UNL1       -0.0368
     33 C          -0.3955    0.4198    0.0845 C.3     1  UNL1        0.0189
     34 H           2.8416   -3.2739    2.9825 H       1  UNL1        0.0557
     35 H           2.7827   -1.6830    3.8708 H       1  UNL1        0.0557
     36 H           4.4185   -2.3719    1.5420 H       1  UNL1        0.1480
     37 H           3.3856    2.7896    2.2060 H       1  UNL1        0.1890
     38 H           5.4417    3.5487    0.5502 H       1  UNL1        0.0639
     39 H           7.2718    2.6351   -0.8828 H       1  UNL1        0.0624
     40 H           6.1147   -1.2733    0.1436 H       1  UNL1        0.0631
     41 H           2.0212   -0.9317    0.5038 H       1  UNL1        0.1491
     42 H          -0.8957   -1.3419    1.3392 H       1  UNL1        0.0523
     43 H          -1.0253   -2.3170   -0.9280 H       1  UNL1        0.0445
     44 H           0.5108   -1.4784   -1.3968 H       1  UNL1        0.0445
     45 H          -2.6751   -0.2439    0.2711 H       1  UNL1        0.0462
     46 H          -2.6443    1.4946   -2.2008 H       1  UNL1        0.0280
     47 H          -2.4500    2.0593   -0.5390 H       1  UNL1        0.0280
     48 H          -4.8311    1.9314   -2.0485 H       1  UNL1        0.0272
     49 H          -4.6745    2.2341   -0.2716 H       1  UNL1        0.0272
     50 H          -4.7067   -0.1693    0.1867 H       1  UNL1        0.0354
     51 H          -7.0165   -0.1725    1.3542 H       1  UNL1        0.0838
     52 H         -10.1811    0.9992   -1.2701 H       1  UNL1        0.0907
     53 H          -4.8454   -0.3623   -2.8597 H       1  UNL1        0.0272
     54 H          -5.3332   -1.6913   -1.7259 H       1  UNL1        0.0272
     55 H          -2.7988   -1.4435   -2.4972 H       1  UNL1        0.0280
     56 H          -3.2821   -2.0641   -0.9124 H       1  UNL1        0.0280
     57 H           0.5369    0.9591   -0.1522 H       1  UNL1        0.0445
     58 H          -1.0664    0.9641    0.8061 H       1  UNL1        0.0445
@<TRIPOS>BOND
     1     1     2    2
     2     2     3    1
     3     3     4    1
     4     4     5    1
     5     5     6   ar
     6     6     7   ar
     7     7     8   ar
     8     8     9   ar
     9     9    10   ar
    10    10    11   ar
    11    11    12    1
    12    12    13    1
    13    12    14    1
    14    12    15    1
    15    11    16   ar
    16    16    17   ar
    17     2    18   am
    18    18    19    1
    19    19    20    1
    20    20    21    1
    21    21    22    1
    22    22    23    1
    23    23    24    1
    24    24    25    1
    25    25    26    1
    26    26    27   ar
    27    27    28   ar
    28    28    29   ar
    29    29    30   ar
    30    25    31    1
    31    31    32    1
    32    21    33    1
    33    17     5   ar
    34    33    19    1
    35    17     8   ar
    36    32    22    1
    37    30    26   ar
    38     3    34    1
    39     3    35    1
    40     4    36    1
    41     7    37    1
    42     9    38    1
    43    10    39    1
    44    16    40    1
    45    18    41    1
    46    19    42    1
    47    20    43    1
    48    20    44    1
    49    22    45    1
    50    23    46    1
    51    23    47    1
    52    24    48    1
    53    24    49    1
    54    25    50    1
    55    27    51    1
    56    29    52    1
    57    31    53    1
    58    31    54    1
    59    32    55    1
    60    32    56    1
    61    33    57    1
    62    33    58    1
