@<TRIPOS>MOLECULE
*****
 29 31 0 0 0
SMALL
GASTEIGER

@<TRIPOS>ATOM
      1 C          -4.9153    1.6300    0.0440 C.3     1  UNL1        0.0788
      2 O          -3.5201    1.6358   -0.0485 O.3     1  UNL1       -0.4951
      3 C          -2.7529    0.5193    0.0873 C.ar    1  UNL1        0.1208
      4 C          -3.2051   -0.7522    0.3287 C.ar    1  UNL1       -0.0182
      5 C          -2.3671   -1.8329    0.4539 C.ar    1  UNL1       -0.0364
      6 C          -0.9983   -1.6315    0.3305 C.ar    1  UNL1        0.0418
      7 C          -0.4813   -0.3728    0.0870 C.ar    1  UNL1        0.0118
      8 C          -1.3633    0.6546   -0.0263 C.ar    1  UNL1       -0.0103
      9 C           0.9876   -0.4115   -0.0025 C.2     1  UNL1        0.0480
     10 C           1.7584    0.6420   -0.2019 C.2     1  UNL1       -0.0241
     11 C           3.1909    0.6110   -0.2950 C.ar    1  UNL1        0.0593
     12 C           3.9455   -0.2343   -1.0684 C.ar    1  UNL1        0.0526
     13 N           5.2513    0.0429   -0.8597 N.ar    1  UNL1       -0.2437
     14 C           5.3455    1.0442    0.0274 C.ar    1  UNL1        0.0937
     15 N           4.1017    1.3881    0.3689 N.ar    1  UNL1       -0.3449
     16 C           1.3324   -1.8091    0.2081 C.2     1  UNL1        0.2490
     17 O           2.4832   -2.3036    0.2177 O.2     1  UNL1       -0.2698
     18 N           0.0959   -2.5180    0.4065 N.am    1  UNL1       -0.2809
     19 H          -5.3964    1.6592   -0.9765 H       1  UNL1        0.0660
     20 H          -5.3552    0.7898    0.5837 H       1  UNL1        0.0660
     21 H          -5.1984    2.6224    0.4977 H       1  UNL1        0.0660
     22 H          -4.2743   -0.8999    0.4224 H       1  UNL1        0.0655
     23 H          -2.7831   -2.7980    0.6432 H       1  UNL1        0.0637
     24 H          -0.9659    1.6561   -0.2224 H       1  UNL1        0.0661
     25 H           1.2557    1.6276   -0.3061 H       1  UNL1        0.0646
     26 H           3.6517   -1.0089   -1.7675 H       1  UNL1        0.0851
     27 H           6.2939    1.4453    0.3576 H       1  UNL1        0.1027
     28 H           3.8425    2.1269    1.0334 H       1  UNL1        0.1668
     29 H           0.0403   -3.5226    0.5762 H       1  UNL1        0.1552
@<TRIPOS>BOND
     1     1     2    1
     2     2     3    1
     3     3     4   ar
     4     4     5   ar
     5     5     6   ar
     6     6     7   ar
     7     7     8   ar
     8     7     9    1
     9     9    10    2
    10    10    11    1
    11    11    12   ar
    12    12    13   ar
    13    13    14   ar
    14    14    15   ar
    15     9    16    1
    16    16    17    2
    17    16    18   am
    18     8     3   ar
    19    15    11   ar
    20    18     6    1
    21     1    19    1
    22     1    20    1
    23     1    21    1
    24     4    22    1
    25     5    23    1
    26     8    24    1
    27    10    25    1
    28    12    26    1
    29    14    27    1
    30    15    28    1
    31    18    29    1
