@<TRIPOS>MOLECULE
*****
 65 68 0 0 0
SMALL
GASTEIGER

@<TRIPOS>ATOM
      1 C          -2.1525    4.2675    1.6093 C.3     1  UNL1       -0.0584
      2 C          -2.9190    3.7358    0.4256 C.3     1  UNL1        0.0046
      3 C          -2.3694    2.3981    0.0526 C.ar    1  UNL1        0.1340
      4 N          -1.3453    1.7142    0.6430 N.ar    1  UNL1       -0.1537
      5 N          -1.2038    0.5733   -0.0191 N.ar    1  UNL1       -0.2129
      6 C          -0.2699   -0.5334    0.1761 C.3     1  UNL1        0.0479
      7 C           1.0098   -0.3087   -0.6419 C.3     1  UNL1       -0.0204
      8 C           1.9595   -1.4577   -0.4288 C.3     1  UNL1        0.0007
      9 N           2.3298   -1.5947    0.9488 N.3     1  UNL1       -0.2993
     10 C           3.2309   -2.6832    1.1596 C.3     1  UNL1        0.0147
     11 C           4.5579   -2.5341    0.4635 C.3     1  UNL1        0.0250
     12 N           4.9742   -1.1445    0.4270 N.pl3   1  UNL1       -0.3274
     13 C           4.1567    0.0139    0.7147 C.3     1  UNL1        0.0250
     14 C           2.9093   -0.3931    1.4573 C.3     1  UNL1        0.0147
     15 C           6.3390   -0.9028    0.0675 C.ar    1  UNL1        0.0311
     16 C           6.8771    0.3638   -0.0111 C.ar    1  UNL1       -0.0223
     17 C           8.1808    0.6370   -0.3520 C.ar    1  UNL1        0.0427
     18 CL          8.8214    2.2728   -0.4387 Cl      1  UNL1       -0.0835
     19 C           9.0212   -0.3952   -0.6370 C.ar    1  UNL1       -0.0433
     20 C           8.5487   -1.6689   -0.5767 C.ar    1  UNL1       -0.0586
     21 C           7.2356   -1.9049   -0.2311 C.ar    1  UNL1       -0.0406
     22 C          -2.1162    0.5027   -1.0283 C.ar    1  UNL1        0.3468
     23 O          -2.3461   -0.3590   -1.8821 O.2     1  UNL1       -0.2448
     24 N          -2.8397    1.6566   -0.9685 N.ar    1  UNL1       -0.2760
     25 C          -3.9464    2.0459   -1.8549 C.3     1  UNL1        0.0634
     26 C          -5.2665    1.5629   -1.2972 C.3     1  UNL1        0.1076
     27 O          -5.3076    0.1752   -1.1604 O.3     1  UNL1       -0.4902
     28 C          -6.4586   -0.4171   -0.6592 C.ar    1  UNL1        0.1206
     29 C          -7.6340    0.1647   -0.2506 C.ar    1  UNL1       -0.0199
     30 C          -8.6436   -0.6407    0.2139 C.ar    1  UNL1       -0.0583
     31 C          -8.5516   -2.0053    0.2967 C.ar    1  UNL1       -0.0615
     32 C          -7.3589   -2.6059   -0.1170 C.ar    1  UNL1       -0.0583
     33 C          -6.3274   -1.8024   -0.5899 C.ar    1  UNL1       -0.0199
     34 H          -1.6868    3.4466    2.2082 H       1  UNL1        0.0234
     35 H          -1.3148    4.9322    1.2985 H       1  UNL1        0.0234
     36 H          -2.7955    4.8545    2.2864 H       1  UNL1        0.0234
     37 H          -4.0086    3.6971    0.6270 H       1  UNL1        0.0341
     38 H          -2.6777    4.3955   -0.4385 H       1  UNL1        0.0341
     39 H          -0.7131   -1.4978   -0.0638 H       1  UNL1        0.0511
     40 H           0.0199   -0.5371    1.2276 H       1  UNL1        0.0511
     41 H           1.4287    0.6832   -0.4653 H       1  UNL1        0.0295
     42 H           0.7176   -0.3353   -1.7166 H       1  UNL1        0.0295
     43 H           1.3989   -2.3724   -0.7664 H       1  UNL1        0.0427
     44 H           2.7990   -1.3443   -1.1346 H       1  UNL1        0.0427
     45 H           3.4452   -2.7288    2.2597 H       1  UNL1        0.0442
     46 H           2.8037   -3.6724    0.9069 H       1  UNL1        0.0442
     47 H           5.2715   -3.1781    1.0158 H       1  UNL1        0.0476
     48 H           4.4764   -2.9497   -0.5666 H       1  UNL1        0.0476
     49 H           4.6982    0.7171    1.4093 H       1  UNL1        0.0476
     50 H           3.9614    0.6142   -0.1905 H       1  UNL1        0.0476
     51 H           2.2164    0.4728    1.4564 H       1  UNL1        0.0442
     52 H           3.1801   -0.5289    2.5352 H       1  UNL1        0.0442
     53 H           6.2619    1.2272    0.2033 H       1  UNL1        0.0651
     54 H          10.0672   -0.2673   -0.9155 H       1  UNL1        0.0632
     55 H           9.2022   -2.5078   -0.8002 H       1  UNL1        0.0619
     56 H           6.8967   -2.9405   -0.1944 H       1  UNL1        0.0636
     57 H          -4.0014    3.1363   -1.9431 H       1  UNL1        0.0527
     58 H          -3.8554    1.6177   -2.8588 H       1  UNL1        0.0527
     59 H          -6.0223    1.8548   -2.0605 H       1  UNL1        0.0714
     60 H          -5.5617    2.1111   -0.3767 H       1  UNL1        0.0714
     61 H          -7.6415    1.2244   -0.3398 H       1  UNL1        0.0654
     62 H          -9.5610   -0.1563    0.5302 H       1  UNL1        0.0619
     63 H          -9.3542   -2.6371    0.6652 H       1  UNL1        0.0618
     64 H          -7.2887   -3.6880   -0.0503 H       1  UNL1        0.0619
     65 H          -5.4575   -2.3755   -0.8799 H       1  UNL1        0.0654
@<TRIPOS>BOND
     1     1     2    1
     2     2     3    1
     3     3     4   ar
     4     4     5   ar
     5     5     6    1
     6     6     7    1
     7     7     8    1
     8     8     9    1
     9     9    10    1
    10    10    11    1
    11    11    12    1
    12    12    13    1
    13    13    14    1
    14    12    15    1
    15    15    16   ar
    16    16    17   ar
    17    17    18    1
    18    17    19   ar
    19    19    20   ar
    20    20    21   ar
    21     5    22   ar
    22    22    23    2
    23    22    24   ar
    24    24    25    1
    25    25    26    1
    26    26    27    1
    27    27    28    1
    28    28    29   ar
    29    29    30   ar
    30    30    31   ar
    31    31    32   ar
    32    32    33   ar
    33    24     3   ar
    34    33    28   ar
    35    14     9    1
    36    21    15   ar
    37     1    34    1
    38     1    35    1
    39     1    36    1
    40     2    37    1
    41     2    38    1
    42     6    39    1
    43     6    40    1
    44     7    41    1
    45     7    42    1
    46     8    43    1
    47     8    44    1
    48    10    45    1
    49    10    46    1
    50    11    47    1
    51    11    48    1
    52    13    49    1
    53    13    50    1
    54    14    51    1
    55    14    52    1
    56    16    53    1
    57    19    54    1
    58    20    55    1
    59    21    56    1
    60    25    57    1
    61    25    58    1
    62    26    59    1
    63    26    60    1
    64    29    61    1
    65    30    62    1
    66    31    63    1
    67    32    64    1
    68    33    65    1
