@<TRIPOS>MOLECULE
*****
 43 46 0 0 0
SMALL
GASTEIGER

@<TRIPOS>ATOM
      1 O           2.2754    1.0463    1.5799 O.2     1  UNL1       -0.2755
      2 C           2.0440    0.2176    0.6748 C.2     1  UNL1        0.2173
      3 C           0.6617   -0.3472    0.4581 C.3     1  UNL1        0.0297
      4 C          -0.2282    0.2744    1.4845 C.3     1  UNL1       -0.0006
      5 C          -1.6336   -0.1972    1.3856 C.ar    1  UNL1        0.0611
      6 C          -2.6642    0.3245    0.6576 C.ar    1  UNL1        0.0336
      7 N          -3.8259   -0.4171    0.8416 N.ar    1  UNL1       -0.2929
      8 C          -3.4362   -1.3472    1.6707 C.ar    1  UNL1        0.1785
      9 N          -2.1367   -1.2614    2.0267 N.ar    1  UNL1       -0.2263
     10 S          -4.9073   -2.3225    1.9311 S.2     1  UNL1       -0.0491
     11 C          -5.9364   -1.3388    0.8545 C.ar    1  UNL1        0.0429
     12 C          -7.2715   -1.4495    0.5056 C.ar    1  UNL1       -0.0043
     13 C          -7.8293   -0.5281   -0.3713 C.ar    1  UNL1        0.1180
     14 O          -9.1383   -0.5553   -0.7748 O.3     1  UNL1       -0.5067
     15 C          -6.9917    0.4550   -0.8428 C.ar    1  UNL1       -0.0182
     16 C          -5.6838    0.5360   -0.4803 C.ar    1  UNL1       -0.0332
     17 C          -5.0777   -0.3854    0.4122 C.ar    1  UNL1        0.0625
     18 N           3.1058   -0.1973   -0.1630 N.am    1  UNL1       -0.2886
     19 C           4.4189    0.3122    0.0048 C.2     1  UNL1        0.0204
     20 C           5.4432   -0.0719   -0.7768 C.2     1  UNL1        0.0534
     21 C           5.4585   -1.0109   -1.8802 C.2     1  UNL1        0.3342
     22 O           4.4690   -1.6517   -2.3087 O.2     1  UNL1       -0.2454
     23 O           6.6607   -1.2666   -2.5696 O.3     1  UNL1       -0.4773
     24 C           6.6950    0.6377   -0.3285 C.3     1  UNL1       -0.0191
     25 C           6.1633    1.8490    0.3534 C.3     1  UNL1       -0.0436
     26 C           4.8869    1.3129    1.0011 C.3     1  UNL1       -0.0137
     27 H           0.2787   -0.0742   -0.5462 H       1  UNL1        0.0362
     28 H           0.6787   -1.4561    0.6094 H       1  UNL1        0.0362
     29 H           0.1963    0.0650    2.4863 H       1  UNL1        0.0333
     30 H          -0.1498    1.3867    1.3534 H       1  UNL1        0.0333
     31 H          -2.5208    1.2007    0.0419 H       1  UNL1        0.0832
     32 H          -7.8830   -2.2313    0.8983 H       1  UNL1        0.0666
     33 H          -9.8196    0.0499   -0.3189 H       1  UNL1        0.2921
     34 H          -7.4200    1.1752   -1.5258 H       1  UNL1        0.0655
     35 H          -5.1170    1.3592   -0.9188 H       1  UNL1        0.0640
     36 H           2.8587   -0.8998   -0.9089 H       1  UNL1        0.1545
     37 H           6.7222   -2.0234   -3.2584 H       1  UNL1        0.2954
     38 H           7.2431    0.0169    0.3897 H       1  UNL1        0.0316
     39 H           7.2963    0.9352   -1.2136 H       1  UNL1        0.0316
     40 H           6.8688    2.1881    1.1538 H       1  UNL1        0.0272
     41 H           5.9296    2.6677   -0.3366 H       1  UNL1        0.0272
     42 H           4.1684    2.1710    1.1228 H       1  UNL1        0.0326
     43 H           5.1479    0.8516    1.9770 H       1  UNL1        0.0326
@<TRIPOS>BOND
     1     1     2    2
     2     2     3    1
     3     3     4    1
     4     4     5    1
     5     5     6   ar
     6     6     7   ar
     7     7     8   ar
     8     8     9   ar
     9     8    10   ar
    10    10    11   ar
    11    11    12   ar
    12    12    13   ar
    13    13    14    1
    14    13    15   ar
    15    15    16   ar
    16    16    17   ar
    17     2    18   am
    18    18    19    1
    19    19    20    2
    20    20    21    1
    21    21    22    2
    22    21    23    1
    23    20    24    1
    24    24    25    1
    25    25    26    1
    26     9     5   ar
    27    17    11   ar
    28    26    19    1
    29    17     7   ar
    30     3    27    1
    31     3    28    1
    32     4    29    1
    33     4    30    1
    34     6    31    1
    35    12    32    1
    36    14    33    1
    37    15    34    1
    38    16    35    1
    39    18    36    1
    40    23    37    1
    41    24    38    1
    42    24    39    1
    43    25    40    1
    44    25    41    1
    45    26    42    1
    46    26    43    1
