
     RDKit          3D

 24 25  0  0  0  0  0  0  0  0999 V2000
   -3.1029    1.1727    0.3973 C   0  0  0  0  0  0  0  0  0  0  0  0
   -2.4529   -0.0216    1.0439 C   0  0  0  0  0  0  0  0  0  0  0  0
   -1.3429   -0.5058    0.1897 C   0  0  0  0  0  0  0  0  0  0  0  0
   -1.5387   -1.4538   -0.7946 C   0  0  0  0  0  0  0  0  0  0  0  0
   -0.5034   -1.8854   -1.5692 C   0  0  0  0  0  0  0  0  0  0  0  0
    0.7885   -1.4091   -1.4212 C   0  0  0  0  0  0  0  0  0  0  0  0
    0.9939   -0.4620   -0.4406 C   0  0  0  0  0  0  0  0  0  0  0  0
    2.3442    0.0957   -0.2202 C   0  0  0  0  0  0  0  0  0  0  0  0
    2.6783    1.0405    0.7205 C   0  0  0  0  0  0  0  0  0  0  0  0
    3.9932    1.2875    0.6100 N   0  0  0  0  0  0  0  0  0  0  0  0
    4.4524    0.5225   -0.3635 N   0  0  0  0  0  0  0  0  0  0  0  0
    3.4726   -0.2027   -0.8755 N   0  0  0  0  0  0  0  0  0  0  0  0
   -0.0471   -0.0210    0.3460 C   0  0  0  0  0  0  0  0  0  0  0  0
   -2.9992    2.0289    1.1247 H   0  0  0  0  0  0  0  0  0  0  0  0
   -4.1405    1.0011    0.1105 H   0  0  0  0  0  0  0  0  0  0  0  0
   -2.5242    1.4870   -0.5048 H   0  0  0  0  0  0  0  0  0  0  0  0
   -2.0091    0.2205    2.0393 H   0  0  0  0  0  0  0  0  0  0  0  0
   -3.1747   -0.8591    1.1955 H   0  0  0  0  0  0  0  0  0  0  0  0
   -2.5571   -1.8449   -0.9284 H   0  0  0  0  0  0  0  0  0  0  0  0
   -0.6664   -2.6358   -2.3460 H   0  0  0  0  0  0  0  0  0  0  0  0
    1.5979   -1.7701   -2.0527 H   0  0  0  0  0  0  0  0  0  0  0  0
    2.0247    1.5312    1.4493 H   0  0  0  0  0  0  0  0  0  0  0  0
    4.5554    1.9719    1.1984 H   0  0  0  0  0  0  0  0  0  0  0  0
    0.1578    0.7118    1.0914 H   0  0  0  0  0  0  0  0  0  0  0  0
  1  2  1  0
  2  3  1  0
  3  4  2  0
  4  5  1  0
  5  6  2  0
  6  7  1  0
  7  8  1  0
  8  9  2  0
  9 10  1  0
 10 11  1  0
 11 12  2  0
  7 13  2  0
 13  3  1  0
 12  8  1  0
  1 14  1  0
  1 15  1  0
  1 16  1  0
  2 17  1  0
  2 18  1  0
  4 19  1  0
  5 20  1  0
  6 21  1  0
  9 22  1  0
 10 23  1  0
 13 24  1  0
M  END
$$$$
