@<TRIPOS>MOLECULE
*****
 24 25 0 0 0
SMALL
GASTEIGER

@<TRIPOS>ATOM
      1 C          -3.1029    1.1727    0.3973 C.3     1  UNL1       -0.0613
      2 C          -2.4529   -0.0216    1.0439 C.3     1  UNL1       -0.0305
      3 C          -1.3429   -0.5058    0.1897 C.ar    1  UNL1       -0.0470
      4 C          -1.5387   -1.4538   -0.7946 C.ar    1  UNL1       -0.0585
      5 C          -0.5034   -1.8854   -1.5692 C.ar    1  UNL1       -0.0609
      6 C           0.7885   -1.4091   -1.4212 C.ar    1  UNL1       -0.0524
      7 C           0.9939   -0.4620   -0.4406 C.ar    1  UNL1        0.0039
      8 C           2.3442    0.0957   -0.2202 C.ar    1  UNL1        0.1123
      9 C           2.6783    1.0405    0.7205 C.ar    1  UNL1        0.0502
     10 N           3.9932    1.2875    0.6100 N.ar    1  UNL1       -0.2643
     11 N           4.4524    0.5225   -0.3635 N.ar    1  UNL1       -0.0678
     12 N           3.4726   -0.2027   -0.8755 N.ar    1  UNL1       -0.1297
     13 C          -0.0471   -0.0210    0.3460 C.ar    1  UNL1       -0.0493
     14 H          -2.9992    2.0289    1.1247 H       1  UNL1        0.0233
     15 H          -4.1405    1.0011    0.1105 H       1  UNL1        0.0233
     16 H          -2.5242    1.4870   -0.5048 H       1  UNL1        0.0233
     17 H          -2.0091    0.2205    2.0393 H       1  UNL1        0.0311
     18 H          -3.1747   -0.8591    1.1955 H       1  UNL1        0.0311
     19 H          -2.5571   -1.8449   -0.9284 H       1  UNL1        0.0620
     20 H          -0.6664   -2.6358   -2.3460 H       1  UNL1        0.0618
     21 H           1.5979   -1.7701   -2.0527 H       1  UNL1        0.0624
     22 H           2.0247    1.5312    1.4493 H       1  UNL1        0.0846
     23 H           4.5554    1.9719    1.1984 H       1  UNL1        0.1900
     24 H           0.1578    0.7118    1.0914 H       1  UNL1        0.0627
@<TRIPOS>BOND
     1     1     2    1
     2     2     3    1
     3     3     4   ar
     4     4     5   ar
     5     5     6   ar
     6     6     7   ar
     7     7     8    1
     8     8     9   ar
     9     9    10   ar
    10    10    11   ar
    11    11    12   ar
    12     7    13   ar
    13    13     3   ar
    14    12     8   ar
    15     1    14    1
    16     1    15    1
    17     1    16    1
    18     2    17    1
    19     2    18    1
    20     4    19    1
    21     5    20    1
    22     6    21    1
    23     9    22    1
    24    10    23    1
    25    13    24    1
