@<TRIPOS>MOLECULE
*****
 48 48 0 0 0
SMALL
GASTEIGER

@<TRIPOS>ATOM
      1 C          -4.0459    0.7983   -0.8930 C.3     1  UNL1        0.1115
      2 C          -4.3101    1.9882    0.0025 C.3     1  UNL1        0.0730
      3 O          -3.7849    1.8977    1.2604 O.3     1  UNL1       -0.3924
      4 O          -2.7546    0.5131   -1.1384 O.3     1  UNL1       -0.3553
      5 C          -2.0498   -0.3019   -0.3056 C.3     1  UNL1        0.1330
      6 S          -1.2146    0.7477    0.9195 S.3     1  UNL1       -0.1271
      7 C           0.0092    1.7403    0.0312 C.3     1  UNL1       -0.0038
      8 C           1.0886    0.7787   -0.4623 C.3     1  UNL1       -0.0439
      9 C           1.6499    0.1432    0.7930 C.3     1  UNL1       -0.0523
     10 C           2.7371   -0.8446    0.5499 C.3     1  UNL1       -0.0530
     11 C           3.8816   -0.1784   -0.1459 C.3     1  UNL1       -0.0531
     12 C           4.9697   -1.2316   -0.3615 C.3     1  UNL1       -0.0533
     13 C           6.1289   -0.5530   -1.0676 C.3     1  UNL1       -0.0559
     14 C           6.6623    0.5731   -0.2394 C.3     1  UNL1       -0.0653
     15 C          -2.8131   -1.4078    0.3448 C.3     1  UNL1        0.1188
     16 O          -2.7011   -2.5825   -0.4383 O.3     1  UNL1       -0.3857
     17 C          -4.2510   -1.1695    0.5930 C.3     1  UNL1        0.1126
     18 O          -4.4366   -0.6418    1.8591 O.3     1  UNL1       -0.3865
     19 C          -4.8970   -0.3846   -0.4874 C.3     1  UNL1        0.1118
     20 O          -5.1087   -1.1542   -1.6127 O.3     1  UNL1       -0.3865
     21 H          -4.4817    1.1125   -1.8838 H       1  UNL1        0.0646
     22 H          -3.9570    2.9230   -0.4921 H       1  UNL1        0.0584
     23 H          -5.4297    2.0544    0.1351 H       1  UNL1        0.0584
     24 H          -4.3424    2.2332    1.9937 H       1  UNL1        0.2095
     25 H          -1.2423   -0.7766   -0.8982 H       1  UNL1        0.0740
     26 H           0.4808    2.5040    0.6520 H       1  UNL1        0.0377
     27 H          -0.4650    2.2552   -0.8550 H       1  UNL1        0.0377
     28 H           0.6145   -0.0083   -1.0793 H       1  UNL1        0.0273
     29 H           1.8599    1.3327   -1.0356 H       1  UNL1        0.0273
     30 H           2.0613    0.9850    1.4019 H       1  UNL1        0.0266
     31 H           0.7922   -0.3004    1.3411 H       1  UNL1        0.0266
     32 H           3.0641   -1.2131    1.5584 H       1  UNL1        0.0265
     33 H           2.3483   -1.7191    0.0031 H       1  UNL1        0.0265
     34 H           4.2541    0.6571    0.4687 H       1  UNL1        0.0265
     35 H           3.5217    0.1856   -1.1355 H       1  UNL1        0.0265
     36 H           4.5808   -2.0367   -1.0077 H       1  UNL1        0.0265
     37 H           5.3293   -1.6039    0.6160 H       1  UNL1        0.0265
     38 H           6.8828   -1.3393   -1.2706 H       1  UNL1        0.0263
     39 H           5.7526   -0.1812   -2.0536 H       1  UNL1        0.0263
     40 H           6.3425    1.5582   -0.6546 H       1  UNL1        0.0230
     41 H           7.7664    0.5407   -0.2496 H       1  UNL1        0.0230
     42 H           6.3312    0.4683    0.8262 H       1  UNL1        0.0230
     43 H          -2.3095   -1.6541    1.3019 H       1  UNL1        0.0655
     44 H          -2.8387   -2.2884   -1.3843 H       1  UNL1        0.2100
     45 H          -4.7762   -2.1704    0.6065 H       1  UNL1        0.0647
     46 H          -5.3796   -0.3658    1.9203 H       1  UNL1        0.2100
     47 H          -5.8617    0.0440   -0.1405 H       1  UNL1        0.0647
     48 H          -5.6585   -1.9269   -1.3814 H       1  UNL1        0.2100
@<TRIPOS>BOND
     1     1     2    1
     2     2     3    1
     3     1     4    1
     4     4     5    1
     5     5     6    1
     6     6     7    1
     7     7     8    1
     8     8     9    1
     9     9    10    1
    10    10    11    1
    11    11    12    1
    12    12    13    1
    13    13    14    1
    14     5    15    1
    15    15    16    1
    16    15    17    1
    17    17    18    1
    18    17    19    1
    19    19    20    1
    20    19     1    1
    21     1    21    1
    22     2    22    1
    23     2    23    1
    24     3    24    1
    25     5    25    1
    26     7    26    1
    27     7    27    1
    28     8    28    1
    29     8    29    1
    30     9    30    1
    31     9    31    1
    32    10    32    1
    33    10    33    1
    34    11    34    1
    35    11    35    1
    36    12    36    1
    37    12    37    1
    38    13    38    1
    39    13    39    1
    40    14    40    1
    41    14    41    1
    42    14    42    1
    43    15    43    1
    44    16    44    1
    45    17    45    1
    46    18    46    1
    47    19    47    1
    48    20    48    1
