
     RDKit          3D

 46 48  0  0  0  0  0  0  0  0999 V2000
   -6.7985   -1.4643    1.4755 O   0  0  0  0  0  0  0  0  0  0  0  0
   -5.4294   -1.6035    1.4667 C   0  0  0  0  0  0  0  0  0  0  0  0
   -5.0179   -2.2558    2.4716 O   0  0  0  0  0  0  0  0  0  0  0  0
   -4.5733   -1.0689    0.4351 N   0  0  0  0  0  0  0  0  0  0  0  0
   -5.1596   -0.3394   -0.6667 C   0  0  0  0  0  0  0  0  0  0  0  0
   -4.2241    0.6511   -1.2840 C   0  0  0  0  0  0  0  0  0  0  0  0
   -2.9403    0.8281   -0.5325 C   0  0  0  0  0  0  0  0  0  0  0  0
   -1.9898    1.6224   -1.4168 C   0  0  0  0  0  0  0  0  0  0  0  0
   -0.6859    1.8443   -0.7451 C   0  0  0  0  0  0  0  0  0  0  0  0
    0.4259    0.9963   -0.8300 C   0  0  0  0  0  0  0  0  0  0  0  0
    1.6305    1.2835   -0.1569 C   0  0  0  0  0  0  0  0  0  0  0  0
    2.4858    0.2877   -0.4402 O   0  0  0  0  0  0  0  0  0  0  0  0
    3.7432    0.0007   -0.1094 C   0  0  0  0  0  0  0  0  0  0  0  0
    4.0463   -1.1787   -0.7346 N   0  0  0  0  0  0  0  0  0  0  0  0
    5.2633   -1.7280   -0.5869 C   0  0  0  0  0  0  0  0  0  0  0  0
    6.2727   -1.1773    0.1746 C   0  0  0  0  0  0  0  0  0  0  0  0
    6.0190    0.0110    0.8255 C   0  0  0  0  0  0  0  0  0  0  0  0
    4.7597    0.5309    0.6418 C   0  0  0  0  0  0  0  0  0  0  0  0
    7.6299   -1.7583    0.3593 C   0  0  0  0  0  0  0  0  0  0  0  0
    8.5952   -0.7619    0.4377 F   0  0  0  0  0  0  0  0  0  0  0  0
    7.9033   -2.4585   -0.8133 F   0  0  0  0  0  0  0  0  0  0  0  0
    7.6922   -2.6065    1.4549 F   0  0  0  0  0  0  0  0  0  0  0  0
    1.5835    2.4427    0.5595 C   0  0  0  0  0  0  0  0  0  0  0  0
    0.5373    3.3088    0.6828 C   0  0  0  0  0  0  0  0  0  0  0  0
   -0.6198    2.9889    0.0082 C   0  0  0  0  0  0  0  0  0  0  0  0
   -2.2779   -0.4953   -0.2504 C   0  0  0  0  0  0  0  0  0  0  0  0
   -3.1757   -1.3207    0.6072 C   0  0  0  0  0  0  0  0  0  0  0  0
   -7.3633   -1.4387    2.3214 H   0  0  0  0  0  0  0  0  0  0  0  0
   -5.4503   -1.0908   -1.4318 H   0  0  0  0  0  0  0  0  0  0  0  0
   -6.1002    0.1084   -0.2993 H   0  0  0  0  0  0  0  0  0  0  0  0
   -3.9781    0.3677   -2.3309 H   0  0  0  0  0  0  0  0  0  0  0  0
   -4.7499    1.6382   -1.3189 H   0  0  0  0  0  0  0  0  0  0  0  0
   -3.0778    1.4285    0.4039 H   0  0  0  0  0  0  0  0  0  0  0  0
   -1.8505    1.0897   -2.3812 H   0  0  0  0  0  0  0  0  0  0  0  0
   -2.4990    2.5757   -1.6598 H   0  0  0  0  0  0  0  0  0  0  0  0
    0.1687    0.1566   -1.4678 H   0  0  0  0  0  0  0  0  0  0  0  0
    5.6146   -2.6687   -1.0408 H   0  0  0  0  0  0  0  0  0  0  0  0
    6.6868    0.5744    1.4556 H   0  0  0  0  0  0  0  0  0  0  0  0
    4.4830    1.4494    1.1121 H   0  0  0  0  0  0  0  0  0  0  0  0
    2.5140    2.6361    1.0615 H   0  0  0  0  0  0  0  0  0  0  0  0
    0.6903    4.1728    1.2934 H   0  0  0  0  0  0  0  0  0  0  0  0
   -1.4421    3.6819    0.1128 H   0  0  0  0  0  0  0  0  0  0  0  0
   -1.3485   -0.3019    0.3337 H   0  0  0  0  0  0  0  0  0  0  0  0
   -2.0823   -0.9737   -1.2223 H   0  0  0  0  0  0  0  0  0  0  0  0
   -2.9771   -2.3955    0.3419 H   0  0  0  0  0  0  0  0  0  0  0  0
   -2.9338   -1.1665    1.6831 H   0  0  0  0  0  0  0  0  0  0  0  0
  1  2  1  0
  2  3  2  0
  2  4  1  0
  4  5  1  0
  5  6  1  0
  6  7  1  0
  7  8  1  0
  8  9  1  0
  9 10  2  0
 10 11  1  0
 11 12  1  0
 12 13  1  0
 13 14  2  0
 14 15  1  0
 15 16  2  0
 16 17  1  0
 17 18  2  0
 16 19  1  0
 19 20  1  0
 19 21  1  0
 19 22  1  0
 11 23  2  0
 23 24  1  0
 24 25  2  0
  7 26  1  0
 26 27  1  0
 27  4  1  0
 25  9  1  0
 18 13  1  0
  1 28  1  0
  5 29  1  0
  5 30  1  0
  6 31  1  0
  6 32  1  0
  7 33  1  0
  8 34  1  0
  8 35  1  0
 10 36  1  0
 15 37  1  0
 17 38  1  0
 18 39  1  0
 23 40  1  0
 24 41  1  0
 25 42  1  0
 26 43  1  0
 26 44  1  0
 27 45  1  0
 27 46  1  0
M  END
$$$$
