@<TRIPOS>MOLECULE
*****
 46 48 0 0 0
SMALL
GASTEIGER

@<TRIPOS>ATOM
      1 O          -6.7985   -1.4643    1.4755 O.3     1  UNL1       -0.4662
      2 C          -5.4294   -1.6035    1.4667 C.2     1  UNL1        0.4005
      3 O          -5.0179   -2.2558    2.4716 O.2     1  UNL1       -0.2264
      4 N          -4.5733   -1.0689    0.4351 N.am    1  UNL1       -0.2676
      5 C          -5.1596   -0.3394   -0.6667 C.3     1  UNL1        0.0181
      6 C          -4.2241    0.6511   -1.2840 C.3     1  UNL1       -0.0339
      7 C          -2.9403    0.8281   -0.5325 C.3     1  UNL1       -0.0342
      8 C          -1.9898    1.6224   -1.4168 C.3     1  UNL1       -0.0246
      9 C          -0.6859    1.8443   -0.7451 C.ar    1  UNL1       -0.0436
     10 C           0.4259    0.9963   -0.8300 C.ar    1  UNL1       -0.0161
     11 C           1.6305    1.2835   -0.1569 C.ar    1  UNL1        0.1306
     12 O           2.4858    0.2877   -0.4402 O.3     1  UNL1       -0.4380
     13 C           3.7432    0.0007   -0.1094 C.ar    1  UNL1        0.2205
     14 N           4.0463   -1.1787   -0.7346 N.ar    1  UNL1       -0.2204
     15 C           5.2633   -1.7280   -0.5869 C.ar    1  UNL1        0.0430
     16 C           6.2727   -1.1773    0.1746 C.ar    1  UNL1        0.0731
     17 C           6.0190    0.0110    0.8255 C.ar    1  UNL1       -0.0436
     18 C           4.7597    0.5309    0.6418 C.ar    1  UNL1        0.0009
     19 C           7.6299   -1.7583    0.3593 C.3     1  UNL1        0.4188
     20 F           8.5952   -0.7619    0.4377 F       1  UNL1       -0.1658
     21 F           7.9033   -2.4585   -0.8133 F       1  UNL1       -0.1658
     22 F           7.6922   -2.6065    1.4549 F       1  UNL1       -0.1658
     23 C           1.5835    2.4427    0.5595 C.ar    1  UNL1       -0.0193
     24 C           0.5373    3.3088    0.6828 C.ar    1  UNL1       -0.0580
     25 C          -0.6198    2.9889    0.0082 C.ar    1  UNL1       -0.0583
     26 C          -2.2779   -0.4953   -0.2504 C.3     1  UNL1       -0.0339
     27 C          -3.1757   -1.3207    0.6072 C.3     1  UNL1        0.0181
     28 H          -7.3633   -1.4387    2.3214 H       1  UNL1        0.2968
     29 H          -5.4503   -1.0908   -1.4318 H       1  UNL1        0.0466
     30 H          -6.1002    0.1084   -0.2993 H       1  UNL1        0.0466
     31 H          -3.9781    0.3677   -2.3309 H       1  UNL1        0.0283
     32 H          -4.7499    1.6382   -1.3189 H       1  UNL1        0.0283
     33 H          -3.0778    1.4285    0.4039 H       1  UNL1        0.0305
     34 H          -1.8505    1.0897   -2.3812 H       1  UNL1        0.0316
     35 H          -2.4990    2.5757   -1.6598 H       1  UNL1        0.0316
     36 H           0.1687    0.1566   -1.4678 H       1  UNL1        0.0657
     37 H           5.6146   -2.6687   -1.0408 H       1  UNL1        0.0836
     38 H           6.6868    0.5744    1.4556 H       1  UNL1        0.0625
     39 H           4.4830    1.4494    1.1121 H       1  UNL1        0.0671
     40 H           2.5140    2.6361    1.0615 H       1  UNL1        0.0654
     41 H           0.6903    4.1728    1.2934 H       1  UNL1        0.0619
     42 H          -1.4421    3.6819    0.1128 H       1  UNL1        0.0620
     43 H          -1.3485   -0.3019    0.3337 H       1  UNL1        0.0283
     44 H          -2.0823   -0.9737   -1.2223 H       1  UNL1        0.0283
     45 H          -2.9771   -2.3955    0.3419 H       1  UNL1        0.0466
     46 H          -2.9338   -1.1665    1.6831 H       1  UNL1        0.0466
@<TRIPOS>BOND
     1     1     2    1
     2     2     3    2
     3     2     4   am
     4     4     5    1
     5     5     6    1
     6     6     7    1
     7     7     8    1
     8     8     9    1
     9     9    10   ar
    10    10    11   ar
    11    11    12    1
    12    12    13    1
    13    13    14   ar
    14    14    15   ar
    15    15    16   ar
    16    16    17   ar
    17    17    18   ar
    18    16    19    1
    19    19    20    1
    20    19    21    1
    21    19    22    1
    22    11    23   ar
    23    23    24   ar
    24    24    25   ar
    25     7    26    1
    26    26    27    1
    27    27     4    1
    28    25     9   ar
    29    18    13   ar
    30     1    28    1
    31     5    29    1
    32     5    30    1
    33     6    31    1
    34     6    32    1
    35     7    33    1
    36     8    34    1
    37     8    35    1
    38    10    36    1
    39    15    37    1
    40    17    38    1
    41    18    39    1
    42    23    40    1
    43    24    41    1
    44    25    42    1
    45    26    43    1
    46    26    44    1
    47    27    45    1
    48    27    46    1
