@<TRIPOS>MOLECULE
*****
 52 57 0 0 0
SMALL
GASTEIGER

@<TRIPOS>ATOM
      1 C           7.1193   -0.8947    0.6097 C.3     1  UNL1       -0.0383
      2 C           5.6719   -0.7071    0.3633 C.ar    1  UNL1       -0.0320
      3 C           5.0697   -1.0154   -0.8381 C.ar    1  UNL1       -0.0555
      4 C           3.7175   -0.8159   -0.9993 C.ar    1  UNL1       -0.0373
      5 C           2.9457   -0.3075    0.0310 C.ar    1  UNL1        0.0541
      6 N           1.5463   -0.0817   -0.0809 N.ar    1  UNL1       -0.2510
      7 C           0.9662    1.1052   -0.2835 C.ar    1  UNL1        0.2066
      8 O           1.5413    2.3678   -0.4310 O.3     1  UNL1       -0.4929
      9 C          -0.4062    0.9177   -0.3348 C.ar    1  UNL1        0.0574
     10 C          -0.6336   -0.4306   -0.1553 C.ar    1  UNL1        0.0704
     11 C           0.6140   -1.0393    0.0027 C.ar    1  UNL1        0.2074
     12 O           0.7738   -2.4035    0.2066 O.3     1  UNL1       -0.4929
     13 C          -2.0979   -0.6194   -0.2120 C.3     1  UNL1        0.2248
     14 O          -2.5926    0.6195    0.1192 O.3     1  UNL1       -0.3404
     15 C          -1.7534    1.5347   -0.4994 C.3     1  UNL1        0.1163
     16 C          -1.8034    2.8715    0.1712 C.ar    1  UNL1       -0.0143
     17 C          -1.8969    4.0313   -0.5914 C.ar    1  UNL1       -0.0558
     18 C          -1.9449    5.2748   -0.0055 C.ar    1  UNL1       -0.0614
     19 C          -1.9012    5.4065    1.3612 C.ar    1  UNL1       -0.0617
     20 C          -1.8082    4.2492    2.1152 C.ar    1  UNL1       -0.0614
     21 C          -1.7590    2.9939    1.5449 C.ar    1  UNL1       -0.0558
     22 C          -2.5786   -1.0195   -1.5383 C.2     1  UNL1        0.2079
     23 O          -2.4045   -0.3771   -2.5974 O.2     1  UNL1       -0.2881
     24 C          -3.2832   -2.2817   -1.3930 C.ar    1  UNL1        0.0317
     25 C          -3.9188   -3.0610   -2.3328 C.ar    1  UNL1       -0.0505
     26 C          -4.5466   -4.2496   -2.0120 C.ar    1  UNL1       -0.0611
     27 C          -4.5171   -4.6421   -0.6903 C.ar    1  UNL1       -0.0611
     28 C          -3.8828   -3.8678    0.2572 C.ar    1  UNL1       -0.0505
     29 C          -3.2518   -2.6743   -0.0610 C.ar    1  UNL1        0.0317
     30 C          -2.5250   -1.6857    0.7229 C.2     1  UNL1        0.2079
     31 O          -2.3139   -1.7466    1.9509 O.2     1  UNL1       -0.2881
     32 C           3.5778   -0.0092    1.2202 C.ar    1  UNL1       -0.0190
     33 C           4.9274   -0.1914    1.4293 C.ar    1  UNL1        0.0458
     34 CL          5.6991    0.2012    2.9620 Cl      1  UNL1       -0.0832
     35 H           7.4940   -0.0051    1.1766 H       1  UNL1        0.0278
     36 H           7.2393   -1.8134    1.2207 H       1  UNL1        0.0278
     37 H           7.7089   -1.0003   -0.3061 H       1  UNL1        0.0278
     38 H           5.6750   -1.4115   -1.6389 H       1  UNL1        0.0621
     39 H           3.2395   -1.0546   -1.9361 H       1  UNL1        0.0638
     40 H           1.2678    3.0560    0.2815 H       1  UNL1        0.2937
     41 H           1.2170   -2.7714    1.0612 H       1  UNL1        0.2937
     42 H          -1.9622    1.6760   -1.5724 H       1  UNL1        0.0700
     43 H          -1.9301    3.9061   -1.6686 H       1  UNL1        0.0621
     44 H          -2.0173    6.1466   -0.6367 H       1  UNL1        0.0618
     45 H          -1.9357    6.3579    1.8679 H       1  UNL1        0.0618
     46 H          -1.7743    4.3643    3.1956 H       1  UNL1        0.0618
     47 H          -1.6853    2.0958    2.1713 H       1  UNL1        0.0621
     48 H          -3.9447   -2.7552   -3.3773 H       1  UNL1        0.0625
     49 H          -5.0469   -4.8583   -2.7659 H       1  UNL1        0.0618
     50 H          -5.0110   -5.5790   -0.4329 H       1  UNL1        0.0618
     51 H          -3.8725   -4.1998    1.2999 H       1  UNL1        0.0625
     52 H           2.9881    0.3938    2.0488 H       1  UNL1        0.0653
@<TRIPOS>BOND
     1     1     2    1
     2     2     3   ar
     3     3     4   ar
     4     4     5   ar
     5     5     6    1
     6     6     7   ar
     7     7     8    1
     8     7     9   ar
     9     9    10   ar
    10    10    11   ar
    11    11    12    1
    12    10    13    1
    13    13    14    1
    14    14    15    1
    15    15    16    1
    16    16    17   ar
    17    17    18   ar
    18    18    19   ar
    19    19    20   ar
    20    20    21   ar
    21    13    22    1
    22    22    23    2
    23    22    24    1
    24    24    25   ar
    25    25    26   ar
    26    26    27   ar
    27    27    28   ar
    28    28    29   ar
    29    29    30    1
    30    30    31    2
    31     5    32   ar
    32    32    33   ar
    33    33    34    1
    34    33     2   ar
    35    11     6   ar
    36    30    13    1
    37    15     9    1
    38    21    16   ar
    39    29    24   ar
    40     1    35    1
    41     1    36    1
    42     1    37    1
    43     3    38    1
    44     4    39    1
    45     8    40    1
    46    12    41    1
    47    15    42    1
    48    17    43    1
    49    18    44    1
    50    19    45    1
    51    20    46    1
    52    21    47    1
    53    25    48    1
    54    26    49    1
    55    27    50    1
    56    28    51    1
    57    32    52    1
