@<TRIPOS>MOLECULE
*****
 66 69 0 0 0
SMALL
GASTEIGER

@<TRIPOS>ATOM
      1 C          -6.3791    0.0252    0.3800 C.3     1  UNL1        0.0985
      2 O          -6.4420   -0.1385   -1.0035 O.3     1  UNL1       -0.3643
      3 C          -6.5716    1.1393   -0.4177 C.3     1  UNL1        0.0941
      4 C          -7.9773    1.6952   -0.5557 C.3     1  UNL1       -0.0333
      5 C          -5.5016    2.1352   -0.6929 C.3     1  UNL1       -0.0164
      6 C          -4.1657    1.8383   -0.1041 C.3     1  UNL1       -0.0065
      7 C          -4.0383    0.3329   -0.0223 C.3     1  UNL1       -0.0131
      8 C          -4.9838   -0.2365    0.9664 C.3     1  UNL1        0.0397
      9 C          -4.9782    0.3169    2.3365 C.3     1  UNL1       -0.0519
     10 C          -4.7290   -1.7319    1.0324 C.3     1  UNL1       -0.0352
     11 C          -3.9196   -2.1972   -0.1599 C.3     1  UNL1       -0.0118
     12 C          -2.5847   -1.4824   -0.2349 C.3     1  UNL1       -0.0319
     13 N          -2.6575   -0.0892    0.1026 N.3     1  UNL1        0.2263
     14 O          -2.0059    0.6010   -0.8866 O.co2   1  UNL1       -0.7745
     15 C          -2.0574    0.2754    1.3397 C.3     1  UNL1        0.0458
     16 C          -0.6082    0.0460    1.3039 C.2     1  UNL1        0.2623
     17 O          -0.1468    0.4007    2.4362 O.2     1  UNL1       -0.2696
     18 N           0.3235   -0.4448    0.3627 N.am    1  UNL1       -0.2811
     19 C           1.7185   -0.6174    0.4530 C.ar    1  UNL1        0.0337
     20 C           2.3668   -1.1253   -0.6325 C.ar    1  UNL1       -0.0387
     21 C           3.7172   -1.3362   -0.6685 C.ar    1  UNL1       -0.0387
     22 C           4.4664   -1.0264    0.4329 C.ar    1  UNL1        0.0335
     23 N           5.8887   -1.2647    0.3450 N.am    1  UNL1       -0.2855
     24 C           6.7728   -0.2287   -0.1405 C.2     1  UNL1        0.2172
     25 O           5.8753    0.6438   -0.3478 O.2     1  UNL1       -0.2755
     26 C           8.1309   -0.7981   -0.0992 C.3     1  UNL1        0.0248
     27 C           9.1906    0.1052   -0.6006 C.3     1  UNL1       -0.0347
     28 C           9.0970    0.4782   -2.0323 C.3     1  UNL1        0.0452
     29 C           7.8670    1.1489   -2.4426 C.2     1  UNL1        0.3047
     30 O           7.6556    2.4796   -2.0925 O.3     1  UNL1       -0.4806
     31 O           7.0038    0.4978   -3.1190 O.2     1  UNL1       -0.2510
     32 C           3.8851   -0.5100    1.5671 C.ar    1  UNL1       -0.0387
     33 C           2.5259   -0.3283    1.5227 C.ar    1  UNL1       -0.0387
     34 H          -7.1787   -0.3943    1.0266 H       1  UNL1        0.0632
     35 H          -8.6688    1.0154   -1.0873 H       1  UNL1        0.0258
     36 H          -7.9788    2.6527   -1.1352 H       1  UNL1        0.0258
     37 H          -8.3874    1.9665    0.4400 H       1  UNL1        0.0258
     38 H          -5.8516    3.1232   -0.3062 H       1  UNL1        0.0296
     39 H          -5.4102    2.3044   -1.8059 H       1  UNL1        0.0296
     40 H          -3.3788    2.1659   -0.8447 H       1  UNL1        0.0321
     41 H          -3.9369    2.3677    0.8205 H       1  UNL1        0.0321
     42 H          -4.3586   -0.0373   -1.0310 H       1  UNL1        0.0857
     43 H          -6.0011    0.6493    2.6857 H       1  UNL1        0.0238
     44 H          -4.6901   -0.4378    3.1184 H       1  UNL1        0.0238
     45 H          -4.3414    1.1994    2.5182 H       1  UNL1        0.0238
     46 H          -5.7138   -2.2279    0.9813 H       1  UNL1        0.0275
     47 H          -4.2506   -2.0451    1.9846 H       1  UNL1        0.0275
     48 H          -4.5223   -2.1004   -1.0804 H       1  UNL1        0.0317
     49 H          -3.7267   -3.2805   -0.0136 H       1  UNL1        0.0317
     50 H          -1.8769   -2.0531    0.4374 H       1  UNL1        0.0814
     51 H          -2.2162   -1.6670   -1.2691 H       1  UNL1        0.0814
     52 H          -2.1907    1.3782    1.4539 H       1  UNL1        0.0912
     53 H          -2.4757   -0.2749    2.2124 H       1  UNL1        0.0912
     54 H          -0.1729   -0.6997   -0.5126 H       1  UNL1        0.1550
     55 H           1.8172   -1.3910   -1.5397 H       1  UNL1        0.0637
     56 H           4.1885   -1.7401   -1.5508 H       1  UNL1        0.0637
     57 H           5.9201   -2.2692    0.7066 H       1  UNL1        0.1548
     58 H           8.3778   -1.0400    0.9692 H       1  UNL1        0.0358
     59 H           8.1586   -1.7611   -0.6772 H       1  UNL1        0.0358
     60 H           9.3172    0.9993    0.0639 H       1  UNL1        0.0275
     61 H          10.1715   -0.4468   -0.4709 H       1  UNL1        0.0275
     62 H           9.2010   -0.4819   -2.6222 H       1  UNL1        0.0378
     63 H           9.9684    1.0946   -2.3748 H       1  UNL1        0.0378
     64 H           6.9054    3.0201   -2.5231 H       1  UNL1        0.2951
     65 H           4.4758   -0.2692    2.4263 H       1  UNL1        0.0637
     66 H           2.0882    0.0768    2.4200 H       1  UNL1        0.0637
@<TRIPOS>UNITY_ATOM_ATTR
13 1
charge 1
14 1
charge -1
@<TRIPOS>BOND
     1     1     2    1
     2     2     3    1
     3     3     4    1
     4     3     5    1
     5     5     6    1
     6     6     7    1
     7     7     8    1
     8     8     9    1
     9     8    10    1
    10    10    11    1
    11    11    12    1
    12    12    13    1
    13    13    14    1
    14    13    15    1
    15    15    16    1
    16    16    17    2
    17    16    18   am
    18    18    19    1
    19    19    20   ar
    20    20    21   ar
    21    21    22   ar
    22    22    23    1
    23    23    24   am
    24    24    25    2
    25    24    26    1
    26    26    27    1
    27    27    28    1
    28    28    29    1
    29    29    30    1
    30    29    31    2
    31    22    32   ar
    32    32    33   ar
    33     3     1    1
    34    13     7    1
    35    33    19   ar
    36     8     1    1
    37     1    34    1
    38     4    35    1
    39     4    36    1
    40     4    37    1
    41     5    38    1
    42     5    39    1
    43     6    40    1
    44     6    41    1
    45     7    42    1
    46     9    43    1
    47     9    44    1
    48     9    45    1
    49    10    46    1
    50    10    47    1
    51    11    48    1
    52    11    49    1
    53    12    50    1
    54    12    51    1
    55    15    52    1
    56    15    53    1
    57    18    54    1
    58    20    55    1
    59    21    56    1
    60    23    57    1
    61    26    58    1
    62    26    59    1
    63    27    60    1
    64    27    61    1
    65    28    62    1
    66    28    63    1
    67    30    64    1
    68    32    65    1
    69    33    66    1
