@<TRIPOS>MOLECULE
*****
 44 47 0 0 0
SMALL
GASTEIGER

@<TRIPOS>ATOM
      1 C           6.4374    3.2850    0.4890 C.3     1  UNL1        0.0788
      2 O           5.5533    2.9187    1.5072 O.3     1  UNL1       -0.4951
      3 C           4.4788    2.0782    1.2167 C.ar    1  UNL1        0.1202
      4 C           4.2710    1.6008   -0.0564 C.ar    1  UNL1       -0.0182
      5 C           3.1978    0.7682   -0.3197 C.ar    1  UNL1       -0.0370
      6 C           2.3074    0.3877    0.6607 C.ar    1  UNL1        0.0336
      7 N           1.2343   -0.4701    0.2997 N.am    1  UNL1       -0.2849
      8 C          -0.0231   -0.0009   -0.1413 C.2     1  UNL1        0.2267
      9 O          -0.2012    1.2337   -0.2105 O.2     1  UNL1       -0.2747
     10 C          -1.1574   -0.9165   -0.5284 C.3     1  UNL1        0.0852
     11 C          -0.8227   -1.5792   -1.7669 C.2     1  UNL1        0.0309
     12 C           0.4974   -2.3185   -1.8786 C.3     1  UNL1       -0.0254
     13 N          -1.5834   -1.5858   -2.7882 N.2     1  UNL1       -0.2368
     14 C          -2.8598   -0.9295   -2.7992 C.ar    1  UNL1        0.1521
     15 N          -3.7908   -0.7968   -3.7590 N.ar    1  UNL1       -0.2605
     16 N          -4.7798   -0.0804   -3.2726 N.ar    1  UNL1       -0.1802
     17 C          -4.5145    0.2645   -1.9966 C.ar    1  UNL1        0.0551
     18 C          -3.2576   -0.2842   -1.6660 C.ar    1  UNL1        0.0249
     19 C          -2.4587   -0.2701   -0.4470 C.3     1  UNL1        0.0367
     20 C          -3.2865   -0.6559    0.6883 C.ar    1  UNL1       -0.0016
     21 C          -3.5225   -1.8116    1.3273 C.ar    1  UNL1       -0.0509
     22 C          -4.3435   -1.8936    2.3526 C.ar    1  UNL1       -0.0545
     23 C          -4.9957   -0.6980    2.7836 C.ar    1  UNL1       -0.0240
     24 S          -4.2957    0.4690    1.5757 S.2     1  UNL1       -0.1010
     25 C           2.5347    0.8758    1.9214 C.ar    1  UNL1       -0.0370
     26 C           3.5955    1.7041    2.2023 C.ar    1  UNL1       -0.0182
     27 H           6.7714    2.3586   -0.0185 H       1  UNL1        0.0660
     28 H           7.3175    3.8174    0.8937 H       1  UNL1        0.0660
     29 H           5.9048    3.9668   -0.2292 H       1  UNL1        0.0660
     30 H           4.9413    1.8716   -0.8551 H       1  UNL1        0.0655
     31 H           3.0390    0.3946   -1.3267 H       1  UNL1        0.0637
     32 H           1.4012   -1.4943    0.3846 H       1  UNL1        0.1548
     33 H          -1.1538   -1.7252    0.3025 H       1  UNL1        0.0464
     34 H           0.6036   -3.0996   -1.1280 H       1  UNL1        0.0290
     35 H           0.4829   -2.8482   -2.8772 H       1  UNL1        0.0290
     36 H           1.2880   -1.5784   -1.9625 H       1  UNL1        0.0290
     37 H          -3.7429   -1.1861   -4.7105 H       1  UNL1        0.1905
     38 H          -5.1422    0.8524   -1.3397 H       1  UNL1        0.0851
     39 H          -2.2374    0.8487   -0.2775 H       1  UNL1        0.0415
     40 H          -2.9768   -2.7295    0.9415 H       1  UNL1        0.0626
     41 H          -4.5665   -2.8532    2.9161 H       1  UNL1        0.0623
     42 H          -5.6808   -0.5094    3.5610 H       1  UNL1        0.0693
     43 H           1.8188    0.5663    2.6960 H       1  UNL1        0.0637
     44 H           3.7173    2.0527    3.2142 H       1  UNL1        0.0655
@<TRIPOS>BOND
     1     1     2    1
     2     2     3    1
     3     3     4   ar
     4     4     5   ar
     5     5     6   ar
     6     6     7    1
     7     7     8   am
     8     8     9    2
     9     8    10    1
    10    10    11    1
    11    11    12    1
    12    11    13    2
    13    13    14    1
    14    14    15   ar
    15    15    16   ar
    16    16    17   ar
    17    17    18   ar
    18    18    19    1
    19    19    20    1
    20    20    21   ar
    21    21    22   ar
    22    22    23   ar
    23    23    24   ar
    24     6    25   ar
    25    25    26   ar
    26    26     3   ar
    27    19    10    1
    28    24    20   ar
    29    18    14   ar
    30     1    27    1
    31     1    28    1
    32     1    29    1
    33     4    30    1
    34     5    31    1
    35     7    32    1
    36    10    33    1
    37    12    34    1
    38    12    35    1
    39    12    36    1
    40    15    37    1
    41    17    38    1
    42    19    39    1
    43    21    40    1
    44    22    41    1
    45    23    42    1
    46    25    43    1
    47    26    44    1
