
     RDKit          3D

 44 47  0  0  0  0  0  0  0  0999 V2000
    6.4374    3.2850    0.4890 C   0  0  0  0  0  0  0  0  0  0  0  0
    5.5533    2.9187    1.5072 O   0  0  0  0  0  0  0  0  0  0  0  0
    4.4788    2.0782    1.2167 C   0  0  0  0  0  0  0  0  0  0  0  0
    4.2710    1.6008   -0.0564 C   0  0  0  0  0  0  0  0  0  0  0  0
    3.1978    0.7682   -0.3197 C   0  0  0  0  0  0  0  0  0  0  0  0
    2.3074    0.3877    0.6607 C   0  0  0  0  0  0  0  0  0  0  0  0
    1.2343   -0.4701    0.2997 N   0  0  0  0  0  0  0  0  0  0  0  0
   -0.0231   -0.0009   -0.1413 C   0  0  0  0  0  0  0  0  0  0  0  0
   -0.2012    1.2337   -0.2105 O   0  0  0  0  0  0  0  0  0  0  0  0
   -1.1574   -0.9165   -0.5284 C   0  0  0  0  0  0  0  0  0  0  0  0
   -0.8227   -1.5792   -1.7669 C   0  0  0  0  0  0  0  0  0  0  0  0
    0.4974   -2.3185   -1.8786 C   0  0  0  0  0  0  0  0  0  0  0  0
   -1.5834   -1.5858   -2.7882 N   0  0  0  0  0  0  0  0  0  0  0  0
   -2.8598   -0.9295   -2.7992 C   0  0  0  0  0  0  0  0  0  0  0  0
   -3.7908   -0.7968   -3.7590 N   0  0  0  0  0  0  0  0  0  0  0  0
   -4.7798   -0.0804   -3.2726 N   0  0  0  0  0  0  0  0  0  0  0  0
   -4.5145    0.2645   -1.9966 C   0  0  0  0  0  0  0  0  0  0  0  0
   -3.2576   -0.2842   -1.6660 C   0  0  0  0  0  0  0  0  0  0  0  0
   -2.4587   -0.2701   -0.4470 C   0  0  0  0  0  0  0  0  0  0  0  0
   -3.2865   -0.6559    0.6883 C   0  0  0  0  0  0  0  0  0  0  0  0
   -3.5225   -1.8116    1.3273 C   0  0  0  0  0  0  0  0  0  0  0  0
   -4.3435   -1.8936    2.3526 C   0  0  0  0  0  0  0  0  0  0  0  0
   -4.9957   -0.6980    2.7836 C   0  0  0  0  0  0  0  0  0  0  0  0
   -4.2957    0.4690    1.5757 S   0  0  0  0  0  0  0  0  0  0  0  0
    2.5347    0.8758    1.9214 C   0  0  0  0  0  0  0  0  0  0  0  0
    3.5955    1.7041    2.2023 C   0  0  0  0  0  0  0  0  0  0  0  0
    6.7714    2.3586   -0.0185 H   0  0  0  0  0  0  0  0  0  0  0  0
    7.3175    3.8174    0.8937 H   0  0  0  0  0  0  0  0  0  0  0  0
    5.9048    3.9668   -0.2292 H   0  0  0  0  0  0  0  0  0  0  0  0
    4.9413    1.8716   -0.8551 H   0  0  0  0  0  0  0  0  0  0  0  0
    3.0390    0.3946   -1.3267 H   0  0  0  0  0  0  0  0  0  0  0  0
    1.4012   -1.4943    0.3846 H   0  0  0  0  0  0  0  0  0  0  0  0
   -1.1538   -1.7252    0.3025 H   0  0  0  0  0  0  0  0  0  0  0  0
    0.6036   -3.0996   -1.1280 H   0  0  0  0  0  0  0  0  0  0  0  0
    0.4829   -2.8482   -2.8772 H   0  0  0  0  0  0  0  0  0  0  0  0
    1.2880   -1.5784   -1.9625 H   0  0  0  0  0  0  0  0  0  0  0  0
   -3.7429   -1.1861   -4.7105 H   0  0  0  0  0  0  0  0  0  0  0  0
   -5.1422    0.8524   -1.3397 H   0  0  0  0  0  0  0  0  0  0  0  0
   -2.2374    0.8487   -0.2775 H   0  0  0  0  0  0  0  0  0  0  0  0
   -2.9768   -2.7295    0.9415 H   0  0  0  0  0  0  0  0  0  0  0  0
   -4.5665   -2.8532    2.9161 H   0  0  0  0  0  0  0  0  0  0  0  0
   -5.6808   -0.5094    3.5610 H   0  0  0  0  0  0  0  0  0  0  0  0
    1.8188    0.5663    2.6960 H   0  0  0  0  0  0  0  0  0  0  0  0
    3.7173    2.0527    3.2142 H   0  0  0  0  0  0  0  0  0  0  0  0
  1  2  1  0
  2  3  1  0
  3  4  2  0
  4  5  1  0
  5  6  2  0
  6  7  1  0
  7  8  1  0
  8  9  2  0
  8 10  1  0
 10 11  1  0
 11 12  1  0
 11 13  2  0
 13 14  1  0
 14 15  1  0
 15 16  1  0
 16 17  2  0
 17 18  1  0
 18 19  1  0
 19 20  1  0
 20 21  2  0
 21 22  1  0
 22 23  2  0
 23 24  1  0
  6 25  1  0
 25 26  2  0
 26  3  1  0
 19 10  1  0
 24 20  1  0
 18 14  2  0
  1 27  1  0
  1 28  1  0
  1 29  1  0
  4 30  1  0
  5 31  1  0
  7 32  1  0
 10 33  1  0
 12 34  1  0
 12 35  1  0
 12 36  1  0
 15 37  1  0
 17 38  1  0
 19 39  1  0
 21 40  1  0
 22 41  1  0
 23 42  1  0
 25 43  1  0
 26 44  1  0
M  END
$$$$
