
     RDKit          3D

 60 62  0  0  0  0  0  0  0  0999 V2000
    6.3795   -2.3872   -1.8936 C   0  0  0  0  0  0  0  0  0  0  0  0
    6.6791   -1.6623   -0.6280 C   0  0  0  0  0  0  0  0  0  0  0  0
    5.9484   -0.4817   -0.4173 O   0  0  0  0  0  0  0  0  0  0  0  0
    4.5753   -0.4616   -0.3171 C   0  0  0  0  0  0  0  0  0  0  0  0
    4.0687    0.8298   -0.1177 C   0  0  0  0  0  0  0  0  0  0  0  0
    4.9002    1.9634   -0.0329 O   0  0  0  0  0  0  0  0  0  0  0  0
    4.2786    3.2171    0.1697 C   0  0  0  0  0  0  0  0  0  0  0  0
    5.2986    4.3221    0.2314 C   0  0  0  0  0  0  0  0  0  0  0  0
    2.6961    1.0143    0.0028 C   0  0  0  0  0  0  0  0  0  0  0  0
    1.7872   -0.0279   -0.0655 C   0  0  0  0  0  0  0  0  0  0  0  0
    0.3506    0.0893    0.0238 C   0  0  0  0  0  0  0  0  0  0  0  0
   -0.4813   -0.6811    0.6811 C   0  0  0  0  0  0  0  0  0  0  0  0
    0.0184   -1.8051    1.4377 N   0  0  0  0  0  0  0  0  0  0  0  0
   -0.9154   -2.9130    1.5638 C   0  0  0  0  0  0  0  0  0  0  0  0
   -2.2521   -2.4420    2.0950 C   0  0  0  0  0  0  0  0  0  0  0  0
   -2.7590   -1.2727    1.3278 C   0  0  0  0  0  0  0  0  0  0  0  0
   -4.1082   -0.9845    1.2615 C   0  0  0  0  0  0  0  0  0  0  0  0
   -4.6501    0.0768    0.5628 C   0  0  0  0  0  0  0  0  0  0  0  0
   -6.0088    0.3303    0.5201 O   0  0  0  0  0  0  0  0  0  0  0  0
   -7.0239   -0.3903    1.1257 C   0  0  0  0  0  0  0  0  0  0  0  0
   -7.0356   -1.8059    0.6044 C   0  0  0  0  0  0  0  0  0  0  0  0
   -3.7849    0.9323   -0.1335 C   0  0  0  0  0  0  0  0  0  0  0  0
   -4.3742    1.9762   -0.8139 O   0  0  0  0  0  0  0  0  0  0  0  0
   -3.6973    2.9328   -1.5696 C   0  0  0  0  0  0  0  0  0  0  0  0
   -2.9150    2.3852   -2.7336 C   0  0  0  0  0  0  0  0  0  0  0  0
   -2.4291    0.6442   -0.0679 C   0  0  0  0  0  0  0  0  0  0  0  0
   -1.9138   -0.4195    0.6348 C   0  0  0  0  0  0  0  0  0  0  0  0
    2.3002   -1.2899   -0.2621 C   0  0  0  0  0  0  0  0  0  0  0  0
    3.6566   -1.4858   -0.3821 C   0  0  0  0  0  0  0  0  0  0  0  0
    7.3575   -2.6266   -2.4112 H   0  0  0  0  0  0  0  0  0  0  0  0
    5.8920   -3.3691   -1.7626 H   0  0  0  0  0  0  0  0  0  0  0  0
    5.8283   -1.7655   -2.6512 H   0  0  0  0  0  0  0  0  0  0  0  0
    7.7749   -1.4964   -0.5493 H   0  0  0  0  0  0  0  0  0  0  0  0
    6.4406   -2.3856    0.2089 H   0  0  0  0  0  0  0  0  0  0  0  0
    3.7441    3.2225    1.1547 H   0  0  0  0  0  0  0  0  0  0  0  0
    3.5088    3.4311   -0.5942 H   0  0  0  0  0  0  0  0  0  0  0  0
    4.9695    5.0997    0.9511 H   0  0  0  0  0  0  0  0  0  0  0  0
    5.3535    4.8021   -0.7648 H   0  0  0  0  0  0  0  0  0  0  0  0
    6.3288    3.9484    0.4449 H   0  0  0  0  0  0  0  0  0  0  0  0
    2.2686    1.9962    0.1575 H   0  0  0  0  0  0  0  0  0  0  0  0
    0.0737    0.9460   -0.5642 H   0  0  0  0  0  0  0  0  0  0  0  0
    1.0019   -1.6205    1.7843 H   0  0  0  0  0  0  0  0  0  0  0  0
   -0.5278   -3.6697    2.2708 H   0  0  0  0  0  0  0  0  0  0  0  0
   -1.0262   -3.3841    0.5679 H   0  0  0  0  0  0  0  0  0  0  0  0
   -2.9714   -3.2718    1.9470 H   0  0  0  0  0  0  0  0  0  0  0  0
   -2.2009   -2.2198    3.1626 H   0  0  0  0  0  0  0  0  0  0  0  0
   -4.7361   -1.6668    1.8145 H   0  0  0  0  0  0  0  0  0  0  0  0
   -6.9472   -0.3823    2.2465 H   0  0  0  0  0  0  0  0  0  0  0  0
   -8.0018    0.0870    0.8589 H   0  0  0  0  0  0  0  0  0  0  0  0
   -6.1670   -1.9273   -0.0713 H   0  0  0  0  0  0  0  0  0  0  0  0
   -7.9752   -2.0082    0.0247 H   0  0  0  0  0  0  0  0  0  0  0  0
   -6.9296   -2.5248    1.4402 H   0  0  0  0  0  0  0  0  0  0  0  0
   -2.9722    3.4804   -0.9084 H   0  0  0  0  0  0  0  0  0  0  0  0
   -4.4429    3.6783   -1.9272 H   0  0  0  0  0  0  0  0  0  0  0  0
   -3.2690    2.9162   -3.6605 H   0  0  0  0  0  0  0  0  0  0  0  0
   -3.1707    1.3031   -2.8921 H   0  0  0  0  0  0  0  0  0  0  0  0
   -1.8276    2.5559   -2.6416 H   0  0  0  0  0  0  0  0  0  0  0  0
   -1.8281    1.3307   -0.6136 H   0  0  0  0  0  0  0  0  0  0  0  0
    1.7515   -2.2303   -0.3522 H   0  0  0  0  0  0  0  0  0  0  0  0
    4.1113   -2.4525   -0.5325 H   0  0  0  0  0  0  0  0  0  0  0  0
  1  2  1  0
  2  3  1  0
  3  4  1  0
  4  5  2  0
  5  6  1  0
  6  7  1  0
  7  8  1  0
  5  9  1  0
  9 10  2  0
 10 11  1  0
 11 12  2  0
 12 13  1  0
 13 14  1  0
 14 15  1  0
 15 16  1  0
 16 17  2  0
 17 18  1  0
 18 19  1  0
 19 20  1  0
 20 21  1  0
 18 22  2  0
 22 23  1  0
 23 24  1  0
 24 25  1  0
 22 26  1  0
 26 27  2  0
 10 28  1  0
 28 29  2  0
 29  4  1  0
 27 12  1  0
 27 16  1  0
  1 30  1  0
  1 31  1  0
  1 32  1  0
  2 33  1  0
  2 34  1  0
  7 35  1  0
  7 36  1  0
  8 37  1  0
  8 38  1  0
  8 39  1  0
  9 40  1  0
 11 41  1  0
 13 42  1  0
 14 43  1  0
 14 44  1  0
 15 45  1  0
 15 46  1  0
 17 47  1  0
 20 48  1  0
 20 49  1  0
 21 50  1  0
 21 51  1  0
 21 52  1  0
 24 53  1  0
 24 54  1  0
 25 55  1  0
 25 56  1  0
 25 57  1  0
 26 58  1  0
 28 59  1  0
 29 60  1  0
M  END
$$$$
