@<TRIPOS>MOLECULE
*****
 60 62 0 0 0
SMALL
GASTEIGER

@<TRIPOS>ATOM
      1 C           6.3795   -2.3872   -1.8936 C.3     1  UNL1       -0.0307
      2 C           6.6791   -1.6623   -0.6280 C.3     1  UNL1        0.0870
      3 O           5.9484   -0.4817   -0.4173 O.3     1  UNL1       -0.4886
      4 C           4.5753   -0.4616   -0.3171 C.ar    1  UNL1        0.1619
      5 C           4.0687    0.8298   -0.1177 C.ar    1  UNL1        0.1624
      6 O           4.9002    1.9634   -0.0329 O.3     1  UNL1       -0.4886
      7 C           4.2786    3.2171    0.1697 C.3     1  UNL1        0.0870
      8 C           5.2986    4.3221    0.2314 C.3     1  UNL1       -0.0307
      9 C           2.6961    1.0143    0.0028 C.ar    1  UNL1       -0.0091
     10 C           1.7872   -0.0279   -0.0655 C.ar    1  UNL1       -0.0196
     11 C           0.3506    0.0893    0.0238 C.2     1  UNL1       -0.0330
     12 C          -0.4813   -0.6811    0.6811 C.2     1  UNL1        0.0353
     13 N           0.0184   -1.8051    1.4377 N.pl3   1  UNL1       -0.3430
     14 C          -0.9154   -2.9130    1.5638 C.3     1  UNL1        0.0131
     15 C          -2.2521   -2.4420    2.0950 C.3     1  UNL1       -0.0114
     16 C          -2.7590   -1.2727    1.3278 C.ar    1  UNL1       -0.0333
     17 C          -4.1082   -0.9845    1.2615 C.ar    1  UNL1       -0.0124
     18 C          -4.6501    0.0768    0.5628 C.ar    1  UNL1        0.1622
     19 O          -6.0088    0.3303    0.5201 O.3     1  UNL1       -0.4886
     20 C          -7.0239   -0.3903    1.1257 C.3     1  UNL1        0.0870
     21 C          -7.0356   -1.8059    0.6044 C.3     1  UNL1       -0.0307
     22 C          -3.7849    0.9323   -0.1335 C.ar    1  UNL1        0.1625
     23 O          -4.3742    1.9762   -0.8139 O.3     1  UNL1       -0.4886
     24 C          -3.6973    2.9328   -1.5696 C.3     1  UNL1        0.0870
     25 C          -2.9150    2.3852   -2.7336 C.3     1  UNL1       -0.0307
     26 C          -2.4291    0.6442   -0.0679 C.ar    1  UNL1       -0.0071
     27 C          -1.9138   -0.4195    0.6348 C.ar    1  UNL1        0.0027
     28 C           2.3002   -1.2899   -0.2621 C.ar    1  UNL1       -0.0508
     29 C           3.6566   -1.4858   -0.3821 C.ar    1  UNL1       -0.0157
     30 H           7.3575   -2.6266   -2.4112 H       1  UNL1        0.0262
     31 H           5.8920   -3.3691   -1.7626 H       1  UNL1        0.0262
     32 H           5.8283   -1.7655   -2.6512 H       1  UNL1        0.0262
     33 H           7.7749   -1.4964   -0.5493 H       1  UNL1        0.0694
     34 H           6.4406   -2.3856    0.2089 H       1  UNL1        0.0694
     35 H           3.7441    3.2225    1.1547 H       1  UNL1        0.0694
     36 H           3.5088    3.4311   -0.5942 H       1  UNL1        0.0694
     37 H           4.9695    5.0997    0.9511 H       1  UNL1        0.0262
     38 H           5.3535    4.8021   -0.7648 H       1  UNL1        0.0262
     39 H           6.3288    3.9484    0.4449 H       1  UNL1        0.0262
     40 H           2.2686    1.9962    0.1575 H       1  UNL1        0.0661
     41 H           0.0737    0.9460   -0.5642 H       1  UNL1        0.0642
     42 H           1.0019   -1.6205    1.7843 H       1  UNL1        0.1461
     43 H          -0.5278   -3.6697    2.2708 H       1  UNL1        0.0464
     44 H          -1.0262   -3.3841    0.5679 H       1  UNL1        0.0464
     45 H          -2.9714   -3.2718    1.9470 H       1  UNL1        0.0328
     46 H          -2.2009   -2.2198    3.1626 H       1  UNL1        0.0328
     47 H          -4.7361   -1.6668    1.8145 H       1  UNL1        0.0658
     48 H          -6.9472   -0.3823    2.2465 H       1  UNL1        0.0694
     49 H          -8.0018    0.0870    0.8589 H       1  UNL1        0.0694
     50 H          -6.1670   -1.9273   -0.0713 H       1  UNL1        0.0262
     51 H          -7.9752   -2.0082    0.0247 H       1  UNL1        0.0262
     52 H          -6.9296   -2.5248    1.4402 H       1  UNL1        0.0262
     53 H          -2.9722    3.4804   -0.9084 H       1  UNL1        0.0694
     54 H          -4.4429    3.6783   -1.9272 H       1  UNL1        0.0694
     55 H          -3.2690    2.9162   -3.6605 H       1  UNL1        0.0262
     56 H          -3.1707    1.3031   -2.8921 H       1  UNL1        0.0262
     57 H          -1.8276    2.5559   -2.6416 H       1  UNL1        0.0262
     58 H          -1.8281    1.3307   -0.6136 H       1  UNL1        0.0662
     59 H           1.7515   -2.2303   -0.3522 H       1  UNL1        0.0625
     60 H           4.1113   -2.4525   -0.5325 H       1  UNL1        0.0655
@<TRIPOS>BOND
     1     1     2    1
     2     2     3    1
     3     3     4    1
     4     4     5   ar
     5     5     6    1
     6     6     7    1
     7     7     8    1
     8     5     9   ar
     9     9    10   ar
    10    10    11    1
    11    11    12    2
    12    12    13    1
    13    13    14    1
    14    14    15    1
    15    15    16    1
    16    16    17   ar
    17    17    18   ar
    18    18    19    1
    19    19    20    1
    20    20    21    1
    21    18    22   ar
    22    22    23    1
    23    23    24    1
    24    24    25    1
    25    22    26   ar
    26    26    27   ar
    27    10    28   ar
    28    28    29   ar
    29    29     4   ar
    30    27    12    1
    31    27    16   ar
    32     1    30    1
    33     1    31    1
    34     1    32    1
    35     2    33    1
    36     2    34    1
    37     7    35    1
    38     7    36    1
    39     8    37    1
    40     8    38    1
    41     8    39    1
    42     9    40    1
    43    11    41    1
    44    13    42    1
    45    14    43    1
    46    14    44    1
    47    15    45    1
    48    15    46    1
    49    17    47    1
    50    20    48    1
    51    20    49    1
    52    21    50    1
    53    21    51    1
    54    21    52    1
    55    24    53    1
    56    24    54    1
    57    25    55    1
    58    25    56    1
    59    25    57    1
    60    26    58    1
    61    28    59    1
    62    29    60    1
