
     RDKit          3D

 26 27  0  0  0  0  0  0  0  0999 V2000
   -1.4774   -1.4091   -0.8262 C   0  0  0  0  0  0  0  0  0  0  0  0
   -1.3627   -0.0151   -0.7373 N   0  0  0  0  0  0  0  0  0  0  0  0
   -2.5383    0.5681   -0.1603 C   0  0  0  0  0  0  0  0  0  0  0  0
   -2.0622    1.6595    0.7803 C   0  0  0  0  0  0  0  0  0  0  0  0
   -0.7225    1.0787    1.1869 C   0  0  0  0  0  0  0  0  0  0  0  0
   -0.2455    0.6169   -0.2088 C   0  0  1  0  0  0  0  0  0  0  0  0
    1.0340   -0.0578   -0.1293 C   0  0  0  0  0  0  0  0  0  0  0  0
    2.1729    0.5334   -0.6247 C   0  0  0  0  0  0  0  0  0  0  0  0
    3.4229   -0.0941   -0.5471 C   0  0  0  0  0  0  0  0  0  0  0  0
    3.5096   -1.3330    0.0401 C   0  0  0  0  0  0  0  0  0  0  0  0
    2.4051   -1.8987    0.5169 N   0  0  0  0  0  0  0  0  0  0  0  0
    1.1787   -1.2938    0.4462 C   0  0  0  0  0  0  0  0  0  0  0  0
   -2.3194   -1.6145   -1.5658 H   0  0  0  0  0  0  0  0  0  0  0  0
   -0.6188   -1.9366   -1.2789 H   0  0  0  0  0  0  0  0  0  0  0  0
   -1.8738   -1.9246    0.0977 H   0  0  0  0  0  0  0  0  0  0  0  0
   -3.1269   -0.1471    0.4648 H   0  0  0  0  0  0  0  0  0  0  0  0
   -3.1977    1.0090   -0.9511 H   0  0  0  0  0  0  0  0  0  0  0  0
   -1.8521    2.6098    0.2516 H   0  0  0  0  0  0  0  0  0  0  0  0
   -2.6849    1.7630    1.6726 H   0  0  0  0  0  0  0  0  0  0  0  0
   -0.8278    0.2246    1.8709 H   0  0  0  0  0  0  0  0  0  0  0  0
   -0.0070    1.8469    1.5181 H   0  0  0  0  0  0  0  0  0  0  0  0
   -0.1474    1.6101   -0.7568 H   0  0  0  0  0  0  0  0  0  0  0  0
    2.1613    1.5035   -1.0946 H   0  0  0  0  0  0  0  0  0  0  0  0
    4.3178    0.3725   -0.9373 H   0  0  0  0  0  0  0  0  0  0  0  0
    4.4976   -1.8184    0.0961 H   0  0  0  0  0  0  0  0  0  0  0  0
    0.3646   -1.8532    0.8761 H   0  0  0  0  0  0  0  0  0  0  0  0
  1  2  1  0
  2  3  1  0
  3  4  1  0
  4  5  1  0
  5  6  1  0
  6  7  1  0
  7  8  2  0
  8  9  1  0
  9 10  2  0
 10 11  1  0
 11 12  2  0
  6  2  1  0
 12  7  1  0
  1 13  1  0
  1 14  1  0
  1 15  1  0
  3 16  1  0
  3 17  1  0
  4 18  1  0
  4 19  1  0
  5 20  1  0
  5 21  1  0
  6 22  1  6
  8 23  1  0
  9 24  1  0
 10 25  1  0
 12 26  1  0
M  END
$$$$
