@<TRIPOS>MOLECULE
*****
 26 27 0 0 0
SMALL
GASTEIGER

@<TRIPOS>ATOM
      1 C          -1.4774   -1.4091   -0.8262 C.3     1  UNL1       -0.0122
      2 N          -1.3627   -0.0151   -0.7373 N.3     1  UNL1       -0.2984
      3 C          -2.5383    0.5681   -0.1603 C.3     1  UNL1       -0.0008
      4 C          -2.0622    1.6595    0.7803 C.3     1  UNL1       -0.0385
      5 C          -0.7225    1.0787    1.1869 C.3     1  UNL1       -0.0320
      6 C          -0.2455    0.6169   -0.2088 C.3     1  UNL1        0.0368
      7 C           1.0340   -0.0578   -0.1293 C.ar    1  UNL1       -0.0122
      8 C           2.1729    0.5334   -0.6247 C.ar    1  UNL1       -0.0542
      9 C           3.4229   -0.0941   -0.5471 C.ar    1  UNL1       -0.0433
     10 C           3.5096   -1.3330    0.0401 C.ar    1  UNL1        0.0276
     11 N           2.4051   -1.8987    0.5169 N.ar    1  UNL1       -0.2629
     12 C           1.1787   -1.2938    0.4462 C.ar    1  UNL1        0.0322
     13 H          -2.3194   -1.6145   -1.5658 H       1  UNL1        0.0391
     14 H          -0.6188   -1.9366   -1.2789 H       1  UNL1        0.0391
     15 H          -1.8738   -1.9246    0.0977 H       1  UNL1        0.0391
     16 H          -3.1269   -0.1471    0.4648 H       1  UNL1        0.0427
     17 H          -3.1977    1.0090   -0.9511 H       1  UNL1        0.0427
     18 H          -1.8521    2.6098    0.2516 H       1  UNL1        0.0278
     19 H          -2.6849    1.7630    1.6726 H       1  UNL1        0.0278
     20 H          -0.8278    0.2246    1.8709 H       1  UNL1        0.0284
     21 H          -0.0070    1.8469    1.5181 H       1  UNL1        0.0284
     22 H          -0.1474    1.6101   -0.7568 H       1  UNL1        0.0512
     23 H           2.1613    1.5035   -1.0946 H       1  UNL1        0.0622
     24 H           4.3178    0.3725   -0.9373 H       1  UNL1        0.0633
     25 H           4.4976   -1.8184    0.0961 H       1  UNL1        0.0829
     26 H           0.3646   -1.8532    0.8761 H       1  UNL1        0.0833
@<TRIPOS>BOND
     1     1     2    1
     2     2     3    1
     3     3     4    1
     4     4     5    1
     5     5     6    1
     6     6     7    1
     7     7     8   ar
     8     8     9   ar
     9     9    10   ar
    10    10    11   ar
    11    11    12   ar
    12     6     2    1
    13    12     7   ar
    14     1    13    1
    15     1    14    1
    16     1    15    1
    17     3    16    1
    18     3    17    1
    19     4    18    1
    20     4    19    1
    21     5    20    1
    22     5    21    1
    23     6    22    1
    24     8    23    1
    25     9    24    1
    26    10    25    1
    27    12    26    1
