@<TRIPOS>MOLECULE
*****
 67 69 0 0 0
SMALL
GASTEIGER

@<TRIPOS>ATOM
      1 C           3.8806   -0.4997   -0.3212 C.3     1  UNL1        0.0458
      2 C           4.5684    0.1793    0.7735 C.3     1  UNL1       -0.0391
      3 C           6.0140    0.1792    0.9315 C.3     1  UNL1       -0.0460
      4 C           6.7729    0.8828   -0.1407 C.3     1  UNL1       -0.0626
      5 C           6.3946    0.7970    2.2860 C.3     1  UNL1       -0.0626
      6 C           4.0617   -0.2640   -1.7314 C.3     1  UNL1        0.0558
      7 C           5.3674   -0.5282   -2.3695 C.2     1  UNL1        0.3054
      8 O           6.1185   -1.6657   -2.1907 O.3     1  UNL1       -0.4806
      9 O           5.9446    0.2927   -3.1689 O.2     1  UNL1       -0.2510
     10 C           2.3754   -0.2487    0.0572 C.2     1  UNL1        0.2172
     11 O           2.3111    0.3870    1.1224 O.2     1  UNL1       -0.2755
     12 N           1.3447   -0.7515   -0.8061 N.am    1  UNL1       -0.3034
     13 C           0.0659   -0.3620   -0.1795 C.3     1  UNL1        0.1034
     14 C          -0.7183    0.2809   -1.3042 C.3     1  UNL1        0.0013
     15 C          -1.9530    0.9539   -0.9078 C.ar    1  UNL1       -0.0199
     16 C          -2.8968    0.7019    0.0455 C.ar    1  UNL1        0.0089
     17 N          -3.9862    1.4118    0.2716 N.ar    1  UNL1       -0.3464
     18 C          -4.7070    0.8513    1.3560 C.3     1  UNL1        0.0233
     19 C          -5.5434   -0.3080    1.1983 C.3     1  UNL1       -0.0350
     20 C          -5.2169   -1.5865    0.6136 C.3     1  UNL1       -0.0514
     21 C          -4.0459   -2.3774    0.8340 C.3     1  UNL1       -0.0516
     22 C          -3.4807   -2.7936    2.1416 C.3     1  UNL1       -0.0374
     23 C          -2.0897   -3.4772    1.7699 C.3     1  UNL1        0.0116
     24 N          -1.2937   -2.5000    1.0881 N.am    1  UNL1       -0.3138
     25 C          -0.5198   -1.5544    0.4262 C.2     1  UNL1        0.2337
     26 O           0.1444   -2.6492    0.2692 O.2     1  UNL1       -0.2738
     27 C          -3.7789    2.3355   -0.6962 C.ar    1  UNL1        0.0493
     28 C          -2.6063    2.0928   -1.3946 C.ar    1  UNL1        0.0031
     29 C          -2.3382    3.0463   -2.3975 C.ar    1  UNL1       -0.0523
     30 C          -3.1710    4.1417   -2.6686 C.ar    1  UNL1       -0.0611
     31 C          -4.3319    4.2909   -1.8998 C.ar    1  UNL1       -0.0598
     32 C          -4.6668    3.3874   -0.8894 C.ar    1  UNL1       -0.0376
     33 H           3.8877   -1.6534   -0.1280 H       1  UNL1        0.0399
     34 H           4.0845   -0.1495    1.7848 H       1  UNL1        0.0275
     35 H           4.1856    1.2944    0.7085 H       1  UNL1        0.0275
     36 H           6.4163   -0.8841    0.9445 H       1  UNL1        0.0296
     37 H           7.5138    1.5913    0.3664 H       1  UNL1        0.0232
     38 H           7.4193    0.2354   -0.7437 H       1  UNL1        0.0232
     39 H           6.0900    1.5278   -0.7311 H       1  UNL1        0.0232
     40 H           5.4796    1.1015    2.8383 H       1  UNL1        0.0232
     41 H           6.9079    0.0387    2.8968 H       1  UNL1        0.0232
     42 H           7.0060    1.6886    2.1371 H       1  UNL1        0.0232
     43 H           3.3686   -0.9723   -2.3184 H       1  UNL1        0.0385
     44 H           3.6599    0.7448   -2.0708 H       1  UNL1        0.0385
     45 H           6.5986   -2.0886   -2.9800 H       1  UNL1        0.2951
     46 H           1.5646   -1.2768   -1.6603 H       1  UNL1        0.1495
     47 H           0.2407    0.3942    0.5845 H       1  UNL1        0.0598
     48 H          -0.1259    0.9505   -1.9107 H       1  UNL1        0.0337
     49 H          -1.0297   -0.5571   -2.0159 H       1  UNL1        0.0337
     50 H          -2.4863   -0.1084    0.4983 H       1  UNL1        0.0812
     51 H          -5.3946    1.6580    1.8170 H       1  UNL1        0.0492
     52 H          -4.0148    0.7138    2.2737 H       1  UNL1        0.0492
     53 H          -6.4885    0.0434    0.6387 H       1  UNL1        0.0282
     54 H          -6.0470   -0.4905    2.2271 H       1  UNL1        0.0282
     55 H          -6.1428   -2.2510    0.8298 H       1  UNL1        0.0266
     56 H          -5.3637   -1.4840   -0.5230 H       1  UNL1        0.0266
     57 H          -3.1787   -2.2078    0.1140 H       1  UNL1        0.0266
     58 H          -4.3332   -3.4425    0.3657 H       1  UNL1        0.0266
     59 H          -4.0213   -3.6156    2.6346 H       1  UNL1        0.0280
     60 H          -3.2713   -2.0372    2.8780 H       1  UNL1        0.0280
     61 H          -2.2721   -4.3438    1.1267 H       1  UNL1        0.0462
     62 H          -1.6409   -3.8249    2.7119 H       1  UNL1        0.0462
     63 H          -1.7104   -1.6035    1.3492 H       1  UNL1        0.1487
     64 H          -1.4159    2.8972   -2.9686 H       1  UNL1        0.0624
     65 H          -2.9187    4.8331   -3.4455 H       1  UNL1        0.0618
     66 H          -5.0131    5.1225   -2.0677 H       1  UNL1        0.0618
     67 H          -5.5738    3.5092   -0.2806 H       1  UNL1        0.0638
@<TRIPOS>BOND
     1     1     2    1
     2     2     3    1
     3     3     4    1
     4     3     5    1
     5     1     6    1
     6     6     7    1
     7     7     8    1
     8     7     9    2
     9     1    10    1
    10    10    11    2
    11    10    12   am
    12    12    13    1
    13    13    14    1
    14    14    15    1
    15    15    16   ar
    16    16    17   ar
    17    17    18    1
    18    18    19    1
    19    19    20    1
    20    20    21    1
    21    21    22    1
    22    22    23    1
    23    23    24    1
    24    24    25   am
    25    25    26    2
    26    17    27   ar
    27    27    28   ar
    28    28    29   ar
    29    29    30   ar
    30    30    31   ar
    31    31    32   ar
    32    25    13    1
    33    32    27   ar
    34    28    15   ar
    35     1    33    1
    36     2    34    1
    37     2    35    1
    38     3    36    1
    39     4    37    1
    40     4    38    1
    41     4    39    1
    42     5    40    1
    43     5    41    1
    44     5    42    1
    45     6    43    1
    46     6    44    1
    47     8    45    1
    48    12    46    1
    49    13    47    1
    50    14    48    1
    51    14    49    1
    52    16    50    1
    53    18    51    1
    54    18    52    1
    55    19    53    1
    56    19    54    1
    57    20    55    1
    58    20    56    1
    59    21    57    1
    60    21    58    1
    61    22    59    1
    62    22    60    1
    63    23    61    1
    64    23    62    1
    65    24    63    1
    66    29    64    1
    67    30    65    1
    68    31    66    1
    69    32    67    1
