@<TRIPOS>MOLECULE
*****
 45 47 0 0 0
SMALL
GASTEIGER

@<TRIPOS>ATOM
      1 C           3.9271   -0.7468   -0.6655 C.3     1  UNL1       -0.0130
      2 N           3.5696    0.4472    0.0588 N.3     1  UNL1       -0.3083
      3 C           4.7498    1.2347    0.2744 C.3     1  UNL1       -0.0130
      4 C           2.8818    0.1028    1.2522 C.3     1  UNL1       -0.0003
      5 C           1.5077   -0.4781    1.0108 C.3     1  UNL1       -0.0240
      6 C           0.7429    0.6243    0.2444 C.3     1  UNL1        0.0184
      7 N          -0.5878    0.2822   -0.0833 N.pl3   1  UNL1       -0.2996
      8 C          -0.8770   -0.8816   -0.8921 C.ar    1  UNL1        0.0372
      9 C           0.2489   -1.2056   -1.5956 C.ar    1  UNL1       -0.0401
     10 C           0.1794   -2.3095   -2.4317 C.ar    1  UNL1       -0.0600
     11 C          -1.0048   -3.0163   -2.5124 C.ar    1  UNL1       -0.0614
     12 C          -2.1222   -2.6563   -1.7855 C.ar    1  UNL1       -0.0568
     13 C          -2.0809   -1.5482   -0.9352 C.ar    1  UNL1       -0.0257
     14 C          -3.3916   -1.3697   -0.3065 C.3     1  UNL1       -0.0219
     15 C          -3.4521   -0.5553    0.9311 C.3     1  UNL1       -0.0219
     16 C          -2.8795    0.7842    0.8772 C.ar    1  UNL1       -0.0257
     17 C          -3.6954    1.8018    1.3262 C.ar    1  UNL1       -0.0568
     18 C          -3.2597    3.1096    1.3321 C.ar    1  UNL1       -0.0614
     19 C          -1.9954    3.4643    0.8922 C.ar    1  UNL1       -0.0600
     20 C          -1.1830    2.4783    0.4480 C.ar    1  UNL1       -0.0401
     21 C          -1.6125    1.1681    0.4397 C.ar    1  UNL1        0.0372
     22 H           4.8732   -1.1480   -0.2577 H       1  UNL1        0.0391
     23 H           3.1545   -1.5435   -0.5112 H       1  UNL1        0.0391
     24 H           3.9885   -0.5246   -1.7558 H       1  UNL1        0.0391
     25 H           5.1604    1.1902    1.3037 H       1  UNL1        0.0391
     26 H           5.5278    0.9065   -0.4540 H       1  UNL1        0.0391
     27 H           4.5454    2.3303    0.0795 H       1  UNL1        0.0391
     28 H           3.4487   -0.6779    1.8366 H       1  UNL1        0.0427
     29 H           2.7771    0.9475    1.9567 H       1  UNL1        0.0427
     30 H           1.4531   -1.4525    0.5939 H       1  UNL1        0.0293
     31 H           1.0721   -0.6031    2.0537 H       1  UNL1        0.0293
     32 H           0.7447    1.3688    1.1041 H       1  UNL1        0.0468
     33 H           1.3608    1.1224   -0.4953 H       1  UNL1        0.0468
     34 H           1.1558   -0.5956   -1.5034 H       1  UNL1        0.0636
     35 H           1.0712   -2.5863   -3.0015 H       1  UNL1        0.0618
     36 H          -1.0576   -3.8794   -3.1651 H       1  UNL1        0.0618
     37 H          -3.0438   -3.2490   -1.8830 H       1  UNL1        0.0621
     38 H          -4.0980   -0.9099   -1.0383 H       1  UNL1        0.0317
     39 H          -3.7728   -2.3985   -0.0337 H       1  UNL1        0.0317
     40 H          -3.0666   -1.1598    1.7904 H       1  UNL1        0.0317
     41 H          -4.5451   -0.4314    1.1730 H       1  UNL1        0.0317
     42 H          -4.6794    1.5503    1.6728 H       1  UNL1        0.0621
     43 H          -3.9455    3.8935    1.7015 H       1  UNL1        0.0618
     44 H          -1.6294    4.4795    0.8867 H       1  UNL1        0.0618
     45 H          -0.1605    2.6403    0.0673 H       1  UNL1        0.0636
@<TRIPOS>BOND
     1     1     2    1
     2     2     3    1
     3     2     4    1
     4     4     5    1
     5     5     6    1
     6     6     7    1
     7     7     8    1
     8     8     9   ar
     9     9    10   ar
    10    10    11   ar
    11    11    12   ar
    12    12    13   ar
    13    13    14    1
    14    14    15    1
    15    15    16    1
    16    16    17   ar
    17    17    18   ar
    18    18    19   ar
    19    19    20   ar
    20    20    21   ar
    21    21     7    1
    22    13     8   ar
    23    21    16   ar
    24     1    22    1
    25     1    23    1
    26     1    24    1
    27     3    25    1
    28     3    26    1
    29     3    27    1
    30     4    28    1
    31     4    29    1
    32     5    30    1
    33     5    31    1
    34     6    32    1
    35     6    33    1
    36     9    34    1
    37    10    35    1
    38    11    36    1
    39    12    37    1
    40    14    38    1
    41    14    39    1
    42    15    40    1
    43    15    41    1
    44    17    42    1
    45    18    43    1
    46    19    44    1
    47    20    45    1
