@<TRIPOS>MOLECULE
*****
 48 49 0 0 0
SMALL
GASTEIGER

@<TRIPOS>ATOM
      1 C          -5.1916   -0.5817    1.0095 C.3     1  UNL1       -0.0524
      2 C          -4.6496   -0.5561   -0.4051 C.3     1  UNL1       -0.0040
      3 N          -3.9926    0.6517   -0.7327 N.3     1  UNL1       -0.3028
      4 C          -4.8125    1.8080   -0.8300 C.3     1  UNL1       -0.0040
      5 C          -5.7271    1.7004   -2.0294 C.3     1  UNL1       -0.0524
      6 C          -2.6858    0.8389   -0.2346 C.3     1  UNL1       -0.0011
      7 C          -1.6159   -0.0448   -0.7896 C.3     1  UNL1       -0.0385
      8 C          -0.3253    0.3495   -0.1120 C.3     1  UNL1       -0.0337
      9 C           0.8604   -0.4443   -0.5653 C.3     1  UNL1        0.0179
     10 C           0.6147   -1.9054   -0.2588 C.3     1  UNL1       -0.0467
     11 N           2.0290   -0.0038    0.1690 N.pl3   1  UNL1       -0.3407
     12 C           3.3283   -0.5006   -0.0932 C.ar    1  UNL1        0.0380
     13 C           3.4937   -1.4431   -1.1159 C.ar    1  UNL1       -0.0221
     14 C           4.7629   -1.9324   -1.3938 C.ar    1  UNL1        0.0300
     15 N           5.8295   -1.5276   -0.7116 N.ar    1  UNL1       -0.2548
     16 C           5.7158   -0.6290    0.2725 C.ar    1  UNL1        0.0741
     17 C           6.8602   -0.2513    0.9409 C.ar    1  UNL1       -0.0173
     18 C           6.7379    0.6685    1.9482 C.ar    1  UNL1        0.0430
     19 CL          8.1458    1.2073    2.8510 Cl      1  UNL1       -0.0835
     20 C           5.5059    1.1984    2.2808 C.ar    1  UNL1       -0.0426
     21 C           4.3612    0.8061    1.5957 C.ar    1  UNL1       -0.0494
     22 C           4.4522   -0.1080    0.5876 C.ar    1  UNL1        0.0213
     23 H          -4.4135   -0.3068    1.7516 H       1  UNL1        0.0242
     24 H          -5.6304   -1.5806    1.2105 H       1  UNL1        0.0242
     25 H          -6.0356    0.1462    1.1066 H       1  UNL1        0.0242
     26 H          -5.5567   -0.6452   -1.0745 H       1  UNL1        0.0424
     27 H          -4.0743   -1.4688   -0.5609 H       1  UNL1        0.0424
     28 H          -4.2568    2.7612   -0.7994 H       1  UNL1        0.0424
     29 H          -5.4657    1.8308    0.0894 H       1  UNL1        0.0424
     30 H          -5.2759    1.1150   -2.8561 H       1  UNL1        0.0242
     31 H          -5.8606    2.7502   -2.4042 H       1  UNL1        0.0242
     32 H          -6.7086    1.2367   -1.7822 H       1  UNL1        0.0242
     33 H          -2.3794    1.8976   -0.4680 H       1  UNL1        0.0426
     34 H          -2.6694    0.7633    0.8695 H       1  UNL1        0.0426
     35 H          -1.4935    0.0440   -1.8885 H       1  UNL1        0.0278
     36 H          -1.7782   -1.1175   -0.5873 H       1  UNL1        0.0278
     37 H          -0.1836    1.4419   -0.2880 H       1  UNL1        0.0283
     38 H          -0.4737    0.2371    0.9913 H       1  UNL1        0.0283
     39 H           0.9852   -0.3294   -1.6518 H       1  UNL1        0.0495
     40 H           0.3942   -2.4567   -1.1913 H       1  UNL1        0.0247
     41 H           1.4492   -2.3781    0.3133 H       1  UNL1        0.0247
     42 H          -0.2772   -2.0368    0.4192 H       1  UNL1        0.0247
     43 H           1.8855    0.7003    0.9079 H       1  UNL1        0.1464
     44 H           2.6271   -1.7644   -1.6677 H       1  UNL1        0.0651
     45 H           4.8583   -2.6628   -2.1943 H       1  UNL1        0.0830
     46 H           7.8212   -0.6494    0.6995 H       1  UNL1        0.0653
     47 H           5.4076    1.9260    3.0780 H       1  UNL1        0.0632
     48 H           3.4075    1.2453    1.8865 H       1  UNL1        0.0625
@<TRIPOS>BOND
     1     1     2    1
     2     2     3    1
     3     3     4    1
     4     4     5    1
     5     3     6    1
     6     6     7    1
     7     7     8    1
     8     8     9    1
     9     9    10    1
    10     9    11    1
    11    11    12    1
    12    12    13   ar
    13    13    14   ar
    14    14    15   ar
    15    15    16   ar
    16    16    17   ar
    17    17    18   ar
    18    18    19    1
    19    18    20   ar
    20    20    21   ar
    21    21    22   ar
    22    22    12   ar
    23    22    16   ar
    24     1    23    1
    25     1    24    1
    26     1    25    1
    27     2    26    1
    28     2    27    1
    29     4    28    1
    30     4    29    1
    31     5    30    1
    32     5    31    1
    33     5    32    1
    34     6    33    1
    35     6    34    1
    36     7    35    1
    37     7    36    1
    38     8    37    1
    39     8    38    1
    40     9    39    1
    41    10    40    1
    42    10    41    1
    43    10    42    1
    44    11    43    1
    45    13    44    1
    46    14    45    1
    47    17    46    1
    48    20    47    1
    49    21    48    1
