@<TRIPOS>MOLECULE
*****
 49 52 0 0 0
SMALL
GASTEIGER

@<TRIPOS>ATOM
      1 C           4.6335   -3.8560    0.7689 C.3     1  UNL1        0.0790
      2 O           5.2050   -2.6829    0.2243 O.3     1  UNL1       -0.4913
      3 C           4.4292   -1.5726   -0.0227 C.ar    1  UNL1        0.1669
      4 C           3.0933   -1.5672    0.2487 C.ar    1  UNL1        0.0052
      5 C           2.2539   -0.4978    0.0292 C.ar    1  UNL1        0.0407
      6 N           0.8780   -0.5779    0.3406 N.pl3   1  UNL1       -0.2833
      7 C          -0.1351    0.3922    0.1596 C.ar    1  UNL1        0.2212
      8 N          -1.3858    0.1332    0.5119 N.ar    1  UNL1       -0.1992
      9 C          -2.4171    0.9784    0.3788 C.ar    1  UNL1        0.1281
     10 N          -3.6678    0.5246    0.8076 N.pl3   1  UNL1       -0.2952
     11 C          -4.8714   -0.1522    0.6046 C.ar    1  UNL1        0.0970
     12 C          -4.8178   -1.4968    0.9874 C.ar    1  UNL1        0.0659
     13 CL         -3.3680   -2.2462    1.6660 Cl      1  UNL1       -0.0815
     14 C          -5.9231   -2.3156    0.8479 C.ar    1  UNL1       -0.0379
     15 C          -7.0351   -1.7187    0.3216 C.ar    1  UNL1       -0.0146
     16 C          -7.1365   -0.3931   -0.0715 C.ar    1  UNL1        0.1682
     17 C          -6.0197    0.4013    0.0785 C.ar    1  UNL1        0.1887
     18 O          -6.2755    1.6967   -0.3567 O.3     1  UNL1       -0.4507
     19 C          -7.6183    1.6869   -0.8080 C.3     1  UNL1        0.2333
     20 O          -8.1352    0.4036   -0.6152 O.3     1  UNL1       -0.4525
     21 C          -2.1938    2.2227   -0.1635 C.ar    1  UNL1       -0.0033
     22 C          -0.9025    2.5135   -0.5363 C.ar    1  UNL1        0.0344
     23 N           0.0597    1.6024   -0.3631 N.ar    1  UNL1       -0.2225
     24 C           2.9049    0.5885   -0.5012 C.ar    1  UNL1        0.0052
     25 C           4.2402    0.6583   -0.8000 C.ar    1  UNL1        0.1669
     26 O           4.8257    1.7904   -1.3341 O.3     1  UNL1       -0.4913
     27 C           4.1735    2.9848   -1.6375 C.3     1  UNL1        0.0790
     28 C           5.0201   -0.4452   -0.5563 C.ar    1  UNL1        0.2036
     29 O           6.3781   -0.4021   -0.8504 O.3     1  UNL1       -0.4885
     30 C           7.2865    0.0321    0.1316 C.3     1  UNL1        0.0791
     31 H           4.3273   -3.7412    1.8364 H       1  UNL1        0.0660
     32 H           5.4358   -4.6445    0.7329 H       1  UNL1        0.0660
     33 H           3.7980   -4.1757    0.1080 H       1  UNL1        0.0660
     34 H           2.6893   -2.4928    0.6704 H       1  UNL1        0.0674
     35 H           0.5691   -1.5005    0.7725 H       1  UNL1        0.1550
     36 H          -3.6815    0.9007    1.8031 H       1  UNL1        0.1537
     37 H          -5.9166   -3.3638    1.1348 H       1  UNL1        0.0634
     38 H          -7.9262   -2.3052    0.1889 H       1  UNL1        0.0656
     39 H          -8.2000    2.4527   -0.2455 H       1  UNL1        0.1166
     40 H          -7.7065    1.9248   -1.8935 H       1  UNL1        0.1166
     41 H          -3.0126    2.9175   -0.2786 H       1  UNL1        0.0667
     42 H          -0.6808    3.4964   -0.9734 H       1  UNL1        0.0832
     43 H           2.3501    1.4853   -0.7160 H       1  UNL1        0.0674
     44 H           4.8988    3.6772   -2.1107 H       1  UNL1        0.0660
     45 H           3.2573    2.8185   -2.2529 H       1  UNL1        0.0660
     46 H           3.8321    3.4687   -0.6882 H       1  UNL1        0.0660
     47 H           7.4045   -0.7834    0.8731 H       1  UNL1        0.0660
     48 H           6.8342    0.9066    0.6390 H       1  UNL1        0.0660
     49 H           8.2486    0.2736   -0.3693 H       1  UNL1        0.0660
@<TRIPOS>BOND
     1     1     2    1
     2     2     3    1
     3     3     4   ar
     4     4     5   ar
     5     5     6    1
     6     6     7    1
     7     7     8   ar
     8     8     9   ar
     9     9    10    1
    10    10    11    1
    11    11    12   ar
    12    12    13    1
    13    12    14   ar
    14    14    15   ar
    15    15    16   ar
    16    16    17   ar
    17    17    18    1
    18    18    19    1
    19    19    20    1
    20     9    21   ar
    21    21    22   ar
    22    22    23   ar
    23     5    24   ar
    24    24    25   ar
    25    25    26    1
    26    26    27    1
    27    25    28   ar
    28    28    29    1
    29    29    30    1
    30    28     3   ar
    31    23     7   ar
    32    17    11   ar
    33    20    16    1
    34     1    31    1
    35     1    32    1
    36     1    33    1
    37     4    34    1
    38     6    35    1
    39    10    36    1
    40    14    37    1
    41    15    38    1
    42    19    39    1
    43    19    40    1
    44    21    41    1
    45    22    42    1
    46    24    43    1
    47    27    44    1
    48    27    45    1
    49    27    46    1
    50    30    47    1
    51    30    48    1
    52    30    49    1
