@<TRIPOS>MOLECULE
*****
 63 69 0 0 0
SMALL
GASTEIGER

@<TRIPOS>ATOM
      1 C          -4.2655   -3.5568   -2.3166 C.3     1  UNL1        0.0124
      2 C          -4.9126   -2.3277   -1.7686 C.2     1  UNL1        0.2126
      3 O          -6.1309   -2.3669   -1.4598 O.2     1  UNL1       -0.2759
      4 N          -4.1751   -1.1476   -1.6002 N.am    1  UNL1       -0.2977
      5 C          -2.8038   -0.7507   -1.8394 C.3     1  UNL1        0.0370
      6 C          -3.0073    0.5311   -1.0613 C.3     1  UNL1        0.0657
      7 N          -2.3971    0.5066    0.2586 N.ar    1  UNL1       -0.3417
      8 C          -3.0504    0.6708    1.4126 C.ar    1  UNL1        0.0095
      9 C          -2.1746    0.5909    2.4739 C.ar    1  UNL1       -0.0143
     10 C          -2.5333    0.7236    3.8806 C.3     1  UNL1       -0.0137
     11 C          -2.9112   -0.4305    4.7252 C.3     1  UNL1       -0.0456
     12 C          -3.9942    0.4039    4.1992 C.3     1  UNL1       -0.0456
     13 C          -0.9412    0.3681    1.9166 C.ar    1  UNL1        0.0636
     14 C          -1.0956    0.3188    0.5506 C.ar    1  UNL1        0.0571
     15 C           0.2050    0.0805   -0.1060 C.3     1  UNL1        0.0986
     16 C           0.5681    1.2176   -1.0118 C.ar    1  UNL1       -0.0207
     17 C           0.5354    1.0654   -2.3821 C.ar    1  UNL1       -0.0550
     18 C           0.8712    2.1164   -3.2336 C.ar    1  UNL1       -0.0431
     19 C           1.2411    3.3243   -2.7137 C.ar    1  UNL1        0.0410
     20 CL          1.6743    4.6833   -3.7275 Cl      1  UNL1       -0.0835
     21 C           1.2794    3.4941   -1.3517 C.ar    1  UNL1       -0.0431
     22 C           0.9435    2.4417   -0.5235 C.ar    1  UNL1       -0.0550
     23 N           1.1902   -0.0160    0.9831 N.am    1  UNL1       -0.2388
     24 C           2.5799   -0.2455    0.7750 C.ar    1  UNL1        0.1313
     25 C           3.4683   -0.3295    1.8175 C.ar    1  UNL1       -0.0161
     26 C           4.8299   -0.5558    1.5886 C.ar    1  UNL1       -0.0164
     27 C           5.8009   -0.6489    2.7041 C.3     1  UNL1       -0.0374
     28 C           5.2223   -0.6871    0.2854 C.ar    1  UNL1        0.1345
     29 N           6.4300   -0.9076   -0.2871 N.ar    1  UNL1       -0.1276
     30 N           6.2775   -0.9544   -1.6135 N.ar    1  UNL1       -0.0635
     31 N           5.0169   -0.7731   -1.9287 N.ar    1  UNL1       -0.2297
     32 C           4.4658   -0.7581   -3.2697 C.3     1  UNL1        0.0341
     33 C           4.3310   -0.6037   -0.7767 C.ar    1  UNL1        0.1803
     34 N           3.0544   -0.3873   -0.4833 N.ar    1  UNL1       -0.2108
     35 C           0.4711    0.1618    2.1942 C.2     1  UNL1        0.2548
     36 O           0.9462    0.1503    3.3618 O.2     1  UNL1       -0.2695
     37 C          -4.4592    0.1920   -1.1139 C.3     1  UNL1        0.0370
     38 H          -4.8680   -4.4443   -1.9792 H       1  UNL1        0.0323
     39 H          -3.2122   -3.6554   -2.0069 H       1  UNL1        0.0323
     40 H          -4.3631   -3.5043   -3.4299 H       1  UNL1        0.0323
     41 H          -2.6218   -0.5163   -2.9094 H       1  UNL1        0.0485
     42 H          -2.0934   -1.4581   -1.3708 H       1  UNL1        0.0485
     43 H          -2.6905    1.4373   -1.6073 H       1  UNL1        0.0559
     44 H          -4.1117    0.8420    1.5102 H       1  UNL1        0.0812
     45 H          -2.1294    1.6272    4.3801 H       1  UNL1        0.0349
     46 H          -2.8180   -1.4751    4.3656 H       1  UNL1        0.0271
     47 H          -2.6755   -0.3353    5.8060 H       1  UNL1        0.0271
     48 H          -4.6194   -0.0381    3.4008 H       1  UNL1        0.0271
     49 H          -4.5397    1.1363    4.8316 H       1  UNL1        0.0271
     50 H           0.2222   -0.8419   -0.7180 H       1  UNL1        0.0620
     51 H           0.2510    0.1342   -2.8507 H       1  UNL1        0.0621
     52 H           0.8495    2.0101   -4.3040 H       1  UNL1        0.0632
     53 H           1.5739    4.4557   -0.9365 H       1  UNL1        0.0632
     54 H           0.9736    2.5753    0.5495 H       1  UNL1        0.0621
     55 H           3.1432   -0.2235    2.8460 H       1  UNL1        0.0655
     56 H           5.8241   -1.7112    3.0486 H       1  UNL1        0.0278
     57 H           5.5762    0.0420    3.5360 H       1  UNL1        0.0278
     58 H           6.8019   -0.3323    2.3091 H       1  UNL1        0.0278
     59 H           4.9699   -0.0048   -3.9144 H       1  UNL1        0.0474
     60 H           4.6094   -1.7405   -3.7918 H       1  UNL1        0.0474
     61 H           3.3874   -0.5315   -3.2671 H       1  UNL1        0.0474
     62 H          -4.9770    0.8238   -1.8774 H       1  UNL1        0.0485
     63 H          -5.0127    0.1351   -0.1780 H       1  UNL1        0.0485
@<TRIPOS>BOND
     1     1     2    1
     2     2     3    2
     3     2     4   am
     4     4     5    1
     5     5     6    1
     6     6     7    1
     7     7     8   ar
     8     8     9   ar
     9     9    10    1
    10    10    11    1
    11    11    12    1
    12     9    13   ar
    13    13    14   ar
    14    14    15    1
    15    15    16    1
    16    16    17   ar
    17    17    18   ar
    18    18    19   ar
    19    19    20    1
    20    19    21   ar
    21    21    22   ar
    22    15    23    1
    23    23    24    1
    24    24    25   ar
    25    25    26   ar
    26    26    27    1
    27    26    28   ar
    28    28    29   ar
    29    29    30   ar
    30    30    31   ar
    31    31    32    1
    32    31    33   ar
    33    33    34   ar
    34    23    35   am
    35    35    36    2
    36     6    37    1
    37    37     4    1
    38    14     7   ar
    39    22    16   ar
    40    34    24   ar
    41    12    10    1
    42    35    13    1
    43    33    28   ar
    44     1    38    1
    45     1    39    1
    46     1    40    1
    47     5    41    1
    48     5    42    1
    49     6    43    1
    50     8    44    1
    51    10    45    1
    52    11    46    1
    53    11    47    1
    54    12    48    1
    55    12    49    1
    56    15    50    1
    57    17    51    1
    58    18    52    1
    59    21    53    1
    60    22    54    1
    61    25    55    1
    62    27    56    1
    63    27    57    1
    64    27    58    1
    65    32    59    1
    66    32    60    1
    67    32    61    1
    68    37    62    1
    69    37    63    1
