
     RDKit          3D

 42 45  0  0  0  0  0  0  0  0999 V2000
   -5.1055    2.8443    0.7911 N   0  0  0  0  0  0  0  0  0  0  0  0
   -4.4894    1.7084    0.2343 C   0  0  0  0  0  0  0  0  0  0  0  0
   -3.5124    1.1740    0.8572 N   0  0  0  0  0  0  0  0  0  0  0  0
   -2.8246    0.0032    0.3569 C   0  0  1  0  0  0  0  0  0  0  0  0
   -1.5178   -0.0500    1.0129 C   0  0  0  0  0  0  0  0  0  0  0  0
   -0.3492   -0.1168    0.2923 C   0  0  0  0  0  0  0  0  0  0  0  0
    0.9213   -0.2190    0.8964 C   0  0  0  0  0  0  0  0  0  0  0  0
    2.0708   -0.2807    0.0645 N   0  0  0  0  0  0  0  0  0  0  0  0
    3.4153   -0.3852    0.4661 C   0  0  0  0  0  0  0  0  0  0  0  0
    3.6755   -0.4327    1.6930 O   0  0  0  0  0  0  0  0  0  0  0  0
    4.5058   -0.4395   -0.4973 C   0  0  0  0  0  0  0  0  0  0  0  0
    4.2829   -0.3925   -1.8114 N   0  0  0  0  0  0  0  0  0  0  0  0
    5.3100   -0.4438   -2.7115 C   0  0  0  0  0  0  0  0  0  0  0  0
    6.6098   -0.5461   -2.2752 C   0  0  0  0  0  0  0  0  0  0  0  0
    7.9738   -0.6167   -3.3650 Cl  0  0  0  0  0  0  0  0  0  0  0  0
    6.8773   -0.5972   -0.9183 C   0  0  0  0  0  0  0  0  0  0  0  0
    5.7904   -0.5411   -0.0446 C   0  0  0  0  0  0  0  0  0  0  0  0
    6.1919   -0.6102    1.6717 Cl  0  0  0  0  0  0  0  0  0  0  0  0
    0.9218   -0.2491    2.2641 C   0  0  0  0  0  0  0  0  0  0  0  0
   -0.2564   -0.1830    3.0232 C   0  0  0  0  0  0  0  0  0  0  0  0
   -1.4719   -0.0834    2.3973 C   0  0  0  0  0  0  0  0  0  0  0  0
   -2.6439    0.0020    3.0471 F   0  0  0  0  0  0  0  0  0  0  0  0
   -3.6613   -1.2035    0.6265 C   0  0  0  0  0  0  0  0  0  0  0  0
   -3.0476   -2.3708    0.1682 F   0  0  0  0  0  0  0  0  0  0  0  0
   -4.8931   -1.1917    0.0543 F   0  0  0  0  0  0  0  0  0  0  0  0
   -2.6034    0.2594   -1.1194 C   0  0  1  0  0  0  0  0  0  0  0  0
   -3.2768   -0.5352   -2.1411 C   0  0  0  0  0  0  0  0  0  0  0  0
   -3.8371    0.7738   -1.8448 C   0  0  1  0  0  0  0  0  0  0  0  0
   -4.8627    1.1022   -0.9698 O   0  0  0  0  0  0  0  0  0  0  0  0
   -5.9487    2.7409    1.3704 H   0  0  0  0  0  0  0  0  0  0  0  0
   -4.7105    3.7820    0.6177 H   0  0  0  0  0  0  0  0  0  0  0  0
   -0.3114   -0.1169   -0.7871 H   0  0  0  0  0  0  0  0  0  0  0  0
    1.9571   -0.2472   -1.0035 H   0  0  0  0  0  0  0  0  0  0  0  0
    5.1408   -0.4067   -3.7727 H   0  0  0  0  0  0  0  0  0  0  0  0
    7.8828   -0.6768   -0.5614 H   0  0  0  0  0  0  0  0  0  0  0  0
    1.8512   -0.3263    2.8043 H   0  0  0  0  0  0  0  0  0  0  0  0
   -0.2273   -0.2090    4.0988 H   0  0  0  0  0  0  0  0  0  0  0  0
   -3.8678   -1.2598    1.7119 H   0  0  0  0  0  0  0  0  0  0  0  0
   -1.7294    0.8757   -1.4029 H   0  0  0  0  0  0  0  0  0  0  0  0
   -3.7905   -1.5039   -1.9230 H   0  0  0  0  0  0  0  0  0  0  0  0
   -2.7369   -0.6237   -3.1311 H   0  0  0  0  0  0  0  0  0  0  0  0
   -3.7027    1.5925   -2.6260 H   0  0  0  0  0  0  0  0  0  0  0  0
  1  2  1  0
  2  3  2  0
  3  4  1  0
  4  5  1  0
  5  6  2  0
  6  7  1  0
  7  8  1  0
  8  9  1  0
  9 10  2  0
  9 11  1  0
 11 12  2  0
 12 13  1  0
 13 14  2  0
 14 15  1  0
 14 16  1  0
 16 17  2  0
 17 18  1  0
  7 19  2  0
 19 20  1  0
 20 21  2  0
 21 22  1  0
  4 23  1  6
 23 24  1  0
 23 25  1  0
  4 26  1  0
 26 27  1  0
 27 28  1  0
 28 29  1  0
 29  2  1  0
 21  5  1  0
 28 26  1  0
 17 11  1  0
  1 30  1  0
  1 31  1  0
  6 32  1  0
  8 33  1  0
 13 34  1  0
 16 35  1  0
 19 36  1  0
 20 37  1  0
 23 38  1  0
 26 39  1  1
 27 40  1  0
 27 41  1  0
 28 42  1  6
M  END
$$$$
