@<TRIPOS>MOLECULE
*****
 42 45 0 0 0
SMALL
GASTEIGER

@<TRIPOS>ATOM
      1 N          -5.1055    2.8443    0.7911 N.pl3   1  UNL1       -0.3134
      2 C          -4.4894    1.7084    0.2343 C.2     1  UNL1        0.2764
      3 N          -3.5124    1.1740    0.8572 N.2     1  UNL1       -0.2194
      4 C          -2.8246    0.0032    0.3569 C.3     1  UNL1        0.1603
      5 C          -1.5178   -0.0500    1.0129 C.ar    1  UNL1        0.0228
      6 C          -0.3492   -0.1168    0.2923 C.ar    1  UNL1       -0.0321
      7 C           0.9213   -0.2190    0.8964 C.ar    1  UNL1        0.0342
      8 N           2.0708   -0.2807    0.0645 N.am    1  UNL1       -0.2802
      9 C           3.4153   -0.3852    0.4661 C.2     1  UNL1        0.2680
     10 O           3.6755   -0.4327    1.6930 O.2     1  UNL1       -0.2681
     11 C           4.5058   -0.4395   -0.4973 C.ar    1  UNL1        0.1439
     12 N           4.2829   -0.3925   -1.8114 N.ar    1  UNL1       -0.2474
     13 C           5.3100   -0.4438   -2.7115 C.ar    1  UNL1        0.0468
     14 C           6.6098   -0.5461   -2.2752 C.ar    1  UNL1        0.0605
     15 CL          7.9738   -0.6167   -3.3650 Cl      1  UNL1       -0.0819
     16 C           6.8773   -0.5972   -0.9183 C.ar    1  UNL1       -0.0213
     17 C           5.7904   -0.5411   -0.0446 C.ar    1  UNL1        0.0728
     18 CL          6.1919   -0.6102    1.6717 Cl      1  UNL1       -0.0811
     19 C           0.9218   -0.2491    2.2641 C.ar    1  UNL1       -0.0377
     20 C          -0.2564   -0.1830    3.0232 C.ar    1  UNL1       -0.0243
     21 C          -1.4719   -0.0834    2.3973 C.ar    1  UNL1        0.1292
     22 F          -2.6439    0.0020    3.0471 F       1  UNL1       -0.2051
     23 C          -3.6613   -1.2035    0.6265 C.3     1  UNL1        0.2686
     24 F          -3.0476   -2.3708    0.1682 F       1  UNL1       -0.2062
     25 F          -4.8931   -1.1917    0.0543 F       1  UNL1       -0.2062
     26 C          -2.6034    0.2594   -1.1194 C.3     1  UNL1        0.0344
     27 C          -3.2768   -0.5352   -2.1411 C.3     1  UNL1       -0.0064
     28 C          -3.8371    0.7738   -1.8448 C.3     1  UNL1        0.1091
     29 O          -4.8627    1.1022   -0.9698 O.2     1  UNL1       -0.4622
     30 H          -5.9487    2.7409    1.3704 H       1  UNL1        0.1466
     31 H          -4.7105    3.7820    0.6177 H       1  UNL1        0.1466
     32 H          -0.3114   -0.1169   -0.7871 H       1  UNL1        0.0640
     33 H           1.9571   -0.2472   -1.0035 H       1  UNL1        0.1552
     34 H           5.1408   -0.4067   -3.7727 H       1  UNL1        0.0844
     35 H           7.8828   -0.6768   -0.5614 H       1  UNL1        0.0648
     36 H           1.8512   -0.3263    2.8043 H       1  UNL1        0.0637
     37 H          -0.2273   -0.2090    4.0988 H       1  UNL1        0.0647
     38 H          -3.8678   -1.2598    1.7119 H       1  UNL1        0.1047
     39 H          -1.7294    0.8757   -1.4029 H       1  UNL1        0.0366
     40 H          -3.7905   -1.5039   -1.9230 H       1  UNL1        0.0306
     41 H          -2.7369   -0.6237   -3.1311 H       1  UNL1        0.0306
     42 H          -3.7027    1.5925   -2.6260 H       1  UNL1        0.0737
@<TRIPOS>BOND
     1     1     2    1
     2     2     3    2
     3     3     4    1
     4     4     5    1
     5     5     6   ar
     6     6     7   ar
     7     7     8    1
     8     8     9   am
     9     9    10    2
    10     9    11    1
    11    11    12   ar
    12    12    13   ar
    13    13    14   ar
    14    14    15    1
    15    14    16   ar
    16    16    17   ar
    17    17    18    1
    18     7    19   ar
    19    19    20   ar
    20    20    21   ar
    21    21    22    1
    22     4    23    1
    23    23    24    1
    24    23    25    1
    25     4    26    1
    26    26    27    1
    27    27    28    1
    28    28    29    1
    29    29     2    1
    30    21     5   ar
    31    28    26    1
    32    17    11   ar
    33     1    30    1
    34     1    31    1
    35     6    32    1
    36     8    33    1
    37    13    34    1
    38    16    35    1
    39    19    36    1
    40    20    37    1
    41    23    38    1
    42    26    39    1
    43    27    40    1
    44    27    41    1
    45    28    42    1
