
     RDKit          3D

 61 64  0  0  0  0  0  0  0  0999 V2000
    8.8729   -2.2854    0.1328 C   0  0  0  0  0  0  0  0  0  0  0  0
    8.6155   -1.0215   -0.6410 C   0  0  0  0  0  0  0  0  0  0  0  0
    7.2221   -0.8020   -0.9334 N   0  0  0  0  0  0  0  0  0  0  0  0
    6.5570   -1.2664   -2.0965 C   0  0  0  0  0  0  0  0  0  0  0  0
    7.0538   -1.8055   -3.1137 O   0  0  0  0  0  0  0  0  0  0  0  0
    5.1159   -0.9974   -1.9014 C   0  0  0  0  0  0  0  0  0  0  0  0
    5.0288   -0.1037   -0.7609 N   0  0  0  0  0  0  0  0  0  0  0  0
    3.8705    0.6310   -0.3645 C   0  0  0  0  0  0  0  0  0  0  0  0
    3.8286    1.4695    0.7189 C   0  0  0  0  0  0  0  0  0  0  0  0
    2.6775    2.1503    1.0494 C   0  0  0  0  0  0  0  0  0  0  0  0
    1.5100    2.0447    0.3376 C   0  0  0  0  0  0  0  0  0  0  0  0
    0.2607    2.7511    0.6827 C   0  0  0  0  0  0  0  0  0  0  0  0
   -0.7905    1.9231    1.2735 C   0  0  0  0  0  0  0  0  0  0  0  0
   -1.8515    1.5131    0.4491 C   0  0  0  0  0  0  0  0  0  0  0  0
   -2.8851    0.7248    0.9012 C   0  0  0  0  0  0  0  0  0  0  0  0
   -4.0030    0.2971    0.0183 C   0  0  2  0  0  0  0  0  0  0  0  0
   -5.2019    0.4762    0.7208 O   0  0  0  0  0  0  0  0  0  0  0  0
   -6.3063    0.2654   -0.0903 C   0  0  2  0  0  0  0  0  0  0  0  0
   -7.5457    0.3918    0.7700 C   0  0  0  0  0  0  0  0  0  0  0  0
   -7.6031    1.6815    1.3427 O   0  0  0  0  0  0  0  0  0  0  0  0
   -6.3232   -1.1100   -0.7230 C   0  0  1  0  0  0  0  0  0  0  0  0
   -7.3108   -1.0517   -1.7258 O   0  0  0  0  0  0  0  0  0  0  0  0
   -4.9992   -1.5069   -1.2906 C   0  0  2  0  0  0  0  0  0  0  0  0
   -5.0059   -2.8892   -1.5143 O   0  0  0  0  0  0  0  0  0  0  0  0
   -3.9145   -1.1789   -0.2949 C   0  0  1  0  0  0  0  0  0  0  0  0
   -2.6769   -1.5182   -0.8381 O   0  0  0  0  0  0  0  0  0  0  0  0
   -2.8202    0.3530    2.2323 C   0  0  0  0  0  0  0  0  0  0  0  0
   -1.7909    0.7441    3.0545 C   0  0  0  0  0  0  0  0  0  0  0  0
   -0.7568    1.5382    2.5854 C   0  0  0  0  0  0  0  0  0  0  0  0
    0.5438    2.0302    3.6837 Cl  0  0  0  0  0  0  0  0  0  0  0  0
    1.5553    1.1966   -0.7575 C   0  0  0  0  0  0  0  0  0  0  0  0
    2.6908    0.5081   -1.1065 C   0  0  0  0  0  0  0  0  0  0  0  0
    6.2912   -0.0951   -0.1218 C   0  0  0  0  0  0  0  0  0  0  0  0
    6.6348    0.4231    0.9797 O   0  0  0  0  0  0  0  0  0  0  0  0
    7.9916   -2.9226    0.2225 H   0  0  0  0  0  0  0  0  0  0  0  0
    9.6980   -2.8949   -0.3157 H   0  0  0  0  0  0  0  0  0  0  0  0
    9.2278   -2.0463    1.1721 H   0  0  0  0  0  0  0  0  0  0  0  0
    8.9991   -0.1524   -0.0537 H   0  0  0  0  0  0  0  0  0  0  0  0
    9.2253   -1.0693   -1.5668 H   0  0  0  0  0  0  0  0  0  0  0  0
    4.7538   -0.4552   -2.8050 H   0  0  0  0  0  0  0  0  0  0  0  0
    4.5733   -1.9233   -1.7137 H   0  0  0  0  0  0  0  0  0  0  0  0
    4.7094    1.6004    1.3238 H   0  0  0  0  0  0  0  0  0  0  0  0
    2.7286    2.7973    1.9031 H   0  0  0  0  0  0  0  0  0  0  0  0
   -0.1548    3.2852   -0.2231 H   0  0  0  0  0  0  0  0  0  0  0  0
    0.4559    3.5992    1.4025 H   0  0  0  0  0  0  0  0  0  0  0  0
   -1.8608    1.8342   -0.6033 H   0  0  0  0  0  0  0  0  0  0  0  0
   -3.9894    0.8961   -0.9041 H   0  0  0  0  0  0  0  0  0  0  0  0
   -6.3956    1.0406   -0.8963 H   0  0  0  0  0  0  0  0  0  0  0  0
   -8.4830    0.2924    0.1853 H   0  0  0  0  0  0  0  0  0  0  0  0
   -7.5161   -0.3133    1.6287 H   0  0  0  0  0  0  0  0  0  0  0  0
   -6.6725    1.8642    1.6553 H   0  0  0  0  0  0  0  0  0  0  0  0
   -6.7020   -1.8089    0.0414 H   0  0  0  0  0  0  0  0  0  0  0  0
   -7.5363   -1.9219   -2.1015 H   0  0  0  0  0  0  0  0  0  0  0  0
   -4.8235   -0.9401   -2.2266 H   0  0  0  0  0  0  0  0  0  0  0  0
   -5.9431   -3.1330   -1.7203 H   0  0  0  0  0  0  0  0  0  0  0  0
   -4.1208   -1.7589    0.6398 H   0  0  0  0  0  0  0  0  0  0  0  0
   -2.7083   -2.4740   -1.0786 H   0  0  0  0  0  0  0  0  0  0  0  0
   -3.6446   -0.2749    2.5912 H   0  0  0  0  0  0  0  0  0  0  0  0
   -1.7487    0.4492    4.0922 H   0  0  0  0  0  0  0  0  0  0  0  0
    0.6585    1.0839   -1.3466 H   0  0  0  0  0  0  0  0  0  0  0  0
    2.7348   -0.1574   -1.9614 H   0  0  0  0  0  0  0  0  0  0  0  0
  1  2  1  0
  2  3  1  0
  3  4  1  0
  4  5  2  0
  4  6  1  0
  6  7  1  0
  7  8  1  0
  8  9  2  0
  9 10  1  0
 10 11  2  0
 11 12  1  0
 12 13  1  0
 13 14  2  0
 14 15  1  0
 15 16  1  0
 16 17  1  0
 17 18  1  0
 18 19  1  0
 19 20  1  0
 18 21  1  0
 21 22  1  0
 21 23  1  0
 23 24  1  0
 23 25  1  0
 25 26  1  0
 15 27  2  0
 27 28  1  0
 28 29  2  0
 29 30  1  0
 11 31  1  0
 31 32  2  0
  7 33  1  0
 33 34  2  0
 33  3  1  0
 32  8  1  0
 29 13  1  0
 25 16  1  0
  1 35  1  0
  1 36  1  0
  1 37  1  0
  2 38  1  0
  2 39  1  0
  6 40  1  0
  6 41  1  0
  9 42  1  0
 10 43  1  0
 12 44  1  0
 12 45  1  0
 14 46  1  0
 16 47  1  6
 18 48  1  6
 19 49  1  0
 19 50  1  0
 20 51  1  0
 21 52  1  1
 22 53  1  0
 23 54  1  6
 24 55  1  0
 25 56  1  1
 26 57  1  0
 27 58  1  0
 28 59  1  0
 31 60  1  0
 32 61  1  0
M  END
$$$$
