@<TRIPOS>MOLECULE
*****
 61 64 0 0 0
SMALL
GASTEIGER

@<TRIPOS>ATOM
      1 C           8.8729   -2.2854    0.1328 C.3     1  UNL1       -0.0488
      2 C           8.6155   -1.0215   -0.6410 C.3     1  UNL1        0.0210
      3 N           7.2221   -0.8020   -0.9334 N.am    1  UNL1       -0.2245
      4 C           6.5570   -1.2664   -2.0965 C.2     1  UNL1        0.2408
      5 O           7.0538   -1.8055   -3.1137 O.2     1  UNL1       -0.2734
      6 C           5.1159   -0.9974   -1.9014 C.3     1  UNL1        0.0982
      7 N           5.0288   -0.1037   -0.7609 N.am    1  UNL1       -0.2462
      8 C           3.8705    0.6310   -0.3645 C.ar    1  UNL1        0.0383
      9 C           3.8286    1.4695    0.7189 C.ar    1  UNL1       -0.0399
     10 C           2.6775    2.1503    1.0494 C.ar    1  UNL1       -0.0565
     11 C           1.5100    2.0447    0.3376 C.ar    1  UNL1       -0.0429
     12 C           0.2607    2.7511    0.6827 C.3     1  UNL1       -0.0010
     13 C          -0.7905    1.9231    1.2735 C.ar    1  UNL1       -0.0244
     14 C          -1.8515    1.5131    0.4491 C.ar    1  UNL1       -0.0512
     15 C          -2.8851    0.7248    0.9012 C.ar    1  UNL1       -0.0160
     16 C          -4.0030    0.2971    0.0183 C.3     1  UNL1        0.1125
     17 O          -5.2019    0.4762    0.7208 O.3     1  UNL1       -0.3612
     18 C          -6.3063    0.2654   -0.0903 C.3     1  UNL1        0.1108
     19 C          -7.5457    0.3918    0.7700 C.3     1  UNL1        0.0729
     20 O          -7.6031    1.6815    1.3427 O.3     1  UNL1       -0.3924
     21 C          -6.3232   -1.1100   -0.7230 C.3     1  UNL1        0.1117
     22 O          -7.3108   -1.0517   -1.7258 O.3     1  UNL1       -0.3865
     23 C          -4.9992   -1.5069   -1.2906 C.3     1  UNL1        0.1121
     24 O          -5.0059   -2.8892   -1.5143 O.3     1  UNL1       -0.3865
     25 C          -3.9145   -1.1789   -0.2949 C.3     1  UNL1        0.1137
     26 O          -2.6769   -1.5182   -0.8381 O.3     1  UNL1       -0.3862
     27 C          -2.8202    0.3530    2.2323 C.ar    1  UNL1       -0.0546
     28 C          -1.7909    0.7441    3.0545 C.ar    1  UNL1       -0.0428
     29 C          -0.7568    1.5382    2.5854 C.ar    1  UNL1        0.0445
     30 CL          0.5438    2.0302    3.6837 Cl      1  UNL1       -0.0832
     31 C           1.5553    1.1966   -0.7575 C.ar    1  UNL1       -0.0565
     32 C           2.6908    0.5081   -1.1065 C.ar    1  UNL1       -0.0399
     33 C           6.2912   -0.0951   -0.1218 C.2     1  UNL1        0.3158
     34 O           6.6348    0.4231    0.9797 O.2     1  UNL1       -0.2516
     35 H           7.9916   -2.9226    0.2225 H       1  UNL1        0.0245
     36 H           9.6980   -2.8949   -0.3157 H       1  UNL1        0.0245
     37 H           9.2278   -2.0463    1.1721 H       1  UNL1        0.0245
     38 H           8.9991   -0.1524   -0.0537 H       1  UNL1        0.0467
     39 H           9.2253   -1.0693   -1.5668 H       1  UNL1        0.0467
     40 H           4.7538   -0.4552   -2.8050 H       1  UNL1        0.0565
     41 H           4.5733   -1.9233   -1.7137 H       1  UNL1        0.0565
     42 H           4.7094    1.6004    1.3238 H       1  UNL1        0.0636
     43 H           2.7286    2.7973    1.9031 H       1  UNL1        0.0621
     44 H          -0.1548    3.2852   -0.2231 H       1  UNL1        0.0362
     45 H           0.4559    3.5992    1.4025 H       1  UNL1        0.0362
     46 H          -1.8608    1.8342   -0.6033 H       1  UNL1        0.0624
     47 H          -3.9894    0.8961   -0.9041 H       1  UNL1        0.0673
     48 H          -6.3956    1.0406   -0.8963 H       1  UNL1        0.0646
     49 H          -8.4830    0.2924    0.1853 H       1  UNL1        0.0584
     50 H          -7.5161   -0.3133    1.6287 H       1  UNL1        0.0584
     51 H          -6.6725    1.8642    1.6553 H       1  UNL1        0.2095
     52 H          -6.7020   -1.8089    0.0414 H       1  UNL1        0.0647
     53 H          -7.5363   -1.9219   -2.1015 H       1  UNL1        0.2100
     54 H          -4.8235   -0.9401   -2.2266 H       1  UNL1        0.0647
     55 H          -5.9431   -3.1330   -1.7203 H       1  UNL1        0.2100
     56 H          -4.1208   -1.7589    0.6398 H       1  UNL1        0.0649
     57 H          -2.7083   -2.4740   -1.0786 H       1  UNL1        0.2100
     58 H          -3.6446   -0.2749    2.5912 H       1  UNL1        0.0622
     59 H          -1.7487    0.4492    4.0922 H       1  UNL1        0.0632
     60 H           0.6585    1.0839   -1.3466 H       1  UNL1        0.0621
     61 H           2.7348   -0.1574   -1.9614 H       1  UNL1        0.0636
@<TRIPOS>BOND
     1     1     2    1
     2     2     3    1
     3     3     4   am
     4     4     5    2
     5     4     6    1
     6     6     7    1
     7     7     8    1
     8     8     9   ar
     9     9    10   ar
    10    10    11   ar
    11    11    12    1
    12    12    13    1
    13    13    14   ar
    14    14    15   ar
    15    15    16    1
    16    16    17    1
    17    17    18    1
    18    18    19    1
    19    19    20    1
    20    18    21    1
    21    21    22    1
    22    21    23    1
    23    23    24    1
    24    23    25    1
    25    25    26    1
    26    15    27   ar
    27    27    28   ar
    28    28    29   ar
    29    29    30    1
    30    11    31   ar
    31    31    32   ar
    32     7    33   am
    33    33    34    2
    34    33     3   am
    35    32     8   ar
    36    29    13   ar
    37    25    16    1
    38     1    35    1
    39     1    36    1
    40     1    37    1
    41     2    38    1
    42     2    39    1
    43     6    40    1
    44     6    41    1
    45     9    42    1
    46    10    43    1
    47    12    44    1
    48    12    45    1
    49    14    46    1
    50    16    47    1
    51    18    48    1
    52    19    49    1
    53    19    50    1
    54    20    51    1
    55    21    52    1
    56    22    53    1
    57    23    54    1
    58    24    55    1
    59    25    56    1
    60    26    57    1
    61    27    58    1
    62    28    59    1
    63    31    60    1
    64    32    61    1
