
     RDKit          3D

 32 34  0  0  0  0  0  0  0  0999 V2000
   -4.5664    0.1895    1.5923 C   0  0  0  0  0  0  0  0  0  0  0  0
   -3.4557    0.0001    0.6185 C   0  0  0  0  0  0  0  0  0  0  0  0
   -3.5283   -0.9191   -0.3963 C   0  0  0  0  0  0  0  0  0  0  0  0
   -2.4914   -1.0789   -1.2856 C   0  0  0  0  0  0  0  0  0  0  0  0
   -1.3532   -0.3178   -1.1776 C   0  0  0  0  0  0  0  0  0  0  0  0
   -0.3342   -0.4812   -2.0609 O   0  0  0  0  0  0  0  0  0  0  0  0
    0.8967    0.1376   -2.0493 C   0  0  0  0  0  0  0  0  0  0  0  0
    1.2228    0.9334   -3.1201 C   0  0  0  0  0  0  0  0  0  0  0  0
    2.3614    1.5849   -3.2445 N   0  0  0  0  0  0  0  0  0  0  0  0
    3.2644    1.4666   -2.2643 C   0  0  0  0  0  0  0  0  0  0  0  0
    2.9758    0.6631   -1.1487 C   0  0  0  0  0  0  0  0  0  0  0  0
    3.8792    0.2530    0.3136 S   0  0  0  0  0  0  0  0  0  0  0  0
    2.6692   -0.7965    1.0459 C   0  0  0  0  0  0  0  0  0  0  0  0
    2.7920   -1.4913    2.3198 C   0  0  0  0  0  0  0  0  0  0  0  0
    3.9840   -1.3556    3.1094 N   0  0  0  0  0  0  0  0  0  0  0  0
    1.8356   -2.1904    2.6796 O   0  0  0  0  0  0  0  0  0  0  0  0
    1.6476   -0.7643    0.1190 C   0  0  0  0  0  0  0  0  0  0  0  0
    1.8150   -0.0227   -0.9853 C   0  0  0  0  0  0  0  0  0  0  0  0
   -1.2805    0.6039   -0.1602 C   0  0  0  0  0  0  0  0  0  0  0  0
   -2.3385    0.7648    0.7448 C   0  0  0  0  0  0  0  0  0  0  0  0
   -4.9560   -0.8165    1.9069 H   0  0  0  0  0  0  0  0  0  0  0  0
   -5.4247    0.7243    1.1110 H   0  0  0  0  0  0  0  0  0  0  0  0
   -4.1946    0.6854    2.4919 H   0  0  0  0  0  0  0  0  0  0  0  0
   -4.4475   -1.5115   -0.4577 H   0  0  0  0  0  0  0  0  0  0  0  0
   -2.5536   -1.7998   -2.0778 H   0  0  0  0  0  0  0  0  0  0  0  0
    0.5085    1.0624   -3.9560 H   0  0  0  0  0  0  0  0  0  0  0  0
    4.2182    1.9824   -2.3172 H   0  0  0  0  0  0  0  0  0  0  0  0
    4.9120   -1.5717    2.6972 H   0  0  0  0  0  0  0  0  0  0  0  0
    3.8811   -1.0430    4.0766 H   0  0  0  0  0  0  0  0  0  0  0  0
    0.7379   -1.3771    0.3653 H   0  0  0  0  0  0  0  0  0  0  0  0
   -0.4259    1.2310   -0.0199 H   0  0  0  0  0  0  0  0  0  0  0  0
   -2.2511    1.4937    1.5293 H   0  0  0  0  0  0  0  0  0  0  0  0
  1  2  1  0
  2  3  2  0
  3  4  1  0
  4  5  2  0
  5  6  1  0
  6  7  1  0
  7  8  2  0
  8  9  1  0
  9 10  2  0
 10 11  1  0
 11 12  1  0
 12 13  1  0
 13 14  1  0
 14 15  1  0
 14 16  2  0
 13 17  2  0
 17 18  1  0
  5 19  1  0
 19 20  2  0
 20  2  1  0
 18  7  1  0
 18 11  2  0
  1 21  1  0
  1 22  1  0
  1 23  1  0
  3 24  1  0
  4 25  1  0
  8 26  1  0
 10 27  1  0
 15 28  1  0
 15 29  1  0
 17 30  1  0
 19 31  1  0
 20 32  1  0
M  END
$$$$
