@<TRIPOS>MOLECULE
*****
 32 34 0 0 0
SMALL
GASTEIGER

@<TRIPOS>ATOM
      1 C          -4.5664    0.1895    1.5923 C.3     1  UNL1       -0.0397
      2 C          -3.4557    0.0001    0.6185 C.ar    1  UNL1       -0.0502
      3 C          -3.5283   -0.9191   -0.3963 C.ar    1  UNL1       -0.0554
      4 C          -2.4914   -1.0789   -1.2856 C.ar    1  UNL1       -0.0191
      5 C          -1.3532   -0.3178   -1.1776 C.ar    1  UNL1        0.1286
      6 O          -0.3342   -0.4812   -2.0609 O.3     1  UNL1       -0.4539
      7 C           0.8967    0.1376   -2.0493 C.ar    1  UNL1        0.1546
      8 C           1.2228    0.9334   -3.1201 C.ar    1  UNL1        0.0704
      9 N           2.3614    1.5849   -3.2445 N.ar    1  UNL1       -0.2585
     10 C           3.2644    1.4666   -2.2643 C.ar    1  UNL1        0.0421
     11 C           2.9758    0.6631   -1.1487 C.ar    1  UNL1        0.0416
     12 S           3.8792    0.2530    0.3136 S.2     1  UNL1       -0.0820
     13 C           2.6692   -0.7965    1.0459 C.ar    1  UNL1        0.0749
     14 C           2.7920   -1.4913    2.3198 C.2     1  UNL1        0.2482
     15 N           3.9840   -1.3556    3.1094 N.am    1  UNL1       -0.3249
     16 O           1.8356   -2.1904    2.6796 O.2     1  UNL1       -0.2698
     17 C           1.6476   -0.7643    0.1190 C.ar    1  UNL1       -0.0311
     18 C           1.8150   -0.0227   -0.9853 C.ar    1  UNL1        0.0352
     19 C          -1.2805    0.6039   -0.1602 C.ar    1  UNL1       -0.0191
     20 C          -2.3385    0.7648    0.7448 C.ar    1  UNL1       -0.0554
     21 H          -4.9560   -0.8165    1.9069 H       1  UNL1        0.0278
     22 H          -5.4247    0.7243    1.1110 H       1  UNL1        0.0278
     23 H          -4.1946    0.6854    2.4919 H       1  UNL1        0.0278
     24 H          -4.4475   -1.5115   -0.4577 H       1  UNL1        0.0621
     25 H          -2.5536   -1.7998   -2.0778 H       1  UNL1        0.0654
     26 H           0.5085    1.0624   -3.9560 H       1  UNL1        0.0867
     27 H           4.2182    1.9824   -2.3172 H       1  UNL1        0.0841
     28 H           4.9120   -1.5717    2.6972 H       1  UNL1        0.1453
     29 H           3.8811   -1.0430    4.0766 H       1  UNL1        0.1453
     30 H           0.7379   -1.3771    0.3653 H       1  UNL1        0.0638
     31 H          -0.4259    1.2310   -0.0199 H       1  UNL1        0.0654
     32 H          -2.2511    1.4937    1.5293 H       1  UNL1        0.0621
@<TRIPOS>BOND
     1     1     2    1
     2     2     3   ar
     3     3     4   ar
     4     4     5   ar
     5     5     6    1
     6     6     7    1
     7     7     8   ar
     8     8     9   ar
     9     9    10   ar
    10    10    11   ar
    11    11    12   ar
    12    12    13   ar
    13    13    14    1
    14    14    15   am
    15    14    16    2
    16    13    17   ar
    17    17    18   ar
    18     5    19   ar
    19    19    20   ar
    20    20     2   ar
    21    18     7   ar
    22    18    11   ar
    23     1    21    1
    24     1    22    1
    25     1    23    1
    26     3    24    1
    27     4    25    1
    28     8    26    1
    29    10    27    1
    30    15    28    1
    31    15    29    1
    32    17    30    1
    33    19    31    1
    34    20    32    1
