@<TRIPOS>MOLECULE
*****
 56 58 0 0 0
SMALL
GASTEIGER

@<TRIPOS>ATOM
      1 C           0.8858   -1.5110    0.6217 C.3     1  UNL1        0.0418
      2 C           1.5376   -2.1035    1.8437 C.3     1  UNL1       -0.0466
      3 C           1.8102   -1.5832   -0.5854 C.3     1  UNL1        0.0160
      4 N           2.7250   -0.4633   -0.6345 N.3     1  UNL1       -0.2986
      5 C           4.0108   -0.8539   -0.3418 C.3     1  UNL1        0.0129
      6 C           5.1786    0.0374   -0.3252 C.3     1  UNL1        0.0594
      7 C           5.1713    1.1935    0.6545 C.3     1  UNL1       -0.0369
      8 C           5.2208    1.4398   -0.7889 C.3     1  UNL1       -0.0369
      9 C           6.5028   -0.7074   -0.4246 C.2     1  UNL1        0.2179
     10 N           7.7340   -0.0942   -0.7768 N.am    1  UNL1       -0.3288
     11 O           6.4983   -1.9330   -0.1795 O.2     1  UNL1       -0.2754
     12 C           2.1941    0.8094   -0.6820 C.3     1  UNL1        0.0134
     13 C           0.6651    0.6592   -0.3869 C.3     1  UNL1        0.0336
     14 N           0.4652   -0.1716    0.7416 N.3     1  UNL1       -0.1714
     15 S          -0.6832    0.2556    1.8698 S.O2    1  UNL1        0.0612
     16 O          -0.4062    1.6481    2.3966 O.2     1  UNL1       -0.1528
     17 O          -0.7781   -0.6435    3.0580 O.2     1  UNL1       -0.1528
     18 C          -2.2793    0.2987    1.1278 C.ar    1  UNL1        0.1055
     19 C          -2.7016    1.4733    0.5752 C.ar    1  UNL1       -0.0350
     20 C          -3.9536    1.4983   -0.0006 C.ar    1  UNL1       -0.0537
     21 C          -4.8295    0.4059   -0.0621 C.ar    1  UNL1       -0.0077
     22 C          -4.3349   -0.7360    0.5129 C.ar    1  UNL1       -0.0537
     23 C          -3.0938   -0.8116    1.0991 C.ar    1  UNL1       -0.0350
     24 C          -6.1206    0.6573   -0.7256 C.3     1  UNL1        0.1828
     25 C          -5.9288    0.3488   -2.2019 C.3     1  UNL1       -0.0233
     26 O          -6.4432    2.0119   -0.5739 O.3     1  UNL1       -0.3758
     27 C          -7.2346   -0.1630   -0.1467 C.3     1  UNL1        0.4221
     28 F          -7.4021    0.1041    1.1882 F       1  UNL1       -0.1673
     29 F          -8.4049    0.2481   -0.7994 F       1  UNL1       -0.1673
     30 F          -7.1034   -1.5130   -0.3140 F       1  UNL1       -0.1673
     31 H           0.0130   -2.1505    0.3838 H       1  UNL1        0.0490
     32 H           2.1108   -1.3915    2.4444 H       1  UNL1        0.0246
     33 H           2.2468   -2.9015    1.5324 H       1  UNL1        0.0246
     34 H           0.7688   -2.6146    2.4793 H       1  UNL1        0.0246
     35 H           2.3893   -2.5227   -0.4922 H       1  UNL1        0.0442
     36 H           1.1833   -1.6917   -1.4824 H       1  UNL1        0.0442
     37 H           4.2831   -1.7590   -1.0104 H       1  UNL1        0.0437
     38 H           3.9832   -1.3797    0.6790 H       1  UNL1        0.0437
     39 H           6.1528    1.3139    1.2346 H       1  UNL1        0.0276
     40 H           4.3384    1.3517    1.3327 H       1  UNL1        0.0276
     41 H           4.4400    1.9176   -1.3954 H       1  UNL1        0.0276
     42 H           6.2340    1.8018   -1.1655 H       1  UNL1        0.0276
     43 H           8.2337    0.5158   -0.0875 H       1  UNL1        0.1449
     44 H           8.1893   -0.2142   -1.7066 H       1  UNL1        0.1449
     45 H           2.1546    1.2741   -1.7200 H       1  UNL1        0.0440
     46 H           2.5824    1.6143   -0.0533 H       1  UNL1        0.0440
     47 H           0.2745    0.1272   -1.2749 H       1  UNL1        0.0457
     48 H           0.2113    1.6426   -0.2715 H       1  UNL1        0.0457
     49 H          -2.0724    2.3400    0.5937 H       1  UNL1        0.0637
     50 H          -4.2405    2.4630   -0.4258 H       1  UNL1        0.0622
     51 H          -4.9895   -1.5880    0.4773 H       1  UNL1        0.0622
     52 H          -2.7672   -1.7376    1.5311 H       1  UNL1        0.0637
     53 H          -5.2585    1.1462   -2.5994 H       1  UNL1        0.0263
     54 H          -6.9123    0.3699   -2.6985 H       1  UNL1        0.0263
     55 H          -5.4615   -0.6477   -2.2715 H       1  UNL1        0.0263
     56 H          -6.9894    2.1424    0.2274 H       1  UNL1        0.2110
@<TRIPOS>BOND
     1     1     2    1
     2     1     3    1
     3     3     4    1
     4     4     5    1
     5     5     6    1
     6     6     7    1
     7     7     8    1
     8     6     9    1
     9     9    10   am
    10     9    11    2
    11     4    12    1
    12    12    13    1
    13    13    14    1
    14    14    15    1
    15    15    16    2
    16    15    17    2
    17    15    18    1
    18    18    19   ar
    19    19    20   ar
    20    20    21   ar
    21    21    22   ar
    22    22    23   ar
    23    21    24    1
    24    24    25    1
    25    24    26    1
    26    24    27    1
    27    27    28    1
    28    27    29    1
    29    27    30    1
    30    14     1    1
    31    23    18   ar
    32     8     6    1
    33     1    31    1
    34     2    32    1
    35     2    33    1
    36     2    34    1
    37     3    35    1
    38     3    36    1
    39     5    37    1
    40     5    38    1
    41     7    39    1
    42     7    40    1
    43     8    41    1
    44     8    42    1
    45    10    43    1
    46    10    44    1
    47    12    45    1
    48    12    46    1
    49    13    47    1
    50    13    48    1
    51    19    49    1
    52    20    50    1
    53    22    51    1
    54    23    52    1
    55    25    53    1
    56    25    54    1
    57    25    55    1
    58    26    56    1
