
     RDKit          3D

 56 58  0  0  0  0  0  0  0  0999 V2000
    0.8858   -1.5110    0.6217 C   0  0  2  0  0  0  0  0  0  0  0  0
    1.5376   -2.1035    1.8437 C   0  0  0  0  0  0  0  0  0  0  0  0
    1.8102   -1.5832   -0.5854 C   0  0  0  0  0  0  0  0  0  0  0  0
    2.7250   -0.4633   -0.6345 N   0  0  0  0  0  0  0  0  0  0  0  0
    4.0108   -0.8539   -0.3418 C   0  0  0  0  0  0  0  0  0  0  0  0
    5.1786    0.0374   -0.3252 C   0  0  0  0  0  0  0  0  0  0  0  0
    5.1713    1.1935    0.6545 C   0  0  0  0  0  0  0  0  0  0  0  0
    5.2208    1.4398   -0.7889 C   0  0  0  0  0  0  0  0  0  0  0  0
    6.5028   -0.7074   -0.4246 C   0  0  0  0  0  0  0  0  0  0  0  0
    7.7340   -0.0942   -0.7768 N   0  0  0  0  0  0  0  0  0  0  0  0
    6.4983   -1.9330   -0.1795 O   0  0  0  0  0  0  0  0  0  0  0  0
    2.1941    0.8094   -0.6820 C   0  0  0  0  0  0  0  0  0  0  0  0
    0.6651    0.6592   -0.3869 C   0  0  0  0  0  0  0  0  0  0  0  0
    0.4652   -0.1716    0.7416 N   0  0  0  0  0  0  0  0  0  0  0  0
   -0.6832    0.2556    1.8698 S   0  0  0  0  0  0  0  0  0  0  0  0
   -0.4062    1.6481    2.3966 O   0  0  0  0  0  0  0  0  0  0  0  0
   -0.7781   -0.6435    3.0580 O   0  0  0  0  0  0  0  0  0  0  0  0
   -2.2793    0.2987    1.1278 C   0  0  0  0  0  0  0  0  0  0  0  0
   -2.7016    1.4733    0.5752 C   0  0  0  0  0  0  0  0  0  0  0  0
   -3.9536    1.4983   -0.0006 C   0  0  0  0  0  0  0  0  0  0  0  0
   -4.8295    0.4059   -0.0621 C   0  0  0  0  0  0  0  0  0  0  0  0
   -4.3349   -0.7360    0.5129 C   0  0  0  0  0  0  0  0  0  0  0  0
   -3.0938   -0.8116    1.0991 C   0  0  0  0  0  0  0  0  0  0  0  0
   -6.1206    0.6573   -0.7256 C   0  0  2  0  0  0  0  0  0  0  0  0
   -5.9288    0.3488   -2.2019 C   0  0  0  0  0  0  0  0  0  0  0  0
   -6.4432    2.0119   -0.5739 O   0  0  0  0  0  0  0  0  0  0  0  0
   -7.2346   -0.1630   -0.1467 C   0  0  0  0  0  0  0  0  0  0  0  0
   -7.4021    0.1041    1.1882 F   0  0  0  0  0  0  0  0  0  0  0  0
   -8.4049    0.2481   -0.7994 F   0  0  0  0  0  0  0  0  0  0  0  0
   -7.1034   -1.5130   -0.3140 F   0  0  0  0  0  0  0  0  0  0  0  0
    0.0130   -2.1505    0.3838 H   0  0  0  0  0  0  0  0  0  0  0  0
    2.1108   -1.3915    2.4444 H   0  0  0  0  0  0  0  0  0  0  0  0
    2.2468   -2.9015    1.5324 H   0  0  0  0  0  0  0  0  0  0  0  0
    0.7688   -2.6146    2.4793 H   0  0  0  0  0  0  0  0  0  0  0  0
    2.3893   -2.5227   -0.4922 H   0  0  0  0  0  0  0  0  0  0  0  0
    1.1833   -1.6917   -1.4824 H   0  0  0  0  0  0  0  0  0  0  0  0
    4.2831   -1.7590   -1.0104 H   0  0  0  0  0  0  0  0  0  0  0  0
    3.9832   -1.3797    0.6790 H   0  0  0  0  0  0  0  0  0  0  0  0
    6.1528    1.3139    1.2346 H   0  0  0  0  0  0  0  0  0  0  0  0
    4.3384    1.3517    1.3327 H   0  0  0  0  0  0  0  0  0  0  0  0
    4.4400    1.9176   -1.3954 H   0  0  0  0  0  0  0  0  0  0  0  0
    6.2340    1.8018   -1.1655 H   0  0  0  0  0  0  0  0  0  0  0  0
    8.2337    0.5158   -0.0875 H   0  0  0  0  0  0  0  0  0  0  0  0
    8.1893   -0.2142   -1.7066 H   0  0  0  0  0  0  0  0  0  0  0  0
    2.1546    1.2741   -1.7200 H   0  0  0  0  0  0  0  0  0  0  0  0
    2.5824    1.6143   -0.0533 H   0  0  0  0  0  0  0  0  0  0  0  0
    0.2745    0.1272   -1.2749 H   0  0  0  0  0  0  0  0  0  0  0  0
    0.2113    1.6426   -0.2715 H   0  0  0  0  0  0  0  0  0  0  0  0
   -2.0724    2.3400    0.5937 H   0  0  0  0  0  0  0  0  0  0  0  0
   -4.2405    2.4630   -0.4258 H   0  0  0  0  0  0  0  0  0  0  0  0
   -4.9895   -1.5880    0.4773 H   0  0  0  0  0  0  0  0  0  0  0  0
   -2.7672   -1.7376    1.5311 H   0  0  0  0  0  0  0  0  0  0  0  0
   -5.2585    1.1462   -2.5994 H   0  0  0  0  0  0  0  0  0  0  0  0
   -6.9123    0.3699   -2.6985 H   0  0  0  0  0  0  0  0  0  0  0  0
   -5.4615   -0.6477   -2.2715 H   0  0  0  0  0  0  0  0  0  0  0  0
   -6.9894    2.1424    0.2274 H   0  0  0  0  0  0  0  0  0  0  0  0
  1  2  1  0
  1  3  1  0
  3  4  1  0
  4  5  1  0
  5  6  1  0
  6  7  1  0
  7  8  1  0
  6  9  1  0
  9 10  1  0
  9 11  2  0
  4 12  1  0
 12 13  1  0
 13 14  1  0
 14 15  1  0
 15 16  2  0
 15 17  2  0
 15 18  1  0
 18 19  2  0
 19 20  1  0
 20 21  2  0
 21 22  1  0
 22 23  2  0
 21 24  1  0
 24 25  1  0
 24 26  1  6
 24 27  1  0
 27 28  1  0
 27 29  1  0
 27 30  1  0
 14  1  1  0
 23 18  1  0
  8  6  1  0
  1 31  1  6
  2 32  1  0
  2 33  1  0
  2 34  1  0
  3 35  1  0
  3 36  1  0
  5 37  1  0
  5 38  1  0
  7 39  1  0
  7 40  1  0
  8 41  1  0
  8 42  1  0
 10 43  1  0
 10 44  1  0
 12 45  1  0
 12 46  1  0
 13 47  1  0
 13 48  1  0
 19 49  1  0
 20 50  1  0
 22 51  1  0
 23 52  1  0
 25 53  1  0
 25 54  1  0
 25 55  1  0
 26 56  1  0
M  END
$$$$
