@<TRIPOS>MOLECULE
*****
 49 53 0 0 0
SMALL
GASTEIGER

@<TRIPOS>ATOM
      1 C          -4.9490    1.5459   -2.3817 C.3     1  UNL1        0.0381
      2 O          -3.7319    1.0181   -2.0343 O.3     1  UNL1       -0.3652
      3 C          -3.8722    0.1809   -0.9320 C.3     1  UNL1        0.1424
      4 C          -4.4006    0.8627    0.2463 C.ar    1  UNL1        0.1145
      5 N          -5.4710    0.6530    1.0280 N.ar    1  UNL1       -0.2490
      6 C          -5.7512    1.3838    2.0299 C.ar    1  UNL1        0.0352
      7 C          -4.9614    2.4363    2.3642 C.ar    1  UNL1       -0.0045
      8 S          -3.6986    2.2961    1.0487 S.2     1  UNL1       -0.0774
      9 C          -4.7917   -0.9872   -1.2177 C.3     1  UNL1       -0.0094
     10 C          -4.3738   -1.9570   -0.1154 C.3     1  UNL1       -0.0240
     11 C          -2.9011   -1.7733   -0.1335 C.ar    1  UNL1       -0.0407
     12 C          -1.8909   -2.6334    0.2396 C.ar    1  UNL1       -0.0548
     13 C          -0.5777   -2.2354    0.1296 C.ar    1  UNL1       -0.0196
     14 C          -0.2288   -0.9880   -0.3476 C.ar    1  UNL1        0.1214
     15 O           1.0862   -0.5880   -0.4581 O.3     1  UNL1       -0.4874
     16 C           2.1246   -1.4447   -0.0843 C.3     1  UNL1        0.1146
     17 C           3.4574   -0.8155   -0.2844 C.ar    1  UNL1       -0.0098
     18 C           4.1706   -0.9249   -1.4517 C.ar    1  UNL1       -0.0548
     19 C           5.4021   -0.3139   -1.5783 C.ar    1  UNL1       -0.0537
     20 C           5.9594    0.4266   -0.5399 C.ar    1  UNL1       -0.0179
     21 C           7.1908    1.0258   -0.6961 C.ar    1  UNL1       -0.0540
     22 C           7.7458    1.7604    0.3301 C.ar    1  UNL1       -0.0612
     23 C           7.0288    1.8668    1.4957 C.ar    1  UNL1       -0.0612
     24 C           5.8024    1.2692    1.6493 C.ar    1  UNL1       -0.0540
     25 C           5.2305    0.5269    0.6264 C.ar    1  UNL1       -0.0175
     26 C           3.9988   -0.0859    0.7489 C.ar    1  UNL1       -0.0476
     27 C          -1.2750   -0.1398   -0.7172 C.ar    1  UNL1       -0.0134
     28 C          -2.5982   -0.5169   -0.6157 C.ar    1  UNL1       -0.0029
     29 H          -5.4105    2.1511   -1.5517 H       1  UNL1        0.0524
     30 H          -5.6518    0.8098   -2.8045 H       1  UNL1        0.0524
     31 H          -4.7549    2.3016   -3.1935 H       1  UNL1        0.0524
     32 H          -6.6630    1.1944    2.6845 H       1  UNL1        0.0835
     33 H          -4.9674    3.1721    3.1166 H       1  UNL1        0.0709
     34 H          -5.8534   -0.7580   -1.0450 H       1  UNL1        0.0303
     35 H          -4.6019   -1.4226   -2.2201 H       1  UNL1        0.0303
     36 H          -4.7649   -1.6046    0.8377 H       1  UNL1        0.0314
     37 H          -4.6699   -2.9961   -0.3649 H       1  UNL1        0.0314
     38 H          -2.1329   -3.6364    0.6250 H       1  UNL1        0.0622
     39 H           0.2597   -2.8819    0.4127 H       1  UNL1        0.0654
     40 H           2.0755   -2.3568   -0.7124 H       1  UNL1        0.0748
     41 H           2.0444   -1.7973    0.9704 H       1  UNL1        0.0748
     42 H           3.7449   -1.5004   -2.2678 H       1  UNL1        0.0622
     43 H           5.9928   -0.3770   -2.4805 H       1  UNL1        0.0624
     44 H           7.7348    0.9283   -1.6195 H       1  UNL1        0.0624
     45 H           8.7168    2.2425    0.2297 H       1  UNL1        0.0618
     46 H           7.4721    2.4540    2.3157 H       1  UNL1        0.0618
     47 H           5.2412    1.3645    2.5900 H       1  UNL1        0.0624
     48 H           3.4634    0.0290    1.7036 H       1  UNL1        0.0627
     49 H          -0.9992    0.8352   -1.0903 H       1  UNL1        0.0658
@<TRIPOS>BOND
     1     1     2    1
     2     2     3    1
     3     3     4    1
     4     4     5   ar
     5     5     6   ar
     6     6     7   ar
     7     7     8   ar
     8     3     9    1
     9     9    10    1
    10    10    11    1
    11    11    12   ar
    12    12    13   ar
    13    13    14   ar
    14    14    15    1
    15    15    16    1
    16    16    17    1
    17    17    18   ar
    18    18    19   ar
    19    19    20   ar
    20    20    21   ar
    21    21    22   ar
    22    22    23   ar
    23    23    24   ar
    24    24    25   ar
    25    25    26   ar
    26    14    27   ar
    27    27    28   ar
    28    28     3    1
    29     8     4   ar
    30    28    11   ar
    31    26    17   ar
    32    25    20   ar
    33     1    29    1
    34     1    30    1
    35     1    31    1
    36     6    32    1
    37     7    33    1
    38     9    34    1
    39     9    35    1
    40    10    36    1
    41    10    37    1
    42    12    38    1
    43    13    39    1
    44    16    40    1
    45    16    41    1
    46    18    42    1
    47    19    43    1
    48    21    44    1
    49    22    45    1
    50    23    46    1
    51    24    47    1
    52    26    48    1
    53    27    49    1
