
     RDKit          3D

 49 53  0  0  0  0  0  0  0  0999 V2000
   -4.9490    1.5459   -2.3817 C   0  0  0  0  0  0  0  0  0  0  0  0
   -3.7319    1.0181   -2.0343 O   0  0  0  0  0  0  0  0  0  0  0  0
   -3.8722    0.1809   -0.9320 C   0  0  0  0  0  0  0  0  0  0  0  0
   -4.4006    0.8627    0.2463 C   0  0  0  0  0  0  0  0  0  0  0  0
   -5.4710    0.6530    1.0280 N   0  0  0  0  0  0  0  0  0  0  0  0
   -5.7512    1.3838    2.0299 C   0  0  0  0  0  0  0  0  0  0  0  0
   -4.9614    2.4363    2.3642 C   0  0  0  0  0  0  0  0  0  0  0  0
   -3.6986    2.2961    1.0487 S   0  0  0  0  0  0  0  0  0  0  0  0
   -4.7917   -0.9872   -1.2177 C   0  0  0  0  0  0  0  0  0  0  0  0
   -4.3738   -1.9570   -0.1154 C   0  0  0  0  0  0  0  0  0  0  0  0
   -2.9011   -1.7733   -0.1335 C   0  0  0  0  0  0  0  0  0  0  0  0
   -1.8909   -2.6334    0.2396 C   0  0  0  0  0  0  0  0  0  0  0  0
   -0.5777   -2.2354    0.1296 C   0  0  0  0  0  0  0  0  0  0  0  0
   -0.2288   -0.9880   -0.3476 C   0  0  0  0  0  0  0  0  0  0  0  0
    1.0862   -0.5880   -0.4581 O   0  0  0  0  0  0  0  0  0  0  0  0
    2.1246   -1.4447   -0.0843 C   0  0  0  0  0  0  0  0  0  0  0  0
    3.4574   -0.8155   -0.2844 C   0  0  0  0  0  0  0  0  0  0  0  0
    4.1706   -0.9249   -1.4517 C   0  0  0  0  0  0  0  0  0  0  0  0
    5.4021   -0.3139   -1.5783 C   0  0  0  0  0  0  0  0  0  0  0  0
    5.9594    0.4266   -0.5399 C   0  0  0  0  0  0  0  0  0  0  0  0
    7.1908    1.0258   -0.6961 C   0  0  0  0  0  0  0  0  0  0  0  0
    7.7458    1.7604    0.3301 C   0  0  0  0  0  0  0  0  0  0  0  0
    7.0288    1.8668    1.4957 C   0  0  0  0  0  0  0  0  0  0  0  0
    5.8024    1.2692    1.6493 C   0  0  0  0  0  0  0  0  0  0  0  0
    5.2305    0.5269    0.6264 C   0  0  0  0  0  0  0  0  0  0  0  0
    3.9988   -0.0859    0.7489 C   0  0  0  0  0  0  0  0  0  0  0  0
   -1.2750   -0.1398   -0.7172 C   0  0  0  0  0  0  0  0  0  0  0  0
   -2.5982   -0.5169   -0.6157 C   0  0  0  0  0  0  0  0  0  0  0  0
   -5.4105    2.1511   -1.5517 H   0  0  0  0  0  0  0  0  0  0  0  0
   -5.6518    0.8098   -2.8045 H   0  0  0  0  0  0  0  0  0  0  0  0
   -4.7549    2.3016   -3.1935 H   0  0  0  0  0  0  0  0  0  0  0  0
   -6.6630    1.1944    2.6845 H   0  0  0  0  0  0  0  0  0  0  0  0
   -4.9674    3.1721    3.1166 H   0  0  0  0  0  0  0  0  0  0  0  0
   -5.8534   -0.7580   -1.0450 H   0  0  0  0  0  0  0  0  0  0  0  0
   -4.6019   -1.4226   -2.2201 H   0  0  0  0  0  0  0  0  0  0  0  0
   -4.7649   -1.6046    0.8377 H   0  0  0  0  0  0  0  0  0  0  0  0
   -4.6699   -2.9961   -0.3649 H   0  0  0  0  0  0  0  0  0  0  0  0
   -2.1329   -3.6364    0.6250 H   0  0  0  0  0  0  0  0  0  0  0  0
    0.2597   -2.8819    0.4127 H   0  0  0  0  0  0  0  0  0  0  0  0
    2.0755   -2.3568   -0.7124 H   0  0  0  0  0  0  0  0  0  0  0  0
    2.0444   -1.7973    0.9704 H   0  0  0  0  0  0  0  0  0  0  0  0
    3.7449   -1.5004   -2.2678 H   0  0  0  0  0  0  0  0  0  0  0  0
    5.9928   -0.3770   -2.4805 H   0  0  0  0  0  0  0  0  0  0  0  0
    7.7348    0.9283   -1.6195 H   0  0  0  0  0  0  0  0  0  0  0  0
    8.7168    2.2425    0.2297 H   0  0  0  0  0  0  0  0  0  0  0  0
    7.4721    2.4540    2.3157 H   0  0  0  0  0  0  0  0  0  0  0  0
    5.2412    1.3645    2.5900 H   0  0  0  0  0  0  0  0  0  0  0  0
    3.4634    0.0290    1.7036 H   0  0  0  0  0  0  0  0  0  0  0  0
   -0.9992    0.8352   -1.0903 H   0  0  0  0  0  0  0  0  0  0  0  0
  1  2  1  0
  2  3  1  0
  3  4  1  0
  4  5  2  0
  5  6  1  0
  6  7  2  0
  7  8  1  0
  3  9  1  0
  9 10  1  0
 10 11  1  0
 11 12  2  0
 12 13  1  0
 13 14  2  0
 14 15  1  0
 15 16  1  0
 16 17  1  0
 17 18  2  0
 18 19  1  0
 19 20  2  0
 20 21  1  0
 21 22  2  0
 22 23  1  0
 23 24  2  0
 24 25  1  0
 25 26  2  0
 14 27  1  0
 27 28  2  0
 28  3  1  0
  8  4  1  0
 28 11  1  0
 26 17  1  0
 25 20  1  0
  1 29  1  0
  1 30  1  0
  1 31  1  0
  6 32  1  0
  7 33  1  0
  9 34  1  0
  9 35  1  0
 10 36  1  0
 10 37  1  0
 12 38  1  0
 13 39  1  0
 16 40  1  0
 16 41  1  0
 18 42  1  0
 19 43  1  0
 21 44  1  0
 22 45  1  0
 23 46  1  0
 24 47  1  0
 26 48  1  0
 27 49  1  0
M  END
$$$$
