@<TRIPOS>MOLECULE
*****
 29 30 0 0 0
SMALL
GASTEIGER

@<TRIPOS>ATOM
      1 O          -0.7620    2.2432   -2.2110 O.2     1  UNL1       -0.2793
      2 C          -0.3074    1.4024   -1.3917 C.2     1  UNL1        0.2030
      3 N           0.3710    0.5188   -0.4822 N.am    1  UNL1       -0.2979
      4 C           1.7379    0.5432   -0.1729 C.3     1  UNL1        0.0261
      5 C           2.6072   -0.6358   -0.2165 C.3     1  UNL1       -0.0342
      6 C           3.4960    0.1405    0.7727 C.3     1  UNL1       -0.0497
      7 C           2.1635    0.7013    1.2794 C.3     1  UNL1       -0.0342
      8 C          -0.6265   -0.3674    0.0248 C.3     1  UNL1        0.0261
      9 C          -1.4307   -1.1087   -0.9930 C.3     1  UNL1       -0.0343
     10 C          -2.6648   -1.4819   -0.1799 C.3     1  UNL1       -0.0513
     11 C          -3.0192   -0.2054    0.5201 C.3     1  UNL1       -0.0513
     12 C          -1.7075    0.4689    0.7141 C.3     1  UNL1       -0.0343
     13 H          -0.5710    2.1716   -2.1045 H       1  UNL1        0.1253
     14 H           2.2681    1.3582   -0.7326 H       1  UNL1        0.0500
     15 H           3.2109   -0.7533   -1.1516 H       1  UNL1        0.0283
     16 H           2.3589   -1.5766    0.2541 H       1  UNL1        0.0283
     17 H           4.0634    0.9784    0.2985 H       1  UNL1        0.0266
     18 H           4.0503   -0.4755    1.4818 H       1  UNL1        0.0266
     19 H           2.2400    1.7557    1.5981 H       1  UNL1        0.0283
     20 H           1.7270   -0.0103    1.9813 H       1  UNL1        0.0283
     21 H          -0.2429   -1.1069    0.7415 H       1  UNL1        0.0500
     22 H          -1.6943   -0.5016   -1.8649 H       1  UNL1        0.0283
     23 H          -1.0111   -2.1033   -1.2832 H       1  UNL1        0.0283
     24 H          -3.4700   -1.8813   -0.8205 H       1  UNL1        0.0266
     25 H          -2.3456   -2.1937    0.6172 H       1  UNL1        0.0266
     26 H          -3.5231   -0.3527    1.4972 H       1  UNL1        0.0266
     27 H          -3.7253    0.3548   -0.1040 H       1  UNL1        0.0266
     28 H          -1.7467    1.4274    0.1519 H       1  UNL1        0.0283
     29 H          -1.4460    0.6899    1.7758 H       1  UNL1        0.0283
@<TRIPOS>BOND
     1     1     2    2
     2     2     3   am
     3     3     4    1
     4     4     5    1
     5     5     6    1
     6     6     7    1
     7     3     8    1
     8     8     9    1
     9     9    10    1
    10    10    11    1
    11    11    12    1
    12     7     4    1
    13    12     8    1
    14     2    13    1
    15     4    14    1
    16     5    15    1
    17     5    16    1
    18     6    17    1
    19     6    18    1
    20     7    19    1
    21     7    20    1
    22     8    21    1
    23     9    22    1
    24     9    23    1
    25    10    24    1
    26    10    25    1
    27    11    26    1
    28    11    27    1
    29    12    28    1
    30    12    29    1
