
     RDKit          3D

 29 30  0  0  0  0  0  0  0  0999 V2000
   -0.7620    2.2432   -2.2110 O   0  0  0  0  0  0  0  0  0  0  0  0
   -0.3074    1.4024   -1.3917 C   0  0  0  0  0  0  0  0  0  0  0  0
    0.3710    0.5188   -0.4822 N   0  0  0  0  0  0  0  0  0  0  0  0
    1.7379    0.5432   -0.1729 C   0  0  0  0  0  0  0  0  0  0  0  0
    2.6072   -0.6358   -0.2165 C   0  0  0  0  0  0  0  0  0  0  0  0
    3.4960    0.1405    0.7727 C   0  0  0  0  0  0  0  0  0  0  0  0
    2.1635    0.7013    1.2794 C   0  0  0  0  0  0  0  0  0  0  0  0
   -0.6265   -0.3674    0.0248 C   0  0  0  0  0  0  0  0  0  0  0  0
   -1.4307   -1.1087   -0.9930 C   0  0  0  0  0  0  0  0  0  0  0  0
   -2.6648   -1.4819   -0.1799 C   0  0  0  0  0  0  0  0  0  0  0  0
   -3.0192   -0.2054    0.5201 C   0  0  0  0  0  0  0  0  0  0  0  0
   -1.7075    0.4689    0.7141 C   0  0  0  0  0  0  0  0  0  0  0  0
   -0.5710    2.1716   -2.1045 H   0  0  0  0  0  0  0  0  0  0  0  0
    2.2681    1.3582   -0.7326 H   0  0  0  0  0  0  0  0  0  0  0  0
    3.2109   -0.7533   -1.1516 H   0  0  0  0  0  0  0  0  0  0  0  0
    2.3589   -1.5766    0.2541 H   0  0  0  0  0  0  0  0  0  0  0  0
    4.0634    0.9784    0.2985 H   0  0  0  0  0  0  0  0  0  0  0  0
    4.0503   -0.4755    1.4818 H   0  0  0  0  0  0  0  0  0  0  0  0
    2.2400    1.7557    1.5981 H   0  0  0  0  0  0  0  0  0  0  0  0
    1.7270   -0.0103    1.9813 H   0  0  0  0  0  0  0  0  0  0  0  0
   -0.2429   -1.1069    0.7415 H   0  0  0  0  0  0  0  0  0  0  0  0
   -1.6943   -0.5016   -1.8649 H   0  0  0  0  0  0  0  0  0  0  0  0
   -1.0111   -2.1033   -1.2832 H   0  0  0  0  0  0  0  0  0  0  0  0
   -3.4700   -1.8813   -0.8205 H   0  0  0  0  0  0  0  0  0  0  0  0
   -2.3456   -2.1937    0.6172 H   0  0  0  0  0  0  0  0  0  0  0  0
   -3.5231   -0.3527    1.4972 H   0  0  0  0  0  0  0  0  0  0  0  0
   -3.7253    0.3548   -0.1040 H   0  0  0  0  0  0  0  0  0  0  0  0
   -1.7467    1.4274    0.1519 H   0  0  0  0  0  0  0  0  0  0  0  0
   -1.4460    0.6899    1.7758 H   0  0  0  0  0  0  0  0  0  0  0  0
  1  2  2  0
  2  3  1  0
  3  4  1  0
  4  5  1  0
  5  6  1  0
  6  7  1  0
  3  8  1  0
  8  9  1  0
  9 10  1  0
 10 11  1  0
 11 12  1  0
  7  4  1  0
 12  8  1  0
  2 13  1  0
  4 14  1  0
  5 15  1  0
  5 16  1  0
  6 17  1  0
  6 18  1  0
  7 19  1  0
  7 20  1  0
  8 21  1  0
  9 22  1  0
  9 23  1  0
 10 24  1  0
 10 25  1  0
 11 26  1  0
 11 27  1  0
 12 28  1  0
 12 29  1  0
M  END
$$$$
