@<TRIPOS>MOLECULE
*****
 37 39 0 0 0
SMALL
GASTEIGER

@<TRIPOS>ATOM
      1 O           4.9361    1.0596    2.3639 O.2     1  UNL1       -0.2451
      2 C           4.2459    1.2614    1.3348 C.2     1  UNL1        0.3369
      3 O           4.2152    2.5110    0.7096 O.3     1  UNL1       -0.4771
      4 C           3.4669    0.1603    0.7940 C.ar    1  UNL1        0.0607
      5 C           3.4865   -1.0692    1.3950 C.ar    1  UNL1       -0.0477
      6 C           2.7429   -2.1063    0.8724 C.ar    1  UNL1       -0.0591
      7 C           1.9668   -1.9434   -0.2550 C.ar    1  UNL1       -0.0353
      8 C           1.9403   -0.7250   -0.8601 C.ar    1  UNL1        0.1063
      9 S           0.9901   -0.4529   -2.2747 S.O2    1  UNL1        0.0612
     10 O           1.6360    0.6490   -3.1017 O.2     1  UNL1       -0.1528
     11 O           0.9435   -1.6638   -3.1727 O.2     1  UNL1       -0.1528
     12 N          -0.6176    0.0764   -1.9139 N.3     1  UNL1       -0.1720
     13 C          -0.5077    1.3087   -1.2243 C.3     1  UNL1        0.0249
     14 C          -1.7094    1.7762   -0.5001 C.3     1  UNL1       -0.0119
     15 C          -2.6583    0.7425   -0.0875 C.ar    1  UNL1       -0.0285
     16 C          -3.7514    1.0913    0.6546 C.ar    1  UNL1        0.0169
     17 I          -4.1399    3.0779    1.2407 I       1  UNL1       -0.0435
     18 C          -4.6409    0.1013    1.0380 C.ar    1  UNL1       -0.0483
     19 C          -4.4745   -1.2153    0.7065 C.ar    1  UNL1       -0.0605
     20 C          -3.3466   -1.5291   -0.0513 C.ar    1  UNL1       -0.0570
     21 C          -2.4525   -0.5507   -0.4396 C.ar    1  UNL1       -0.0275
     22 C          -1.2862   -0.9736   -1.2403 C.3     1  UNL1        0.0458
     23 C           2.6790    0.3152   -0.3455 C.ar    1  UNL1       -0.0214
     24 H           5.0164    3.1037    0.8628 H       1  UNL1        0.2954
     25 H           4.0772   -1.2274    2.2690 H       1  UNL1        0.0626
     26 H           2.7930   -3.0590    1.3853 H       1  UNL1        0.0618
     27 H           1.4046   -2.8127   -0.6104 H       1  UNL1        0.0637
     28 H          -0.1378    2.0914   -1.9256 H       1  UNL1        0.0447
     29 H           0.3235    1.1991   -0.4665 H       1  UNL1        0.0447
     30 H          -2.2705    2.4749   -1.1896 H       1  UNL1        0.0326
     31 H          -1.4687    2.4210    0.3884 H       1  UNL1        0.0326
     32 H          -5.5301    0.3417    1.6342 H       1  UNL1        0.0628
     33 H          -5.1470   -2.0127    0.9879 H       1  UNL1        0.0618
     34 H          -3.2038   -2.5541   -0.3177 H       1  UNL1        0.0621
     35 H          -0.5632   -1.4419   -0.5179 H       1  UNL1        0.0493
     36 H          -1.6563   -1.7397   -1.9627 H       1  UNL1        0.0493
     37 H           2.6987    1.3139   -0.7857 H       1  UNL1        0.0645
@<TRIPOS>BOND
     1     1     2    2
     2     2     3    1
     3     2     4    1
     4     4     5   ar
     5     5     6   ar
     6     6     7   ar
     7     7     8   ar
     8     8     9    1
     9     9    10    2
    10     9    11    2
    11     9    12    1
    12    12    13    1
    13    13    14    1
    14    14    15    1
    15    15    16   ar
    16    16    17    1
    17    16    18   ar
    18    18    19   ar
    19    19    20   ar
    20    20    21   ar
    21    21    22    1
    22     8    23   ar
    23    23     4   ar
    24    22    12    1
    25    21    15   ar
    26     3    24    1
    27     5    25    1
    28     6    26    1
    29     7    27    1
    30    13    28    1
    31    13    29    1
    32    14    30    1
    33    14    31    1
    34    18    32    1
    35    19    33    1
    36    20    34    1
    37    22    35    1
    38    22    36    1
    39    23    37    1
