
     RDKit          3D

 62 64  0  0  0  0  0  0  0  0999 V2000
   -2.1866   -1.2827   -1.0883 C   0  0  2  0  0  0  0  0  0  0  0  0
   -2.7240   -2.1305    0.0541 C   0  0  0  0  0  0  0  0  0  0  0  0
   -3.7991   -1.4617    0.8132 C   0  0  0  0  0  0  0  0  0  0  0  0
   -5.1081   -1.6588    0.3870 C   0  0  0  0  0  0  0  0  0  0  0  0
   -6.1246   -1.0520    1.0706 C   0  0  0  0  0  0  0  0  0  0  0  0
   -5.8549   -0.2545    2.1691 C   0  0  0  0  0  0  0  0  0  0  0  0
   -4.5524   -0.0610    2.5896 C   0  0  0  0  0  0  0  0  0  0  0  0
   -3.5010   -0.6639    1.9157 C   0  0  0  0  0  0  0  0  0  0  0  0
   -1.6584   -0.0589   -0.5232 N   0  0  0  0  0  0  0  0  0  0  0  0
   -0.2523    0.1370   -0.4961 C   0  0  0  0  0  0  0  0  0  0  0  0
    0.6511   -0.6543   -0.9192 O   0  0  0  0  0  0  0  0  0  0  0  0
    0.8460    1.0438   -0.1109 C   0  0  2  0  0  0  0  0  0  0  0  0
    0.9410    2.3098   -0.8820 C   0  0  0  0  0  0  0  0  0  0  0  0
   -0.2713    3.1234   -0.7588 C   0  0  0  0  0  0  0  0  0  0  0  0
   -0.3955    4.0197    0.3062 C   0  0  0  0  0  0  0  0  0  0  0  0
   -1.4581    4.8602    0.5505 C   0  0  0  0  0  0  0  0  0  0  0  0
   -2.5119    4.8225   -0.3387 C   0  0  0  0  0  0  0  0  0  0  0  0
   -2.4502    3.9549   -1.4162 C   0  0  0  0  0  0  0  0  0  0  0  0
   -1.3711    3.1387   -1.6159 C   0  0  0  0  0  0  0  0  0  0  0  0
    2.0784    0.2870   -0.4409 N   0  0  0  0  0  0  0  0  0  0  0  0
    2.9085   -0.0865    0.6517 C   0  0  0  0  0  0  0  0  0  0  0  0
    2.8039    0.1020    1.8785 O   0  0  0  0  0  0  0  0  0  0  0  0
    4.0948   -0.7943    0.5328 O   0  0  0  0  0  0  0  0  0  0  0  0
    4.8793   -1.1352    1.6816 C   0  0  0  0  0  0  0  0  0  0  0  0
    6.0636   -1.8814    1.1823 C   0  0  0  0  0  0  0  0  0  0  0  0
    7.2585   -1.2971    0.8184 C   0  0  0  0  0  0  0  0  0  0  0  0
    8.2744   -2.1075    0.3725 C   0  0  0  0  0  0  0  0  0  0  0  0
    8.1817   -3.4933    0.2607 C   0  0  0  0  0  0  0  0  0  0  0  0
    6.9858   -4.0989    0.6228 C   0  0  0  0  0  0  0  0  0  0  0  0
    5.9653   -3.2697    1.0723 C   0  0  0  0  0  0  0  0  0  0  0  0
   -3.1671   -1.0981   -2.1595 C   0  0  0  0  0  0  0  0  0  0  0  0
   -3.5159   -2.2326   -2.5331 O   0  0  0  0  0  0  0  0  0  0  0  0
   -3.9517   -0.1601   -3.0214 C   0  0  0  0  0  0  0  0  0  0  0  0
   -3.6862    1.1771   -2.7525 O   0  0  0  0  0  0  0  0  0  0  0  0
   -1.3417   -1.8961   -1.4880 H   0  0  0  0  0  0  0  0  0  0  0  0
   -3.0474   -3.0914   -0.4049 H   0  0  0  0  0  0  0  0  0  0  0  0
   -1.8383   -2.3773    0.6876 H   0  0  0  0  0  0  0  0  0  0  0  0
   -5.3470   -2.2813   -0.4740 H   0  0  0  0  0  0  0  0  0  0  0  0
   -7.1494   -1.2212    0.7170 H   0  0  0  0  0  0  0  0  0  0  0  0
   -6.6947    0.1996    2.6708 H   0  0  0  0  0  0  0  0  0  0  0  0
   -4.3295    0.5613    3.4484 H   0  0  0  0  0  0  0  0  0  0  0  0
   -2.4867   -0.5077    2.2505 H   0  0  0  0  0  0  0  0  0  0  0  0
   -1.9865    0.8182   -0.0779 H   0  0  0  0  0  0  0  0  0  0  0  0
    0.8341    1.1895    0.9882 H   0  0  0  0  0  0  0  0  0  0  0  0
    1.2298    2.1310   -1.9538 H   0  0  0  0  0  0  0  0  0  0  0  0
    1.7768    2.9364   -0.4518 H   0  0  0  0  0  0  0  0  0  0  0  0
    0.4291    4.0644    1.0217 H   0  0  0  0  0  0  0  0  0  0  0  0
   -1.4493    5.5103    1.4018 H   0  0  0  0  0  0  0  0  0  0  0  0
   -3.3328    5.4766   -0.1437 H   0  0  0  0  0  0  0  0  0  0  0  0
   -3.2708    3.9202   -2.1155 H   0  0  0  0  0  0  0  0  0  0  0  0
   -1.2726    2.4399   -2.4471 H   0  0  0  0  0  0  0  0  0  0  0  0
    2.3720    0.0176   -1.4024 H   0  0  0  0  0  0  0  0  0  0  0  0
    4.2445   -1.8097    2.2724 H   0  0  0  0  0  0  0  0  0  0  0  0
    5.1722   -0.2217    2.2441 H   0  0  0  0  0  0  0  0  0  0  0  0
    7.3485   -0.2349    0.8974 H   0  0  0  0  0  0  0  0  0  0  0  0
    9.1978   -1.6050    0.0966 H   0  0  0  0  0  0  0  0  0  0  0  0
    8.9859   -4.1020   -0.0889 H   0  0  0  0  0  0  0  0  0  0  0  0
    6.8200   -5.1614    0.5708 H   0  0  0  0  0  0  0  0  0  0  0  0
    5.0203   -3.7406    1.3592 H   0  0  0  0  0  0  0  0  0  0  0  0
   -5.0548   -0.3800   -2.9127 H   0  0  0  0  0  0  0  0  0  0  0  0
   -3.7225   -0.3313   -4.0926 H   0  0  0  0  0  0  0  0  0  0  0  0
   -4.4989    1.6536   -2.4460 H   0  0  0  0  0  0  0  0  0  0  0  0
  1  2  1  0
  2  3  1  0
  3  4  2  0
  4  5  1  0
  5  6  2  0
  6  7  1  0
  7  8  2  0
  1  9  1  0
  9 10  1  0
 10 11  2  0
 10 12  1  0
 12 13  1  0
 13 14  1  0
 14 15  2  0
 15 16  1  0
 16 17  2  0
 17 18  1  0
 18 19  2  0
 12 20  1  0
 20 21  1  0
 21 22  2  0
 21 23  1  0
 23 24  1  0
 24 25  1  0
 25 26  2  0
 26 27  1  0
 27 28  2  0
 28 29  1  0
 29 30  2  0
  1 31  1  0
 31 32  2  0
 31 33  1  0
 33 34  1  0
  8  3  1  0
 19 14  1  0
 30 25  1  0
  1 35  1  6
  2 36  1  0
  2 37  1  0
  4 38  1  0
  5 39  1  0
  6 40  1  0
  7 41  1  0
  8 42  1  0
  9 43  1  0
 12 44  1  1
 13 45  1  0
 13 46  1  0
 15 47  1  0
 16 48  1  0
 17 49  1  0
 18 50  1  0
 19 51  1  0
 20 52  1  0
 24 53  1  0
 24 54  1  0
 26 55  1  0
 27 56  1  0
 28 57  1  0
 29 58  1  0
 30 59  1  0
 33 60  1  0
 33 61  1  0
 34 62  1  0
M  END
$$$$
