@<TRIPOS>MOLECULE
*****
 62 64 0 0 0
SMALL
GASTEIGER

@<TRIPOS>ATOM
      1 C          -2.1866   -1.2827   -1.0883 C.3     1  UNL1        0.0877
      2 C          -2.7240   -2.1305    0.0541 C.3     1  UNL1       -0.0022
      3 C          -3.7991   -1.4617    0.8132 C.ar    1  UNL1       -0.0452
      4 C          -5.1081   -1.6588    0.3870 C.ar    1  UNL1       -0.0585
      5 C          -6.1246   -1.0520    1.0706 C.ar    1  UNL1       -0.0615
      6 C          -5.8549   -0.2545    2.1691 C.ar    1  UNL1       -0.0617
      7 C          -4.5524   -0.0610    2.5896 C.ar    1  UNL1       -0.0615
      8 C          -3.5010   -0.6639    1.9157 C.ar    1  UNL1       -0.0585
      9 N          -1.6584   -0.0589   -0.5232 N.am    1  UNL1       -0.3037
     10 C          -0.2523    0.1370   -0.4961 C.2     1  UNL1        0.2343
     11 O           0.6511   -0.6543   -0.9192 O.2     1  UNL1       -0.2738
     12 C           0.8460    1.0438   -0.1109 C.3     1  UNL1        0.1064
     13 C           0.9410    2.3098   -0.8820 C.3     1  UNL1       -0.0005
     14 C          -0.2713    3.1234   -0.7588 C.ar    1  UNL1       -0.0451
     15 C          -0.3955    4.0197    0.3062 C.ar    1  UNL1       -0.0585
     16 C          -1.4581    4.8602    0.5505 C.ar    1  UNL1       -0.0615
     17 C          -2.5119    4.8225   -0.3387 C.ar    1  UNL1       -0.0617
     18 C          -2.4502    3.9549   -1.4162 C.ar    1  UNL1       -0.0615
     19 C          -1.3711    3.1387   -1.6159 C.ar    1  UNL1       -0.0585
     20 N           2.0784    0.2870   -0.4409 N.am    1  UNL1       -0.2695
     21 C           2.9085   -0.0865    0.6517 C.2     1  UNL1        0.4012
     22 O           2.8039    0.1020    1.8785 O.2     1  UNL1       -0.2265
     23 O           4.0948   -0.7943    0.5328 O.3     1  UNL1       -0.4456
     24 C           4.8793   -1.1352    1.6816 C.3     1  UNL1        0.1191
     25 C           6.0636   -1.8814    1.1823 C.ar    1  UNL1       -0.0103
     26 C           7.2585   -1.2971    0.8184 C.ar    1  UNL1       -0.0554
     27 C           8.2744   -2.1075    0.3725 C.ar    1  UNL1       -0.0614
     28 C           8.1817   -3.4933    0.2607 C.ar    1  UNL1       -0.0617
     29 C           6.9858   -4.0989    0.6228 C.ar    1  UNL1       -0.0614
     30 C           5.9653   -3.2697    1.0723 C.ar    1  UNL1       -0.0554
     31 C          -3.1671   -1.0981   -2.1595 C.2     1  UNL1        0.1787
     32 O          -3.5159   -2.2326   -2.5331 O.2     1  UNL1       -0.2930
     33 C          -3.9517   -0.1601   -3.0214 C.3     1  UNL1        0.1041
     34 O          -3.6862    1.1771   -2.7525 O.3     1  UNL1       -0.3875
     35 H          -1.3417   -1.8961   -1.4880 H       1  UNL1        0.0581
     36 H          -3.0474   -3.0914   -0.4049 H       1  UNL1        0.0335
     37 H          -1.8383   -2.3773    0.6876 H       1  UNL1        0.0335
     38 H          -5.3470   -2.2813   -0.4740 H       1  UNL1        0.0620
     39 H          -7.1494   -1.2212    0.7170 H       1  UNL1        0.0618
     40 H          -6.6947    0.1996    2.6708 H       1  UNL1        0.0618
     41 H          -4.3295    0.5613    3.4484 H       1  UNL1        0.0618
     42 H          -2.4867   -0.5077    2.2505 H       1  UNL1        0.0620
     43 H          -1.9865    0.8182   -0.0779 H       1  UNL1        0.1495
     44 H           0.8341    1.1895    0.9882 H       1  UNL1        0.0599
     45 H           1.2298    2.1310   -1.9538 H       1  UNL1        0.0336
     46 H           1.7768    2.9364   -0.4518 H       1  UNL1        0.0336
     47 H           0.4291    4.0644    1.0217 H       1  UNL1        0.0620
     48 H          -1.4493    5.5103    1.4018 H       1  UNL1        0.0618
     49 H          -3.3328    5.4766   -0.1437 H       1  UNL1        0.0618
     50 H          -3.2708    3.9202   -2.1155 H       1  UNL1        0.0618
     51 H          -1.2726    2.4399   -2.4471 H       1  UNL1        0.0620
     52 H           2.3720    0.0176   -1.4024 H       1  UNL1        0.1528
     53 H           4.2445   -1.8097    2.2724 H       1  UNL1        0.0749
     54 H           5.1722   -0.2217    2.2441 H       1  UNL1        0.0749
     55 H           7.3485   -0.2349    0.8974 H       1  UNL1        0.0621
     56 H           9.1978   -1.6050    0.0966 H       1  UNL1        0.0618
     57 H           8.9859   -4.1020   -0.0889 H       1  UNL1        0.0618
     58 H           6.8200   -5.1614    0.5708 H       1  UNL1        0.0618
     59 H           5.0203   -3.7406    1.3592 H       1  UNL1        0.0621
     60 H          -5.0548   -0.3800   -2.9127 H       1  UNL1        0.0637
     61 H          -3.7225   -0.3313   -4.0926 H       1  UNL1        0.0637
     62 H          -4.4989    1.6536   -2.4460 H       1  UNL1        0.2100
@<TRIPOS>BOND
     1     1     2    1
     2     2     3    1
     3     3     4   ar
     4     4     5   ar
     5     5     6   ar
     6     6     7   ar
     7     7     8   ar
     8     1     9    1
     9     9    10   am
    10    10    11    2
    11    10    12    1
    12    12    13    1
    13    13    14    1
    14    14    15   ar
    15    15    16   ar
    16    16    17   ar
    17    17    18   ar
    18    18    19   ar
    19    12    20    1
    20    20    21   am
    21    21    22    2
    22    21    23    1
    23    23    24    1
    24    24    25    1
    25    25    26   ar
    26    26    27   ar
    27    27    28   ar
    28    28    29   ar
    29    29    30   ar
    30     1    31    1
    31    31    32    2
    32    31    33    1
    33    33    34    1
    34     8     3   ar
    35    19    14   ar
    36    30    25   ar
    37     1    35    1
    38     2    36    1
    39     2    37    1
    40     4    38    1
    41     5    39    1
    42     6    40    1
    43     7    41    1
    44     8    42    1
    45     9    43    1
    46    12    44    1
    47    13    45    1
    48    13    46    1
    49    15    47    1
    50    16    48    1
    51    17    49    1
    52    18    50    1
    53    19    51    1
    54    20    52    1
    55    24    53    1
    56    24    54    1
    57    26    55    1
    58    27    56    1
    59    28    57    1
    60    29    58    1
    61    30    59    1
    62    33    60    1
    63    33    61    1
    64    34    62    1
