
     RDKit          3D

 36 39  0  0  0  0  0  0  0  0999 V2000
    0.8382    2.1227   -0.4713 N   0  0  0  0  0  0  0  0  0  0  0  0
    1.0167    0.7767   -0.1670 C   0  0  0  0  0  0  0  0  0  0  0  0
   -0.0132   -0.0718    0.1161 C   0  0  0  0  0  0  0  0  0  0  0  0
    0.1280   -1.4680    0.2952 C   0  0  0  0  0  0  0  0  0  0  0  0
    1.3751   -1.9586    0.1796 N   0  0  0  0  0  0  0  0  0  0  0  0
    2.4140   -1.1575   -0.0921 C   0  0  0  0  0  0  0  0  0  0  0  0
    3.7085   -1.6726   -0.2108 C   0  0  0  0  0  0  0  0  0  0  0  0
    4.8059   -0.9043   -0.4884 C   0  0  0  0  0  0  0  0  0  0  0  0
    4.6220    0.4437   -0.6588 C   0  0  0  0  0  0  0  0  0  0  0  0
    3.3404    1.0045   -0.5486 C   0  0  0  0  0  0  0  0  0  0  0  0
    2.2683    0.2028   -0.2697 C   0  0  0  0  0  0  0  0  0  0  0  0
   -0.8956   -2.4948    0.5344 C   0  0  0  0  0  0  0  0  0  0  0  0
   -2.3091   -2.1374    0.4116 C   0  0  0  0  0  0  0  0  0  0  0  0
   -2.7310   -1.2029   -0.7237 C   0  0  0  0  0  0  0  0  0  0  0  0
   -2.5272    0.2073   -0.2063 C   0  0  0  0  0  0  0  0  0  0  0  0
   -3.6101    0.9886   -0.0857 C   0  0  0  0  0  0  0  0  0  0  0  0
   -3.4777    2.2511    0.4940 C   0  0  0  0  0  0  0  0  0  0  0  0
   -2.2165    2.6608    0.9334 C   0  0  0  0  0  0  0  0  0  0  0  0
   -1.0866    1.8736    0.8200 C   0  0  0  0  0  0  0  0  0  0  0  0
   -1.2676    0.6607    0.2456 C   0  0  0  0  0  0  0  0  0  0  0  0
    1.4975    2.8390   -0.0707 H   0  0  0  0  0  0  0  0  0  0  0  0
    0.1028    2.5504   -1.1017 H   0  0  0  0  0  0  0  0  0  0  0  0
    3.8452   -2.7361   -0.0752 H   0  0  0  0  0  0  0  0  0  0  0  0
    5.8016   -1.3637   -0.5705 H   0  0  0  0  0  0  0  0  0  0  0  0
    5.4676    1.0737   -0.8783 H   0  0  0  0  0  0  0  0  0  0  0  0
    3.1959    2.0450   -0.6816 H   0  0  0  0  0  0  0  0  0  0  0  0
   -0.7029   -2.9528    1.5716 H   0  0  0  0  0  0  0  0  0  0  0  0
   -0.6825   -3.3897   -0.1514 H   0  0  0  0  0  0  0  0  0  0  0  0
   -2.8877   -3.0953    0.2449 H   0  0  0  0  0  0  0  0  0  0  0  0
   -2.7632   -1.7214    1.3429 H   0  0  0  0  0  0  0  0  0  0  0  0
   -2.1943   -1.3783   -1.6513 H   0  0  0  0  0  0  0  0  0  0  0  0
   -3.8256   -1.3263   -0.8432 H   0  0  0  0  0  0  0  0  0  0  0  0
   -4.5788    0.6518   -0.4304 H   0  0  0  0  0  0  0  0  0  0  0  0
   -4.3540    2.8784    0.5878 H   0  0  0  0  0  0  0  0  0  0  0  0
   -2.1337    3.6260    1.3745 H   0  0  0  0  0  0  0  0  0  0  0  0
   -0.1704    2.1747    1.2250 H   0  0  0  0  0  0  0  0  0  0  0  0
  1  2  1  0
  2  3  2  0
  3  4  1  0
  4  5  2  0
  5  6  1  0
  6  7  2  0
  7  8  1  0
  8  9  2  0
  9 10  1  0
 10 11  2  0
  4 12  1  0
 12 13  1  0
 13 14  1  0
 14 15  1  0
 15 16  2  0
 16 17  1  0
 17 18  2  0
 18 19  1  0
 19 20  2  0
 11  2  1  0
 20 15  1  0
 20  3  1  0
 11  6  1  0
  1 21  1  0
  1 22  1  0
  7 23  1  0
  8 24  1  0
  9 25  1  0
 10 26  1  0
 12 27  1  0
 12 28  1  0
 13 29  1  0
 13 30  1  0
 14 31  1  0
 14 32  1  0
 16 33  1  0
 17 34  1  0
 18 35  1  0
 19 36  1  0
M  END
$$$$
