@<TRIPOS>MOLECULE
*****
 36 39 0 0 0
SMALL
GASTEIGER

@<TRIPOS>ATOM
      1 N           0.8382    2.1227   -0.4713 N.pl3   1  UNL1       -0.3569
      2 C           1.0167    0.7767   -0.1670 C.ar    1  UNL1        0.0434
      3 C          -0.0132   -0.0718    0.1161 C.ar    1  UNL1        0.0249
      4 C           0.1280   -1.4680    0.2952 C.ar    1  UNL1        0.0514
      5 N           1.3751   -1.9586    0.1796 N.ar    1  UNL1       -0.2509
      6 C           2.4140   -1.1575   -0.0921 C.ar    1  UNL1        0.0731
      7 C           3.7085   -1.6726   -0.2108 C.ar    1  UNL1       -0.0357
      8 C           4.8059   -0.9043   -0.4884 C.ar    1  UNL1       -0.0597
      9 C           4.6220    0.4437   -0.6588 C.ar    1  UNL1       -0.0610
     10 C           3.3404    1.0045   -0.5486 C.ar    1  UNL1       -0.0508
     11 C           2.2683    0.2028   -0.2697 C.ar    1  UNL1        0.0216
     12 C          -0.8956   -2.4948    0.5344 C.3     1  UNL1       -0.0094
     13 C          -2.3091   -2.1374    0.4116 C.3     1  UNL1       -0.0436
     14 C          -2.7310   -1.2029   -0.7237 C.3     1  UNL1       -0.0268
     15 C          -2.5272    0.2073   -0.2063 C.ar    1  UNL1       -0.0395
     16 C          -3.6101    0.9886   -0.0857 C.ar    1  UNL1       -0.0580
     17 C          -3.4777    2.2511    0.4940 C.ar    1  UNL1       -0.0615
     18 C          -2.2165    2.6608    0.9334 C.ar    1  UNL1       -0.0612
     19 C          -1.0866    1.8736    0.8200 C.ar    1  UNL1       -0.0537
     20 C          -1.2676    0.6607    0.2456 C.ar    1  UNL1       -0.0112
     21 H           1.4975    2.8390   -0.0707 H       1  UNL1        0.1424
     22 H           0.1028    2.5504   -1.1017 H       1  UNL1        0.1424
     23 H           3.8452   -2.7361   -0.0752 H       1  UNL1        0.0639
     24 H           5.8016   -1.3637   -0.5705 H       1  UNL1        0.0618
     25 H           5.4676    1.0737   -0.8783 H       1  UNL1        0.0618
     26 H           3.1959    2.0450   -0.6816 H       1  UNL1        0.0625
     27 H          -0.7029   -2.9528    1.5716 H       1  UNL1        0.0328
     28 H          -0.6825   -3.3897   -0.1514 H       1  UNL1        0.0328
     29 H          -2.8877   -3.0953    0.2449 H       1  UNL1        0.0272
     30 H          -2.7632   -1.7214    1.3429 H       1  UNL1        0.0272
     31 H          -2.1943   -1.3783   -1.6513 H       1  UNL1        0.0313
     32 H          -3.8256   -1.3263   -0.8432 H       1  UNL1        0.0313
     33 H          -4.5788    0.6518   -0.4304 H       1  UNL1        0.0620
     34 H          -4.3540    2.8784    0.5878 H       1  UNL1        0.0618
     35 H          -2.1337    3.6260    1.3745 H       1  UNL1        0.0618
     36 H          -0.1704    2.1747    1.2250 H       1  UNL1        0.0624
@<TRIPOS>BOND
     1     1     2    1
     2     2     3   ar
     3     3     4   ar
     4     4     5   ar
     5     5     6   ar
     6     6     7   ar
     7     7     8   ar
     8     8     9   ar
     9     9    10   ar
    10    10    11   ar
    11     4    12    1
    12    12    13    1
    13    13    14    1
    14    14    15    1
    15    15    16   ar
    16    16    17   ar
    17    17    18   ar
    18    18    19   ar
    19    19    20   ar
    20    11     2   ar
    21    20    15   ar
    22    20     3    1
    23    11     6   ar
    24     1    21    1
    25     1    22    1
    26     7    23    1
    27     8    24    1
    28     9    25    1
    29    10    26    1
    30    12    27    1
    31    12    28    1
    32    13    29    1
    33    13    30    1
    34    14    31    1
    35    14    32    1
    36    16    33    1
    37    17    34    1
    38    18    35    1
    39    19    36    1
