@<TRIPOS>MOLECULE
*****
 55 55 0 0 0
SMALL
GASTEIGER

@<TRIPOS>ATOM
      1 C          -5.1043   -4.3748    0.4612 C.3     1  UNL1        0.0060
      2 N          -4.6267   -3.7951   -0.7918 N.am    1  UNL1       -0.2732
      3 C          -5.1343   -4.2245   -2.0973 C.3     1  UNL1        0.0060
      4 C          -3.6483   -2.7798   -0.8943 C.2     1  UNL1        0.4077
      5 O          -2.9524   -2.0142   -1.6061 O.2     1  UNL1       -0.2258
      6 O          -3.0200   -2.2067    0.1990 O.3     1  UNL1       -0.4113
      7 C          -2.0643   -1.2132    0.0595 C.ar    1  UNL1        0.1371
      8 C          -0.7502   -1.6258   -0.0328 C.ar    1  UNL1       -0.0133
      9 C           0.2321   -0.6460   -0.1727 C.ar    1  UNL1       -0.0110
     10 C          -0.1413    0.6960   -0.2134 C.ar    1  UNL1       -0.0133
     11 C          -1.4852    1.0542   -0.1159 C.ar    1  UNL1        0.1371
     12 O          -1.6545    2.4315   -0.1759 O.3     1  UNL1       -0.4113
     13 C          -1.9356    3.2401    0.8872 C.2     1  UNL1        0.4077
     14 O          -2.1487    3.3020    2.1248 O.2     1  UNL1       -0.2258
     15 N          -2.0392    4.6065    0.4388 N.am    1  UNL1       -0.2732
     16 C          -2.3424    5.7098    1.3538 C.3     1  UNL1        0.0060
     17 C          -1.8833    5.1720   -0.8856 C.3     1  UNL1        0.0060
     18 C          -2.4511    0.0987    0.0209 C.ar    1  UNL1        0.0233
     19 C           1.6815   -1.0488   -0.2890 C.3     1  UNL1        0.0928
     20 O           2.2312   -0.2941   -1.2981 O.3     1  UNL1       -0.3859
     21 C           2.3890   -0.7766    1.0002 C.3     1  UNL1        0.0266
     22 N           3.7409   -1.0657    1.1147 N.3     1  UNL1       -0.3085
     23 C           4.7640   -0.4097    0.4495 C.3     1  UNL1        0.0108
     24 C           4.7148    1.1016    0.4822 C.3     1  UNL1       -0.0473
     25 C           6.0647   -0.7356    1.2571 C.3     1  UNL1       -0.0473
     26 C           5.0333   -0.8624   -0.9516 C.3     1  UNL1       -0.0473
     27 H          -4.7748   -3.7208    1.2777 H       1  UNL1        0.0429
     28 H          -6.2029   -4.4572    0.3488 H       1  UNL1        0.0429
     29 H          -4.7233   -5.4315    0.5707 H       1  UNL1        0.0429
     30 H          -4.3124   -4.7760   -2.5955 H       1  UNL1        0.0429
     31 H          -5.3505   -3.3609   -2.7334 H       1  UNL1        0.0429
     32 H          -5.9685   -4.9430   -1.9775 H       1  UNL1        0.0429
     33 H          -0.4749   -2.6748    0.0008 H       1  UNL1        0.0658
     34 H           0.6921    1.3966   -0.3243 H       1  UNL1        0.0658
     35 H          -2.5499    5.3442    2.3757 H       1  UNL1        0.0429
     36 H          -3.2869    6.1747    0.9928 H       1  UNL1        0.0429
     37 H          -1.5536    6.4860    1.3118 H       1  UNL1        0.0429
     38 H          -1.0943    5.9628   -0.8560 H       1  UNL1        0.0429
     39 H          -2.8208    5.6414   -1.1863 H       1  UNL1        0.0429
     40 H          -1.5424    4.4103   -1.6230 H       1  UNL1        0.0429
     41 H          -3.4557    0.4481    0.0885 H       1  UNL1        0.0691
     42 H           1.6954   -2.1349   -0.5371 H       1  UNL1        0.0656
     43 H           1.5208   -0.0174   -1.9301 H       1  UNL1        0.2103
     44 H           1.8412   -1.4299    1.7664 H       1  UNL1        0.0453
     45 H           2.0934    0.2601    1.3183 H       1  UNL1        0.0453
     46 H           4.0122   -1.8175    1.7856 H       1  UNL1        0.1225
     47 H           5.7188    1.4355    0.1179 H       1  UNL1        0.0247
     48 H           3.9967    1.5369   -0.2413 H       1  UNL1        0.0247
     49 H           4.6408    1.5028    1.5061 H       1  UNL1        0.0247
     50 H           6.3087   -1.8000    1.1281 H       1  UNL1        0.0247
     51 H           6.8132   -0.0345    0.8656 H       1  UNL1        0.0247
     52 H           5.8241   -0.4345    2.2942 H       1  UNL1        0.0247
     53 H           4.8593   -0.0590   -1.7244 H       1  UNL1        0.0247
     54 H           6.1488   -1.0754   -1.0878 H       1  UNL1        0.0247
     55 H           4.4759   -1.7716   -1.2572 H       1  UNL1        0.0247
@<TRIPOS>BOND
     1     1     2    1
     2     2     3    1
     3     2     4   am
     4     4     5    2
     5     4     6    1
     6     6     7    1
     7     7     8   ar
     8     8     9   ar
     9     9    10   ar
    10    10    11   ar
    11    11    12    1
    12    12    13    1
    13    13    14    2
    14    13    15   am
    15    15    16    1
    16    15    17    1
    17    11    18   ar
    18     9    19    1
    19    19    20    1
    20    19    21    1
    21    21    22    1
    22    22    23    1
    23    23    24    1
    24    23    25    1
    25    23    26    1
    26    18     7   ar
    27     1    27    1
    28     1    28    1
    29     1    29    1
    30     3    30    1
    31     3    31    1
    32     3    32    1
    33     8    33    1
    34    10    34    1
    35    16    35    1
    36    16    36    1
    37    16    37    1
    38    17    38    1
    39    17    39    1
    40    17    40    1
    41    18    41    1
    42    19    42    1
    43    20    43    1
    44    21    44    1
    45    21    45    1
    46    22    46    1
    47    24    47    1
    48    24    48    1
    49    24    49    1
    50    25    50    1
    51    25    51    1
    52    25    52    1
    53    26    53    1
    54    26    54    1
    55    26    55    1
