@<TRIPOS>MOLECULE
*****
 59 63 0 0 0
SMALL
GASTEIGER

@<TRIPOS>ATOM
      1 C           6.0129    3.9154    0.8567 C.3     1  UNL1        0.0138
      2 C           6.7418    2.6452    1.0834 C.ar    1  UNL1        0.2144
      3 N           7.4990    2.2578    2.1301 N.ar    1  UNL1       -0.1126
      4 N           7.9465    1.0379    1.8857 N.ar    1  UNL1       -0.1088
      5 C           7.4717    0.6591    0.6876 C.ar    1  UNL1        0.2544
      6 C           7.7239   -0.6251    0.0293 C.3     1  UNL1        0.1684
      7 O           6.8149   -1.6373    0.3193 O.3     1  UNL1       -0.4657
      8 C           5.4508   -1.5957    0.0713 C.ar    1  UNL1        0.2339
      9 C           4.6751   -2.6842    0.4158 C.ar    1  UNL1        0.0898
     10 N           3.3420   -2.7162    0.2053 N.ar    1  UNL1       -0.2459
     11 C           2.7118   -1.6700   -0.3573 C.ar    1  UNL1        0.1172
     12 C           1.2715   -1.6574   -0.6057 C.2     1  UNL1        0.1507
     13 F           0.7090   -0.5643   -1.1693 F       1  UNL1       -0.2032
     14 C           0.4815   -2.6656   -0.3069 C.2     1  UNL1       -0.0171
     15 C          -0.9553   -2.7021   -0.5331 C.ar    1  UNL1       -0.0217
     16 C          -1.5241   -3.8991   -0.9276 C.ar    1  UNL1       -0.0518
     17 C          -2.8716   -4.0438   -1.1649 C.ar    1  UNL1       -0.0255
     18 C          -3.6872   -2.9464   -1.0013 C.ar    1  UNL1        0.1289
     19 F          -5.0156   -3.0381   -1.2219 F       1  UNL1       -0.2051
     20 C          -3.1299   -1.7370   -0.6052 C.ar    1  UNL1        0.0158
     21 C          -4.0480   -0.5501   -0.4291 C.3     1  UNL1        0.0946
     22 C          -4.7684   -0.3267   -1.7572 C.3     1  UNL1       -0.0351
     23 N          -4.9805   -0.9628    0.5901 N.2     1  UNL1       -0.2520
     24 C          -5.7116   -0.1786    1.2748 C.2     1  UNL1        0.1495
     25 N          -6.5938   -0.6468    2.2455 N.pl3   1  UNL1       -0.3380
     26 S          -5.5587    1.5637    0.9565 S.3     1  UNL1       -0.0611
     27 C          -3.7866    1.7902    0.5179 C.3     1  UNL1        0.1451
     28 S          -3.1929    3.4262    0.3161 S.O2    1  UNL1       -0.0183
     29 C          -4.0391    4.2939   -0.9536 C.3     1  UNL1        0.0560
     30 O          -3.3809    4.1961    1.6119 O.2     1  UNL1       -0.1733
     31 O          -1.7155    3.3348   -0.0003 O.2     1  UNL1       -0.1733
     32 C          -2.8207    0.8727    1.3127 C.3     1  UNL1       -0.0096
     33 C          -3.1947    0.6186   -0.1116 C.3     1  UNL1        0.0258
     34 C          -1.7776   -1.6221   -0.3750 C.ar    1  UNL1       -0.0463
     35 C           3.4902   -0.5850   -0.7000 C.ar    1  UNL1        0.0596
     36 N           4.8198   -0.5493   -0.4917 N.ar    1  UNL1       -0.2178
     37 O           6.7528    1.6417    0.2295 O.2     1  UNL1       -0.4214
     38 H           6.1760    4.2523   -0.2053 H       1  UNL1        0.0324
     39 H           4.9249    3.7894    1.0515 H       1  UNL1        0.0324
     40 H           6.4481    4.6962    1.5188 H       1  UNL1        0.0324
     41 H           7.8292   -0.4287   -1.0617 H       1  UNL1        0.0797
     42 H           8.7360   -0.9943    0.3593 H       1  UNL1        0.0797
     43 H           5.1925   -3.5401    0.8765 H       1  UNL1        0.0884
     44 H           0.9711   -3.5350    0.1480 H       1  UNL1        0.0653
     45 H          -0.8768   -4.7550   -1.0536 H       1  UNL1        0.0624
     46 H          -3.2866   -5.0102   -1.4774 H       1  UNL1        0.0646
     47 H          -4.9507    0.7561   -1.9337 H       1  UNL1        0.0256
     48 H          -5.7045   -0.9141   -1.8133 H       1  UNL1        0.0256
     49 H          -4.0653   -0.6577   -2.5510 H       1  UNL1        0.0256
     50 H          -6.5737   -0.3066    3.2311 H       1  UNL1        0.1442
     51 H          -7.3088   -1.3629    2.0024 H       1  UNL1        0.1442
     52 H          -5.1049    3.9783   -0.9790 H       1  UNL1        0.0464
     53 H          -3.6044    4.1429   -1.9505 H       1  UNL1        0.0464
     54 H          -4.0657    5.3903   -0.6845 H       1  UNL1        0.0464
     55 H          -3.2966    0.2120    2.0654 H       1  UNL1        0.0299
     56 H          -1.7880    1.2277    1.4552 H       1  UNL1        0.0299
     57 H          -2.4489    0.8420   -0.9176 H       1  UNL1        0.0358
     58 H          -1.3427   -0.6855   -0.0681 H       1  UNL1        0.0628
     59 H           2.9769    0.2533   -1.1522 H       1  UNL1        0.0853
@<TRIPOS>BOND
     1     1     2    1
     2     2     3   ar
     3     3     4   ar
     4     4     5   ar
     5     5     6    1
     6     6     7    1
     7     7     8    1
     8     8     9   ar
     9     9    10   ar
    10    10    11   ar
    11    11    12    1
    12    12    13    1
    13    12    14    2
    14    14    15    1
    15    15    16   ar
    16    16    17   ar
    17    17    18   ar
    18    18    19    1
    19    18    20   ar
    20    20    21    1
    21    21    22    1
    22    21    23    1
    23    23    24    2
    24    24    25    1
    25    24    26    1
    26    26    27    1
    27    27    28    1
    28    28    29    1
    29    28    30    2
    30    28    31    2
    31    27    32    1
    32    32    33    1
    33    20    34   ar
    34    11    35   ar
    35    35    36   ar
    36     5    37   ar
    37    37     2   ar
    38    36     8   ar
    39    34    15   ar
    40    33    21    1
    41    33    27    1
    42     1    38    1
    43     1    39    1
    44     1    40    1
    45     6    41    1
    46     6    42    1
    47     9    43    1
    48    14    44    1
    49    16    45    1
    50    17    46    1
    51    22    47    1
    52    22    48    1
    53    22    49    1
    54    25    50    1
    55    25    51    1
    56    29    52    1
    57    29    53    1
    58    29    54    1
    59    32    55    1
    60    32    56    1
    61    33    57    1
    62    34    58    1
    63    35    59    1
