
     RDKit          3D

 33 35  0  0  0  0  0  0  0  0999 V2000
   -2.5428    0.7029   -0.7729 C   0  0  1  0  0  0  0  0  0  0  0  0
   -3.6060    1.7170   -1.0494 C   0  0  0  0  0  0  0  0  0  0  0  0
   -3.9231    2.5066    0.0239 O   0  0  0  0  0  0  0  0  0  0  0  0
   -1.3331    1.2789   -0.3747 O   0  0  0  0  0  0  0  0  0  0  0  0
   -0.5903    0.0862   -0.2148 C   0  0  1  0  0  0  0  0  0  0  0  0
    0.7522    0.3015    0.2145 N   0  0  0  0  0  0  0  0  0  0  0  0
    1.2482    1.3487    0.9315 C   0  0  0  0  0  0  0  0  0  0  0  0
    2.6100    1.1724    1.1392 C   0  0  0  0  0  0  0  0  0  0  0  0
    3.9657    2.4146    2.1640 I   0  0  0  0  0  0  0  0  0  0  0  0
    2.8870   -0.0211    0.5134 C   0  0  0  0  0  0  0  0  0  0  0  0
    4.0867   -0.6914    0.3992 C   0  0  0  0  0  0  0  0  0  0  0  0
    5.3308   -0.2559    0.9332 N   0  0  0  0  0  0  0  0  0  0  0  0
    4.1608   -1.8685   -0.2632 N   0  0  0  0  0  0  0  0  0  0  0  0
    3.0467   -2.3988   -0.8224 C   0  0  0  0  0  0  0  0  0  0  0  0
    1.8692   -1.7491   -0.7150 N   0  0  0  0  0  0  0  0  0  0  0  0
    1.7560   -0.5640   -0.0569 C   0  0  0  0  0  0  0  0  0  0  0  0
   -1.4359   -0.7467    0.6974 C   0  0  2  0  0  0  0  0  0  0  0  0
   -1.4115   -2.0958    0.3372 O   0  0  0  0  0  0  0  0  0  0  0  0
   -2.8342   -0.2047    0.3698 C   0  0  2  0  0  0  0  0  0  0  0  0
   -3.6934   -1.1995   -0.0610 O   0  0  0  0  0  0  0  0  0  0  0  0
   -2.3709    0.0979   -1.6746 H   0  0  0  0  0  0  0  0  0  0  0  0
   -3.2101    2.3992   -1.8468 H   0  0  0  0  0  0  0  0  0  0  0  0
   -4.4631    1.1834   -1.5089 H   0  0  0  0  0  0  0  0  0  0  0  0
   -4.5315    2.0297    0.6610 H   0  0  0  0  0  0  0  0  0  0  0  0
   -0.6230   -0.3781   -1.2381 H   0  0  0  0  0  0  0  0  0  0  0  0
    0.6739    2.2048    1.2950 H   0  0  0  0  0  0  0  0  0  0  0  0
    5.6887    0.2216    1.7905 H   0  0  0  0  0  0  0  0  0  0  0  0
    6.2326   -0.3904    0.4208 H   0  0  0  0  0  0  0  0  0  0  0  0
    3.0327   -3.3421   -1.3699 H   0  0  0  0  0  0  0  0  0  0  0  0
   -1.1947   -0.6592    1.7648 H   0  0  0  0  0  0  0  0  0  0  0  0
   -1.9575   -2.1928   -0.4923 H   0  0  0  0  0  0  0  0  0  0  0  0
   -3.1720    0.3154    1.2858 H   0  0  0  0  0  0  0  0  0  0  0  0
   -4.4479   -1.2227    0.6009 H   0  0  0  0  0  0  0  0  0  0  0  0
  1  2  1  0
  2  3  1  0
  1  4  1  0
  4  5  1  0
  5  6  1  0
  6  7  1  0
  7  8  2  0
  8  9  1  0
  8 10  1  0
 10 11  2  0
 11 12  1  0
 11 13  1  0
 13 14  2  0
 14 15  1  0
 15 16  2  0
  5 17  1  0
 17 18  1  0
 17 19  1  0
 19 20  1  0
 19  1  1  0
 16  6  1  0
 16 10  1  0
  1 21  1  6
  2 22  1  0
  2 23  1  0
  3 24  1  0
  5 25  1  6
  7 26  1  0
 12 27  1  0
 12 28  1  0
 14 29  1  0
 17 30  1  1
 18 31  1  0
 19 32  1  1
 20 33  1  0
M  END
$$$$
