@<TRIPOS>MOLECULE
*****
 33 35 0 0 0
SMALL
GASTEIGER

@<TRIPOS>ATOM
      1 C4*        -2.5428    0.7029   -0.7729 C.3     1  UNL1        0.1126
      2 C5*        -3.6060    1.7170   -1.0494 C.3     1  UNL1        0.0730
      3 O5*        -3.9231    2.5066    0.0239 O.3     1  UNL1       -0.3924
      4 O4*        -1.3331    1.2789   -0.3747 O.3     1  UNL1       -0.3457
      5 C1*        -0.5903    0.0862   -0.2148 C.3     1  UNL1        0.1655
      6 N           0.7522    0.3015    0.2145 N.ar    1  UNL1       -0.3020
      7 C           1.2482    1.3487    0.9315 C.ar    1  UNL1        0.0229
      8 C           2.6100    1.1724    1.1392 C.ar    1  UNL1        0.0435
      9 I           3.9657    2.4146    2.1640 I       1  UNL1       -0.0415
     10 C           2.8870   -0.0211    0.5134 C.ar    1  UNL1        0.0715
     11 C           4.0867   -0.6914    0.3992 C.ar    1  UNL1        0.1297
     12 N           5.3308   -0.2559    0.9332 N.pl3   1  UNL1       -0.3425
     13 N           4.1608   -1.8685   -0.2632 N.ar    1  UNL1       -0.2204
     14 C           3.0467   -2.3988   -0.8224 C.ar    1  UNL1        0.1204
     15 N           1.8692   -1.7491   -0.7150 N.ar    1  UNL1       -0.2175
     16 C           1.7560   -0.5640   -0.0569 C.ar    1  UNL1        0.1488
     17 C2*        -1.4359   -0.7467    0.6974 C.3     1  UNL1        0.1285
     18 O2*        -1.4115   -2.0958    0.3372 O.3     1  UNL1       -0.3847
     19 C3*        -2.8342   -0.2047    0.3698 C.3     1  UNL1        0.1135
     20 O3*        -3.6934   -1.1995   -0.0610 O.3     1  UNL1       -0.3864
     21 H4*        -2.3709    0.0979   -1.6746 H       1  UNL1        0.0647
     22 H5*1       -3.2101    2.3992   -1.8468 H       1  UNL1        0.0584
     23 H5*2       -4.4631    1.1834   -1.5089 H       1  UNL1        0.0584
     24 H5*        -4.5315    2.0297    0.6610 H       1  UNL1        0.2095
     25 H1*        -0.6230   -0.3781   -1.2381 H       1  UNL1        0.0866
     26 H           0.6739    2.2048    1.2950 H       1  UNL1        0.0821
     27 H           5.6887    0.2216    1.7905 H       1  UNL1        0.1437
     28 H           6.2326   -0.3904    0.4208 H       1  UNL1        0.1437
     29 H           3.0327   -3.3421   -1.3699 H       1  UNL1        0.1048
     30 H2*        -1.1947   -0.6592    1.7648 H       1  UNL1        0.0665
     31 H2*        -1.9575   -2.1928   -0.4923 H       1  UNL1        0.2101
     32 H3*        -3.1720    0.3154    1.2858 H       1  UNL1        0.0647
     33 H3*        -4.4479   -1.2227    0.6009 H       1  UNL1        0.2100
@<TRIPOS>BOND
     1     1     2    1
     2     2     3    1
     3     1     4    1
     4     4     5    1
     5     5     6    1
     6     6     7   ar
     7     7     8   ar
     8     8     9    1
     9     8    10   ar
    10    10    11   ar
    11    11    12    1
    12    11    13   ar
    13    13    14   ar
    14    14    15   ar
    15    15    16   ar
    16     5    17    1
    17    17    18    1
    18    17    19    1
    19    19    20    1
    20    19     1    1
    21    16     6   ar
    22    16    10   ar
    23     1    21    1
    24     2    22    1
    25     2    23    1
    26     3    24    1
    27     5    25    1
    28     7    26    1
    29    12    27    1
    30    12    28    1
    31    14    29    1
    32    17    30    1
    33    18    31    1
    34    19    32    1
    35    20    33    1
