
     RDKit          3D

 49 52  0  0  0  0  0  0  0  0999 V2000
    3.8446   -2.0891   -0.7299 C   0  0  0  0  0  0  0  0  0  0  0  0
    4.2591   -0.6824   -0.5181 C   0  0  0  0  0  0  0  0  0  0  0  0
    5.5657   -0.3164   -0.2046 C   0  0  0  0  0  0  0  0  0  0  0  0
    5.9608    0.9890   -0.0057 C   0  0  0  0  0  0  0  0  0  0  0  0
    7.2400    1.3948    0.3053 O   0  0  0  0  0  0  0  0  0  0  0  0
    8.3340    0.5433    0.4670 C   0  0  0  0  0  0  0  0  0  0  0  0
    8.8679    0.6663    1.7562 F   0  0  0  0  0  0  0  0  0  0  0  0
    9.3869    0.8734   -0.3770 F   0  0  0  0  0  0  0  0  0  0  0  0
    4.9427    1.9474   -0.1418 C   0  0  0  0  0  0  0  0  0  0  0  0
    3.6912    1.5898   -0.4427 N   0  0  0  0  0  0  0  0  0  0  0  0
    3.3046    0.3021   -0.6381 C   0  0  0  0  0  0  0  0  0  0  0  0
    1.9122    0.0361   -0.9614 C   0  0  0  0  0  0  0  0  0  0  0  0
    1.5517   -1.1539   -1.1427 O   0  0  0  0  0  0  0  0  0  0  0  0
    0.9911    1.1067   -1.0667 N   0  0  0  0  0  0  0  0  0  0  0  0
   -0.3524    0.7938   -1.3836 C   0  0  0  0  0  0  0  0  0  0  0  0
   -0.8195    0.7264   -2.6724 C   0  0  0  0  0  0  0  0  0  0  0  0
   -2.1468    0.4151   -2.9218 C   0  0  0  0  0  0  0  0  0  0  0  0
   -2.7549    0.3265   -4.5721 Cl  0  0  0  0  0  0  0  0  0  0  0  0
   -2.9849    0.1754   -1.8524 C   0  0  0  0  0  0  0  0  0  0  0  0
   -4.2925   -0.1309   -2.1131 F   0  0  0  0  0  0  0  0  0  0  0  0
   -2.5481    0.2347   -0.5452 C   0  0  0  0  0  0  0  0  0  0  0  0
   -3.4835   -0.0240    0.5788 C   0  0  1  0  0  0  0  0  0  0  0  0
   -2.8272    0.2041    1.9000 C   0  0  0  0  0  0  0  0  0  0  0  0
   -3.7349   -0.0216    2.9437 F   0  0  0  0  0  0  0  0  0  0  0  0
   -4.5406    0.9940    0.4674 N   0  0  0  0  0  0  0  0  0  0  0  0
   -5.7053    0.8578    0.9697 C   0  0  0  0  0  0  0  0  0  0  0  0
   -6.7151    1.8760    0.8416 N   0  0  0  0  0  0  0  0  0  0  0  0
   -5.9464   -0.3403    1.6534 O   0  0  0  0  0  0  0  0  0  0  0  0
   -5.4668   -1.5140    1.0378 C   0  0  2  0  0  0  0  0  0  0  0  0
   -4.3477   -2.3077    1.5486 C   0  0  0  0  0  0  0  0  0  0  0  0
   -4.1308   -1.3848    0.4391 C   0  0  2  0  0  0  0  0  0  0  0  0
   -1.2313    0.5446   -0.3207 C   0  0  0  0  0  0  0  0  0  0  0  0
    4.7538   -2.7317   -0.6110 H   0  0  0  0  0  0  0  0  0  0  0  0
    3.5224   -2.2311   -1.7759 H   0  0  0  0  0  0  0  0  0  0  0  0
    3.1092   -2.4447    0.0203 H   0  0  0  0  0  0  0  0  0  0  0  0
    6.2916   -1.1191   -0.1180 H   0  0  0  0  0  0  0  0  0  0  0  0
    8.1216   -0.5304    0.3279 H   0  0  0  0  0  0  0  0  0  0  0  0
    5.2404    2.9796    0.0123 H   0  0  0  0  0  0  0  0  0  0  0  0
    1.3495    2.0738   -0.9053 H   0  0  0  0  0  0  0  0  0  0  0  0
   -0.1489    0.9176   -3.5104 H   0  0  0  0  0  0  0  0  0  0  0  0
   -1.9243   -0.4327    2.0518 H   0  0  0  0  0  0  0  0  0  0  0  0
   -2.5442    1.2712    1.9714 H   0  0  0  0  0  0  0  0  0  0  0  0
   -6.6106    2.5791    0.0948 H   0  0  0  0  0  0  0  0  0  0  0  0
   -7.5231    1.9162    1.4673 H   0  0  0  0  0  0  0  0  0  0  0  0
   -6.2704   -2.0118    0.4180 H   0  0  0  0  0  0  0  0  0  0  0  0
   -4.4093   -3.4099    1.2691 H   0  0  0  0  0  0  0  0  0  0  0  0
   -3.9437   -2.2134    2.5637 H   0  0  0  0  0  0  0  0  0  0  0  0
   -3.9479   -1.8400   -0.5818 H   0  0  0  0  0  0  0  0  0  0  0  0
   -0.8898    0.5951    0.7024 H   0  0  0  0  0  0  0  0  0  0  0  0
  1  2  1  0
  2  3  2  0
  3  4  1  0
  4  5  1  0
  5  6  1  0
  6  7  1  0
  6  8  1  0
  4  9  2  0
  9 10  1  0
 10 11  2  0
 11 12  1  0
 12 13  2  0
 12 14  1  0
 14 15  1  0
 15 16  2  0
 16 17  1  0
 17 18  1  0
 17 19  2  0
 19 20  1  0
 19 21  1  0
 21 22  1  0
 22 23  1  1
 23 24  1  0
 22 25  1  0
 25 26  2  0
 26 27  1  0
 26 28  1  0
 28 29  1  0
 29 30  1  0
 30 31  1  0
 21 32  2  0
 11  2  1  0
 32 15  1  0
 31 22  1  0
 31 29  1  0
  1 33  1  0
  1 34  1  0
  1 35  1  0
  3 36  1  0
  6 37  1  0
  9 38  1  0
 14 39  1  0
 16 40  1  0
 23 41  1  0
 23 42  1  0
 27 43  1  0
 27 44  1  0
 29 45  1  6
 30 46  1  0
 30 47  1  0
 31 48  1  6
 32 49  1  0
M  END
$$$$
