@<TRIPOS>MOLECULE
*****
 49 52 0 0 0
SMALL
GASTEIGER

@<TRIPOS>ATOM
      1 C           3.8446   -2.0891   -0.7299 C.3     1  UNL1       -0.0374
      2 C           4.2591   -0.6824   -0.5181 C.ar    1  UNL1       -0.0165
      3 C           5.5657   -0.3164   -0.2046 C.ar    1  UNL1       -0.0131
      4 C           5.9608    0.9890   -0.0057 C.ar    1  UNL1        0.1452
      5 O           7.2400    1.3948    0.3053 O.3     1  UNL1       -0.4327
      6 C           8.3340    0.5433    0.4670 C.3     1  UNL1        0.3893
      7 F           8.8679    0.6663    1.7562 F       1  UNL1       -0.1663
      8 F           9.3869    0.8734   -0.3770 F       1  UNL1       -0.1663
      9 C           4.9427    1.9474   -0.1418 C.ar    1  UNL1        0.0703
     10 N           3.6912    1.5898   -0.4427 N.ar    1  UNL1       -0.2465
     11 C           3.3046    0.3021   -0.6381 C.ar    1  UNL1        0.1288
     12 C           1.9122    0.0361   -0.9614 C.2     1  UNL1        0.2668
     13 O           1.5517   -1.1539   -1.1427 O.2     1  UNL1       -0.2682
     14 N           0.9911    1.1067   -1.0667 N.am    1  UNL1       -0.2802
     15 C          -0.3524    0.7938   -1.3836 C.ar    1  UNL1        0.0356
     16 C          -0.8195    0.7264   -2.6724 C.ar    1  UNL1       -0.0193
     17 C          -2.1468    0.4151   -2.9218 C.ar    1  UNL1        0.0782
     18 CL         -2.7549    0.3265   -4.5721 Cl      1  UNL1       -0.0805
     19 C          -2.9849    0.1754   -1.8524 C.ar    1  UNL1        0.1473
     20 F          -4.2925   -0.1309   -2.1131 F       1  UNL1       -0.2036
     21 C          -2.5481    0.2347   -0.5452 C.ar    1  UNL1        0.0213
     22 C          -3.4835   -0.0240    0.5788 C.3     1  UNL1        0.1285
     23 C          -2.8272    0.2041    1.9000 C.3     1  UNL1        0.1199
     24 F          -3.7349   -0.0216    2.9437 F       1  UNL1       -0.2462
     25 N          -4.5406    0.9940    0.4674 N.2     1  UNL1       -0.2225
     26 C          -5.7053    0.8578    0.9697 C.2     1  UNL1        0.2763
     27 N          -6.7151    1.8760    0.8416 N.pl3   1  UNL1       -0.3134
     28 O          -5.9464   -0.3403    1.6534 O.2     1  UNL1       -0.4622
     29 C          -5.4668   -1.5140    1.0378 C.3     1  UNL1        0.1090
     30 C          -4.3477   -2.3077    1.5486 C.3     1  UNL1       -0.0065
     31 C          -4.1308   -1.3848    0.4391 C.3     1  UNL1        0.0315
     32 C          -1.2313    0.5446   -0.3207 C.ar    1  UNL1       -0.0321
     33 H           4.7538   -2.7317   -0.6110 H       1  UNL1        0.0278
     34 H           3.5224   -2.2311   -1.7759 H       1  UNL1        0.0278
     35 H           3.1092   -2.4447    0.0203 H       1  UNL1        0.0278
     36 H           6.2916   -1.1191   -0.1180 H       1  UNL1        0.0658
     37 H           8.1216   -0.5304    0.3279 H       1  UNL1        0.1520
     38 H           5.2404    2.9796    0.0123 H       1  UNL1        0.0867
     39 H           1.3495    2.0738   -0.9053 H       1  UNL1        0.1552
     40 H          -0.1489    0.9176   -3.5104 H       1  UNL1        0.0652
     41 H          -1.9243   -0.4327    2.0518 H       1  UNL1        0.0643
     42 H          -2.5442    1.2712    1.9714 H       1  UNL1        0.0643
     43 H          -6.6106    2.5791    0.0948 H       1  UNL1        0.1466
     44 H          -7.5231    1.9162    1.4673 H       1  UNL1        0.1466
     45 H          -6.2704   -2.0118    0.4180 H       1  UNL1        0.0737
     46 H          -4.4093   -3.4099    1.2691 H       1  UNL1        0.0306
     47 H          -3.9437   -2.2134    2.5637 H       1  UNL1        0.0306
     48 H          -3.9479   -1.8400   -0.5818 H       1  UNL1        0.0365
     49 H          -0.8898    0.5951    0.7024 H       1  UNL1        0.0640
@<TRIPOS>BOND
     1     1     2    1
     2     2     3   ar
     3     3     4   ar
     4     4     5    1
     5     5     6    1
     6     6     7    1
     7     6     8    1
     8     4     9   ar
     9     9    10   ar
    10    10    11   ar
    11    11    12    1
    12    12    13    2
    13    12    14   am
    14    14    15    1
    15    15    16   ar
    16    16    17   ar
    17    17    18    1
    18    17    19   ar
    19    19    20    1
    20    19    21   ar
    21    21    22    1
    22    22    23    1
    23    23    24    1
    24    22    25    1
    25    25    26    2
    26    26    27    1
    27    26    28    1
    28    28    29    1
    29    29    30    1
    30    30    31    1
    31    21    32   ar
    32    11     2   ar
    33    32    15   ar
    34    31    22    1
    35    31    29    1
    36     1    33    1
    37     1    34    1
    38     1    35    1
    39     3    36    1
    40     6    37    1
    41     9    38    1
    42    14    39    1
    43    16    40    1
    44    23    41    1
    45    23    42    1
    46    27    43    1
    47    27    44    1
    48    29    45    1
    49    30    46    1
    50    30    47    1
    51    31    48    1
    52    32    49    1
