@<TRIPOS>MOLECULE
*****
 52 54 0 0 0
SMALL
GASTEIGER

@<TRIPOS>ATOM
      1 C           0.5312   -3.6769   -1.1015 C.3     1  UNL1       -0.0612
      2 C           0.9741   -2.6199   -2.0324 C.3     1  UNL1       -0.0273
      3 C           1.8559   -1.6160   -1.4081 C.ar    1  UNL1       -0.0084
      4 C           3.2465   -1.7774   -1.5986 C.ar    1  UNL1        0.0332
      5 N           4.1473   -0.9161   -1.1150 N.ar    1  UNL1       -0.2545
      6 C           3.8137    0.1761   -0.4074 C.ar    1  UNL1        0.0755
      7 C           4.8423    1.0671    0.0912 C.ar    1  UNL1        0.0369
      8 C           4.5315    2.1923    0.8174 C.ar    1  UNL1       -0.0314
      9 C           5.5435    3.0283    1.2846 C.ar    1  UNL1        0.0418
     10 CL          5.1332    4.4619    2.2113 Cl      1  UNL1       -0.0835
     11 C           6.8756    2.7655    1.0417 C.ar    1  UNL1       -0.0406
     12 C           7.1979    1.6403    0.3148 C.ar    1  UNL1       -0.0244
     13 C           6.1848    0.8304   -0.1359 C.ar    1  UNL1        0.1326
     14 F           6.5104   -0.2729   -0.8494 F       1  UNL1       -0.2048
     15 C           2.4697    0.3643   -0.2023 C.ar    1  UNL1       -0.0142
     16 C           1.4954   -0.5170   -0.6928 C.ar    1  UNL1        0.0380
     17 N           0.1100   -0.1858   -0.5255 N.pl3   1  UNL1       -0.3135
     18 C          -0.7061   -0.8520    0.4173 C.ar    1  UNL1        0.0465
     19 C          -0.0742   -1.7375    1.3285 C.ar    1  UNL1       -0.0217
     20 C          -0.8597   -2.3640    2.2548 C.ar    1  UNL1        0.0293
     21 N          -2.1917   -2.1629    2.3191 N.ar    1  UNL1       -0.2624
     22 C          -2.8108   -1.3287    1.4646 C.ar    1  UNL1        0.0415
     23 C          -2.0470   -0.6525    0.4831 C.ar    1  UNL1        0.0758
     24 C          -2.7620    0.1897   -0.4409 C.2     1  UNL1        0.2474
     25 O          -2.2004    0.6816   -1.4430 O.2     1  UNL1       -0.2701
     26 N          -4.1452    0.5504   -0.3245 N.am    1  UNL1       -0.3088
     27 C          -4.7959    1.4027   -1.3018 C.3     1  UNL1        0.0377
     28 C          -6.2592    1.6115   -0.9021 C.3     1  UNL1        0.0679
     29 C          -6.3728    2.2980    0.4324 C.3     1  UNL1       -0.0375
     30 O          -6.9474    0.4063   -0.8340 O.3     1  UNL1       -0.3905
     31 H          -0.5516   -3.6114   -0.8193 H       1  UNL1        0.0233
     32 H           1.1868   -3.8121   -0.2140 H       1  UNL1        0.0233
     33 H           0.5945   -4.6761   -1.6289 H       1  UNL1        0.0233
     34 H           1.4952   -3.1159   -2.9097 H       1  UNL1        0.0312
     35 H           0.1278   -2.0797   -2.5307 H       1  UNL1        0.0312
     36 H           3.5668   -2.6563   -2.1707 H       1  UNL1        0.0833
     37 H           3.5384    2.4783    1.0553 H       1  UNL1        0.0639
     38 H           7.6662    3.4066    1.3996 H       1  UNL1        0.0633
     39 H           8.2460    1.4401    0.1283 H       1  UNL1        0.0647
     40 H           2.1278    1.2119    0.3513 H       1  UNL1        0.0658
     41 H          -0.2080    0.5734   -1.1305 H       1  UNL1        0.1522
     42 H           0.9726   -1.8918    1.2730 H       1  UNL1        0.0651
     43 H          -0.4304   -3.0617    2.9886 H       1  UNL1        0.0830
     44 H          -3.8817   -1.1697    1.5136 H       1  UNL1        0.0838
     45 H          -4.6831    0.1986    0.4742 H       1  UNL1        0.1491
     46 H          -4.7982    1.0089   -2.3156 H       1  UNL1        0.0487
     47 H          -4.3084    2.3860   -1.2535 H       1  UNL1        0.0487
     48 H          -6.7822    2.2183   -1.6713 H       1  UNL1        0.0606
     49 H          -5.4775    2.9420    0.5830 H       1  UNL1        0.0255
     50 H          -7.2625    2.9766    0.3863 H       1  UNL1        0.0255
     51 H          -6.5544    1.6153    1.2655 H       1  UNL1        0.0255
     52 H          -7.8745    0.6316   -0.5838 H       1  UNL1        0.2098
@<TRIPOS>BOND
     1     1     2    1
     2     2     3    1
     3     3     4   ar
     4     4     5   ar
     5     5     6   ar
     6     6     7    1
     7     7     8   ar
     8     8     9   ar
     9     9    10    1
    10     9    11   ar
    11    11    12   ar
    12    12    13   ar
    13    13    14    1
    14     6    15   ar
    15    15    16   ar
    16    16    17    1
    17    17    18    1
    18    18    19   ar
    19    19    20   ar
    20    20    21   ar
    21    21    22   ar
    22    22    23   ar
    23    23    24    1
    24    24    25    2
    25    24    26   am
    26    26    27    1
    27    27    28    1
    28    28    29    1
    29    28    30    1
    30    16     3   ar
    31    23    18   ar
    32    13     7   ar
    33     1    31    1
    34     1    32    1
    35     1    33    1
    36     2    34    1
    37     2    35    1
    38     4    36    1
    39     8    37    1
    40    11    38    1
    41    12    39    1
    42    15    40    1
    43    17    41    1
    44    19    42    1
    45    20    43    1
    46    22    44    1
    47    26    45    1
    48    27    46    1
    49    27    47    1
    50    28    48    1
    51    29    49    1
    52    29    50    1
    53    29    51    1
    54    30    52    1
