@<TRIPOS>MOLECULE
*****
 49 53 0 0 0
SMALL
GASTEIGER

@<TRIPOS>ATOM
      1 C          -0.6936   -0.0415    1.0975 C.3     1  UNL1        0.0150
      2 N          -0.6847   -0.6810   -0.1928 N.ar    1  UNL1       -0.3133
      3 C           0.4383   -0.8772   -0.9303 C.ar    1  UNL1        0.1640
      4 C           1.7858   -0.4825   -0.5505 C.ar    1  UNL1        0.0193
      5 C           2.3602   -0.8053    0.6437 C.ar    1  UNL1       -0.0504
      6 C           3.6428   -0.4141    0.9764 C.ar    1  UNL1       -0.0518
      7 C           4.4167    0.3255    0.1198 C.ar    1  UNL1        0.0019
      8 C           5.7701    0.7795    0.3987 C.ar    1  UNL1        0.0890
      9 C           6.3885    0.4942    1.5905 C.ar    1  UNL1        0.0535
     10 N           7.6591    0.9271    1.8490 N.ar    1  UNL1       -0.2596
     11 C           8.3156    1.6430    0.9243 C.ar    1  UNL1        0.0457
     12 C           7.7227    1.9477   -0.2851 C.ar    1  UNL1        0.0464
     13 N           6.4746    1.5053   -0.5019 N.ar    1  UNL1       -0.2520
     14 C           3.8270    0.6535   -1.0993 C.ar    1  UNL1       -0.0518
     15 C           2.5534    0.2739   -1.4472 C.ar    1  UNL1       -0.0504
     16 N           0.0384   -1.4919   -2.0447 N.ar    1  UNL1       -0.1291
     17 N          -1.2721   -1.6691   -2.0012 N.ar    1  UNL1       -0.1331
     18 C          -1.7439   -1.1586   -0.8301 C.ar    1  UNL1        0.1440
     19 C          -3.1654   -1.1844   -0.4463 C.3     1  UNL1        0.0554
     20 C          -3.8207    0.1147   -0.2938 C.ar    1  UNL1       -0.0338
     21 C          -3.9657    0.9506   -1.3673 C.ar    1  UNL1       -0.0562
     22 C          -4.5802    2.1603   -1.2182 C.ar    1  UNL1       -0.0431
     23 C          -5.0698    2.5779    0.0002 C.ar    1  UNL1        0.0410
     24 CL         -5.8620    4.1317    0.2006 Cl      1  UNL1       -0.0835
     25 C          -4.9344    1.7554    1.0865 C.ar    1  UNL1       -0.0431
     26 C          -4.3011    0.5128    0.9252 C.ar    1  UNL1       -0.0562
     27 C          -3.5148   -2.2209    0.5785 C.3     1  UNL1       -0.0364
     28 C          -4.7123   -2.6714   -0.2439 C.3     1  UNL1       -0.0507
     29 C          -4.0202   -2.0258   -1.4335 C.3     1  UNL1       -0.0364
     30 H          -0.7321   -0.8199    1.9030 H       1  UNL1        0.0457
     31 H          -1.4479    0.7394    1.2046 H       1  UNL1        0.0457
     32 H           0.2937    0.4798    1.2681 H       1  UNL1        0.0457
     33 H           1.7666   -1.3967    1.3445 H       1  UNL1        0.0625
     34 H           4.0465   -0.7005    1.9395 H       1  UNL1        0.0624
     35 H           5.9010   -0.0767    2.3647 H       1  UNL1        0.0851
     36 H           9.3302    2.0073    1.0902 H       1  UNL1        0.0845
     37 H           8.2655    2.5325   -1.0339 H       1  UNL1        0.0845
     38 H           4.4312    1.2423   -1.7912 H       1  UNL1        0.0624
     39 H           2.1106    0.5407   -2.4068 H       1  UNL1        0.0625
     40 H          -3.5923    0.6449   -2.3260 H       1  UNL1        0.0621
     41 H          -4.7146    2.8568   -2.0541 H       1  UNL1        0.0632
     42 H          -5.3164    2.0779    2.0426 H       1  UNL1        0.0632
     43 H          -4.2449   -0.0554    1.8436 H       1  UNL1        0.0621
     44 H          -2.7897   -3.0858    0.6022 H       1  UNL1        0.0278
     45 H          -3.6999   -1.9200    1.6065 H       1  UNL1        0.0278
     46 H          -4.8253   -3.7492   -0.3845 H       1  UNL1        0.0266
     47 H          -5.6735   -2.2023    0.0209 H       1  UNL1        0.0266
     48 H          -3.4292   -2.7030   -2.0556 H       1  UNL1        0.0278
     49 H          -4.7321   -1.4416   -2.0252 H       1  UNL1        0.0278
@<TRIPOS>BOND
     1     1     2    1
     2     2     3   ar
     3     3     4    1
     4     4     5   ar
     5     5     6   ar
     6     6     7   ar
     7     7     8    1
     8     8     9   ar
     9     9    10   ar
    10    10    11   ar
    11    11    12   ar
    12    12    13   ar
    13     7    14   ar
    14    14    15   ar
    15     3    16   ar
    16    16    17   ar
    17    17    18   ar
    18    18    19    1
    19    19    20    1
    20    20    21   ar
    21    21    22   ar
    22    22    23   ar
    23    23    24    1
    24    23    25   ar
    25    25    26   ar
    26    19    27    1
    27    27    28    1
    28    28    29    1
    29    18     2   ar
    30    29    19    1
    31    15     4   ar
    32    26    20   ar
    33    13     8   ar
    34     1    30    1
    35     1    31    1
    36     1    32    1
    37     5    33    1
    38     6    34    1
    39     9    35    1
    40    11    36    1
    41    12    37    1
    42    14    38    1
    43    15    39    1
    44    21    40    1
    45    22    41    1
    46    25    42    1
    47    26    43    1
    48    27    44    1
    49    27    45    1
    50    28    46    1
    51    28    47    1
    52    29    48    1
    53    29    49    1
