
     RDKit          3D

 49 53  0  0  0  0  0  0  0  0999 V2000
   -0.6936   -0.0415    1.0975 C   0  0  0  0  0  0  0  0  0  0  0  0
   -0.6847   -0.6810   -0.1928 N   0  0  0  0  0  0  0  0  0  0  0  0
    0.4383   -0.8772   -0.9303 C   0  0  0  0  0  0  0  0  0  0  0  0
    1.7858   -0.4825   -0.5505 C   0  0  0  0  0  0  0  0  0  0  0  0
    2.3602   -0.8053    0.6437 C   0  0  0  0  0  0  0  0  0  0  0  0
    3.6428   -0.4141    0.9764 C   0  0  0  0  0  0  0  0  0  0  0  0
    4.4167    0.3255    0.1198 C   0  0  0  0  0  0  0  0  0  0  0  0
    5.7701    0.7795    0.3987 C   0  0  0  0  0  0  0  0  0  0  0  0
    6.3885    0.4942    1.5905 C   0  0  0  0  0  0  0  0  0  0  0  0
    7.6591    0.9271    1.8490 N   0  0  0  0  0  0  0  0  0  0  0  0
    8.3156    1.6430    0.9243 C   0  0  0  0  0  0  0  0  0  0  0  0
    7.7227    1.9477   -0.2851 C   0  0  0  0  0  0  0  0  0  0  0  0
    6.4746    1.5053   -0.5019 N   0  0  0  0  0  0  0  0  0  0  0  0
    3.8270    0.6535   -1.0993 C   0  0  0  0  0  0  0  0  0  0  0  0
    2.5534    0.2739   -1.4472 C   0  0  0  0  0  0  0  0  0  0  0  0
    0.0384   -1.4919   -2.0447 N   0  0  0  0  0  0  0  0  0  0  0  0
   -1.2721   -1.6691   -2.0012 N   0  0  0  0  0  0  0  0  0  0  0  0
   -1.7439   -1.1586   -0.8301 C   0  0  0  0  0  0  0  0  0  0  0  0
   -3.1654   -1.1844   -0.4463 C   0  0  0  0  0  0  0  0  0  0  0  0
   -3.8207    0.1147   -0.2938 C   0  0  0  0  0  0  0  0  0  0  0  0
   -3.9657    0.9506   -1.3673 C   0  0  0  0  0  0  0  0  0  0  0  0
   -4.5802    2.1603   -1.2182 C   0  0  0  0  0  0  0  0  0  0  0  0
   -5.0698    2.5779    0.0002 C   0  0  0  0  0  0  0  0  0  0  0  0
   -5.8620    4.1317    0.2006 Cl  0  0  0  0  0  0  0  0  0  0  0  0
   -4.9344    1.7554    1.0865 C   0  0  0  0  0  0  0  0  0  0  0  0
   -4.3011    0.5128    0.9252 C   0  0  0  0  0  0  0  0  0  0  0  0
   -3.5148   -2.2209    0.5785 C   0  0  0  0  0  0  0  0  0  0  0  0
   -4.7123   -2.6714   -0.2439 C   0  0  0  0  0  0  0  0  0  0  0  0
   -4.0202   -2.0258   -1.4335 C   0  0  0  0  0  0  0  0  0  0  0  0
   -0.7321   -0.8199    1.9030 H   0  0  0  0  0  0  0  0  0  0  0  0
   -1.4479    0.7394    1.2046 H   0  0  0  0  0  0  0  0  0  0  0  0
    0.2937    0.4798    1.2681 H   0  0  0  0  0  0  0  0  0  0  0  0
    1.7666   -1.3967    1.3445 H   0  0  0  0  0  0  0  0  0  0  0  0
    4.0465   -0.7005    1.9395 H   0  0  0  0  0  0  0  0  0  0  0  0
    5.9010   -0.0767    2.3647 H   0  0  0  0  0  0  0  0  0  0  0  0
    9.3302    2.0073    1.0902 H   0  0  0  0  0  0  0  0  0  0  0  0
    8.2655    2.5325   -1.0339 H   0  0  0  0  0  0  0  0  0  0  0  0
    4.4312    1.2423   -1.7912 H   0  0  0  0  0  0  0  0  0  0  0  0
    2.1106    0.5407   -2.4068 H   0  0  0  0  0  0  0  0  0  0  0  0
   -3.5923    0.6449   -2.3260 H   0  0  0  0  0  0  0  0  0  0  0  0
   -4.7146    2.8568   -2.0541 H   0  0  0  0  0  0  0  0  0  0  0  0
   -5.3164    2.0779    2.0426 H   0  0  0  0  0  0  0  0  0  0  0  0
   -4.2449   -0.0554    1.8436 H   0  0  0  0  0  0  0  0  0  0  0  0
   -2.7897   -3.0858    0.6022 H   0  0  0  0  0  0  0  0  0  0  0  0
   -3.6999   -1.9200    1.6065 H   0  0  0  0  0  0  0  0  0  0  0  0
   -4.8253   -3.7492   -0.3845 H   0  0  0  0  0  0  0  0  0  0  0  0
   -5.6735   -2.2023    0.0209 H   0  0  0  0  0  0  0  0  0  0  0  0
   -3.4292   -2.7030   -2.0556 H   0  0  0  0  0  0  0  0  0  0  0  0
   -4.7321   -1.4416   -2.0252 H   0  0  0  0  0  0  0  0  0  0  0  0
  1  2  1  0
  2  3  1  0
  3  4  1  0
  4  5  2  0
  5  6  1  0
  6  7  2  0
  7  8  1  0
  8  9  2  0
  9 10  1  0
 10 11  2  0
 11 12  1  0
 12 13  2  0
  7 14  1  0
 14 15  2  0
  3 16  2  0
 16 17  1  0
 17 18  2  0
 18 19  1  0
 19 20  1  0
 20 21  2  0
 21 22  1  0
 22 23  2  0
 23 24  1  0
 23 25  1  0
 25 26  2  0
 19 27  1  0
 27 28  1  0
 28 29  1  0
 18  2  1  0
 29 19  1  0
 15  4  1  0
 26 20  1  0
 13  8  1  0
  1 30  1  0
  1 31  1  0
  1 32  1  0
  5 33  1  0
  6 34  1  0
  9 35  1  0
 11 36  1  0
 12 37  1  0
 14 38  1  0
 15 39  1  0
 21 40  1  0
 22 41  1  0
 25 42  1  0
 26 43  1  0
 27 44  1  0
 27 45  1  0
 28 46  1  0
 28 47  1  0
 29 48  1  0
 29 49  1  0
M  END
$$$$
