
     RDKit          3D

 43 45  0  0  0  0  0  0  0  0999 V2000
   -5.6709    0.0610   -0.1859 C   0  0  0  0  0  0  0  0  0  0  0  0
   -5.2395   -0.4456    1.1774 C   0  0  0  0  0  0  0  0  0  0  0  0
   -4.0083    0.3129    1.5749 C   0  0  0  0  0  0  0  0  0  0  0  0
   -2.8966    0.1785    0.6795 N   0  0  0  0  0  0  0  0  0  0  0  0
   -2.3594   -1.1368    0.7331 C   0  0  0  0  0  0  0  0  0  0  0  0
   -1.0144   -1.2770    0.0425 C   0  0  0  0  0  0  0  0  0  0  0  0
   -0.0970   -0.1840    0.4518 C   0  0  0  0  0  0  0  0  0  0  0  0
   -0.7334    1.1806    0.1296 C   0  0  0  0  0  0  0  0  0  0  0  0
   -1.9885    1.2505    0.9401 C   0  0  0  0  0  0  0  0  0  0  0  0
    1.1816   -0.2227   -0.3076 C   0  0  0  0  0  0  0  0  0  0  0  0
    1.3342   -0.4123   -1.6337 N   0  0  0  0  0  0  0  0  0  0  0  0
    2.6363   -0.3556   -1.9825 C   0  0  0  0  0  0  0  0  0  0  0  0
    3.3037   -0.1162   -0.7844 C   0  0  0  0  0  0  0  0  0  0  0  0
    2.4269   -0.0369    0.2268 N   0  0  0  0  0  0  0  0  0  0  0  0
    4.6733    0.0008   -0.8411 C   0  0  0  0  0  0  0  0  0  0  0  0
    5.3996   -0.1113   -2.0256 C   0  0  0  0  0  0  0  0  0  0  0  0
    4.6922   -0.3522   -3.2042 C   0  0  0  0  0  0  0  0  0  0  0  0
    3.3159   -0.4744   -3.1892 C   0  0  0  0  0  0  0  0  0  0  0  0
    5.4988    0.2567    0.3117 C   0  0  0  0  0  0  0  0  0  0  0  0
    4.9686    0.3967    1.6123 N   0  0  0  0  0  0  0  0  0  0  0  0
    6.7555    0.3916    0.3704 O   0  0  0  0  0  0  0  0  0  0  0  0
   -5.4556    1.1535   -0.3210 H   0  0  0  0  0  0  0  0  0  0  0  0
   -6.7448   -0.0992   -0.3637 H   0  0  0  0  0  0  0  0  0  0  0  0
   -5.0263   -0.4674   -0.9166 H   0  0  0  0  0  0  0  0  0  0  0  0
   -5.1131   -1.5296    1.1562 H   0  0  0  0  0  0  0  0  0  0  0  0
   -6.0180   -0.1904    1.9465 H   0  0  0  0  0  0  0  0  0  0  0  0
   -3.7331   -0.0852    2.5986 H   0  0  0  0  0  0  0  0  0  0  0  0
   -4.2827    1.3915    1.6846 H   0  0  0  0  0  0  0  0  0  0  0  0
   -2.2608   -1.5066    1.7513 H   0  0  0  0  0  0  0  0  0  0  0  0
   -3.1105   -1.8100    0.2276 H   0  0  0  0  0  0  0  0  0  0  0  0
   -0.6122   -2.2541    0.3390 H   0  0  0  0  0  0  0  0  0  0  0  0
   -1.1158   -1.2603   -1.0625 H   0  0  0  0  0  0  0  0  0  0  0  0
    0.0951   -0.1657    1.5304 H   0  0  0  0  0  0  0  0  0  0  0  0
   -0.0426    1.9676    0.4948 H   0  0  0  0  0  0  0  0  0  0  0  0
   -0.8957    1.2977   -0.9537 H   0  0  0  0  0  0  0  0  0  0  0  0
   -1.6813    1.3111    2.0227 H   0  0  0  0  0  0  0  0  0  0  0  0
   -2.5362    2.1949    0.6518 H   0  0  0  0  0  0  0  0  0  0  0  0
    2.6431    0.1334    1.2286 H   0  0  0  0  0  0  0  0  0  0  0  0
    6.4790   -0.0129   -2.0259 H   0  0  0  0  0  0  0  0  0  0  0  0
    5.2072   -0.4452   -4.1374 H   0  0  0  0  0  0  0  0  0  0  0  0
    2.6959   -0.6626   -4.0572 H   0  0  0  0  0  0  0  0  0  0  0  0
    4.5608    0.6928    2.5171 H   0  0  0  0  0  0  0  0  0  0  0  0
    4.7690    1.4426    1.5926 H   0  0  0  0  0  0  0  0  0  0  0  0
  1  2  1  0
  2  3  1  0
  3  4  1  0
  4  5  1  0
  5  6  1  0
  6  7  1  0
  7  8  1  0
  8  9  1  0
  7 10  1  0
 10 11  2  0
 11 12  1  0
 12 13  2  0
 13 14  1  0
 13 15  1  0
 15 16  2  0
 16 17  1  0
 17 18  2  0
 15 19  1  0
 19 20  1  0
 19 21  2  0
  9  4  1  0
 14 10  1  0
 18 12  1  0
  1 22  1  0
  1 23  1  0
  1 24  1  0
  2 25  1  0
  2 26  1  0
  3 27  1  0
  3 28  1  0
  5 29  1  0
  5 30  1  0
  6 31  1  0
  6 32  1  0
  7 33  1  0
  8 34  1  0
  8 35  1  0
  9 36  1  0
  9 37  1  0
 14 38  1  0
 16 39  1  0
 17 40  1  0
 18 41  1  0
 20 42  1  0
 20 43  1  0
M  END
$$$$
