@<TRIPOS>MOLECULE
*****
 43 45 0 0 0
SMALL
GASTEIGER

@<TRIPOS>ATOM
      1 C          -5.6709    0.0610   -0.1859 C.3     1  UNL1       -0.0641
      2 C          -5.2395   -0.4456    1.1774 C.3     1  UNL1       -0.0431
      3 C          -4.0083    0.3129    1.5749 C.3     1  UNL1       -0.0014
      4 N          -2.8966    0.1785    0.6795 N.3     1  UNL1       -0.3023
      5 C          -2.3594   -1.1368    0.7331 C.3     1  UNL1       -0.0005
      6 C          -1.0144   -1.2770    0.0425 C.3     1  UNL1       -0.0305
      7 C          -0.0970   -0.1840    0.4518 C.3     1  UNL1        0.0194
      8 C          -0.7334    1.1806    0.1296 C.3     1  UNL1       -0.0305
      9 C          -1.9885    1.2505    0.9401 C.3     1  UNL1       -0.0005
     10 C           1.1816   -0.2227   -0.3076 C.ar    1  UNL1        0.1114
     11 N           1.3342   -0.4123   -1.6337 N.ar    1  UNL1       -0.2322
     12 C           2.6363   -0.3556   -1.9825 C.ar    1  UNL1        0.0899
     13 C           3.3037   -0.1162   -0.7844 C.ar    1  UNL1        0.0784
     14 N           2.4269   -0.0369    0.2268 N.ar    1  UNL1       -0.3410
     15 C           4.6733    0.0008   -0.8411 C.ar    1  UNL1        0.0618
     16 C           5.3996   -0.1113   -2.0256 C.ar    1  UNL1       -0.0475
     17 C           4.6922   -0.3522   -3.2042 C.ar    1  UNL1       -0.0589
     18 C           3.3159   -0.4744   -3.1892 C.ar    1  UNL1       -0.0342
     19 C           5.4988    0.2567    0.3117 C.2     1  UNL1        0.2436
     20 N           4.9686    0.3967    1.6123 N.am    1  UNL1       -0.3253
     21 O           6.7555    0.3916    0.3704 O.2     1  UNL1       -0.2703
     22 H          -5.4556    1.1535   -0.3210 H       1  UNL1        0.0230
     23 H          -6.7448   -0.0992   -0.3637 H       1  UNL1        0.0230
     24 H          -5.0263   -0.4674   -0.9166 H       1  UNL1        0.0230
     25 H          -5.1131   -1.5296    1.1562 H       1  UNL1        0.0275
     26 H          -6.0180   -0.1904    1.9465 H       1  UNL1        0.0275
     27 H          -3.7331   -0.0852    2.5986 H       1  UNL1        0.0426
     28 H          -4.2827    1.3915    1.6846 H       1  UNL1        0.0426
     29 H          -2.2608   -1.5066    1.7513 H       1  UNL1        0.0427
     30 H          -3.1105   -1.8100    0.2276 H       1  UNL1        0.0427
     31 H          -0.6122   -2.2541    0.3390 H       1  UNL1        0.0284
     32 H          -1.1158   -1.2603   -1.0625 H       1  UNL1        0.0284
     33 H           0.0951   -0.1657    1.5304 H       1  UNL1        0.0380
     34 H          -0.0426    1.9676    0.4948 H       1  UNL1        0.0284
     35 H          -0.8957    1.2977   -0.9537 H       1  UNL1        0.0284
     36 H          -1.6813    1.3111    2.0227 H       1  UNL1        0.0427
     37 H          -2.5362    2.1949    0.6518 H       1  UNL1        0.0427
     38 H           2.6431    0.1334    1.2286 H       1  UNL1        0.1671
     39 H           6.4790   -0.0129   -2.0259 H       1  UNL1        0.0626
     40 H           5.2072   -0.4452   -4.1374 H       1  UNL1        0.0618
     41 H           2.6959   -0.6626   -4.0572 H       1  UNL1        0.0639
     42 H           4.5608    0.6928    2.5171 H       1  UNL1        0.1453
     43 H           4.7690    1.4426    1.5926 H       1  UNL1        0.1453
@<TRIPOS>BOND
     1     1     2    1
     2     2     3    1
     3     3     4    1
     4     4     5    1
     5     5     6    1
     6     6     7    1
     7     7     8    1
     8     8     9    1
     9     7    10    1
    10    10    11   ar
    11    11    12   ar
    12    12    13   ar
    13    13    14   ar
    14    13    15   ar
    15    15    16   ar
    16    16    17   ar
    17    17    18   ar
    18    15    19    1
    19    19    20   am
    20    19    21    2
    21     9     4    1
    22    14    10   ar
    23    18    12   ar
    24     1    22    1
    25     1    23    1
    26     1    24    1
    27     2    25    1
    28     2    26    1
    29     3    27    1
    30     3    28    1
    31     5    29    1
    32     5    30    1
    33     6    31    1
    34     6    32    1
    35     7    33    1
    36     8    34    1
    37     8    35    1
    38     9    36    1
    39     9    37    1
    40    14    38    1
    41    16    39    1
    42    17    40    1
    43    18    41    1
    44    20    42    1
    45    20    43    1
