@<TRIPOS>MOLECULE
*****
 35 37 0 0 0
SMALL
GASTEIGER

@<TRIPOS>ATOM
      1 C           4.7138    1.4601    1.2171 C.3     1  UNL1        0.0790
      2 O           4.8230    0.3701    0.3026 O.3     1  UNL1       -0.4914
      3 C           3.6851   -0.2299   -0.1922 C.ar    1  UNL1        0.1619
      4 C           2.4258    0.2144    0.1891 C.ar    1  UNL1       -0.0055
      5 C           1.3030   -0.3613   -0.2855 C.ar    1  UNL1        0.0247
      6 C          -0.0780    0.0144    0.0392 C.ar    1  UNL1        0.1807
      7 O          -1.0814   -0.6620   -0.5207 O.2     1  UNL1       -0.4507
      8 C          -2.3417   -0.4328   -0.3197 C.ar    1  UNL1        0.1465
      9 C          -3.3298   -1.1890   -0.9466 C.ar    1  UNL1        0.0231
     10 C          -4.6687   -0.9510   -0.7376 C.ar    1  UNL1        0.1239
     11 O          -5.6369   -1.7234   -1.3783 O.3     1  UNL1       -0.5065
     12 C          -5.0143    0.0705    0.1211 C.ar    1  UNL1        0.0223
     13 C          -4.0350    0.8176    0.7404 C.ar    1  UNL1        0.1348
     14 O          -4.3766    1.8525    1.6104 O.3     1  UNL1       -0.5058
     15 C          -2.6884    0.5867    0.5374 C.ar    1  UNL1        0.1092
     16 C          -1.7040    1.3181    1.1435 C.ar    1  UNL1        0.2379
     17 O          -1.9851    2.2426    1.9205 O.2     1  UNL1       -0.2830
     18 C          -0.3409    1.0397    0.9005 C.ar    1  UNL1        0.2082
     19 O           0.6109    1.8105    1.5400 O.3     1  UNL1       -0.5007
     20 C           1.4395   -1.4225   -1.1761 C.ar    1  UNL1       -0.0473
     21 C           2.6652   -1.8805   -1.5687 C.ar    1  UNL1       -0.0159
     22 C           3.7880   -1.2678   -1.0630 C.ar    1  UNL1        0.1585
     23 O           5.0298   -1.7378   -1.4658 O.3     1  UNL1       -0.5033
     24 H           4.0643    1.2113    2.0795 H       1  UNL1        0.0660
     25 H           5.7142    1.7201    1.6202 H       1  UNL1        0.0660
     26 H           4.3167    2.3417    0.6381 H       1  UNL1        0.0660
     27 H           2.3705    1.0276    0.8711 H       1  UNL1        0.0662
     28 H          -3.0347   -1.9906   -1.6207 H       1  UNL1        0.0691
     29 H          -5.3535   -2.6177   -1.7691 H       1  UNL1        0.2921
     30 H          -6.0699    0.2461    0.2757 H       1  UNL1        0.0691
     31 H          -4.6554    2.7364    1.1983 H       1  UNL1        0.2922
     32 H           0.7440    1.6097    2.5416 H       1  UNL1        0.2924
     33 H           0.5596   -1.9245   -1.5906 H       1  UNL1        0.0626
     34 H           2.7841   -2.7152   -2.2692 H       1  UNL1        0.0655
     35 H           5.3568   -1.5844   -2.4123 H       1  UNL1        0.2923
@<TRIPOS>BOND
     1     1     2    1
     2     2     3    1
     3     3     4   ar
     4     4     5   ar
     5     5     6    1
     6     6     7   ar
     7     7     8   ar
     8     8     9   ar
     9     9    10   ar
    10    10    11    1
    11    10    12   ar
    12    12    13   ar
    13    13    14    1
    14    13    15   ar
    15    15    16   ar
    16    16    17    2
    17    16    18   ar
    18    18    19    1
    19     5    20   ar
    20    20    21   ar
    21    21    22   ar
    22    22    23    1
    23    22     3   ar
    24    18     6   ar
    25    15     8   ar
    26     1    24    1
    27     1    25    1
    28     1    26    1
    29     4    27    1
    30     9    28    1
    31    11    29    1
    32    12    30    1
    33    14    31    1
    34    19    32    1
    35    20    33    1
    36    21    34    1
    37    23    35    1
