
     RDKit          3D

 35 37  0  0  0  0  0  0  0  0999 V2000
    4.7138    1.4601    1.2171 C   0  0  0  0  0  0  0  0  0  0  0  0
    4.8230    0.3701    0.3026 O   0  0  0  0  0  0  0  0  0  0  0  0
    3.6851   -0.2299   -0.1922 C   0  0  0  0  0  0  0  0  0  0  0  0
    2.4258    0.2144    0.1891 C   0  0  0  0  0  0  0  0  0  0  0  0
    1.3030   -0.3613   -0.2855 C   0  0  0  0  0  0  0  0  0  0  0  0
   -0.0780    0.0144    0.0392 C   0  0  0  0  0  0  0  0  0  0  0  0
   -1.0814   -0.6620   -0.5207 O   0  0  0  0  0  0  0  0  0  0  0  0
   -2.3417   -0.4328   -0.3197 C   0  0  0  0  0  0  0  0  0  0  0  0
   -3.3298   -1.1890   -0.9466 C   0  0  0  0  0  0  0  0  0  0  0  0
   -4.6687   -0.9510   -0.7376 C   0  0  0  0  0  0  0  0  0  0  0  0
   -5.6369   -1.7234   -1.3783 O   0  0  0  0  0  0  0  0  0  0  0  0
   -5.0143    0.0705    0.1211 C   0  0  0  0  0  0  0  0  0  0  0  0
   -4.0350    0.8176    0.7404 C   0  0  0  0  0  0  0  0  0  0  0  0
   -4.3766    1.8525    1.6104 O   0  0  0  0  0  0  0  0  0  0  0  0
   -2.6884    0.5867    0.5374 C   0  0  0  0  0  0  0  0  0  0  0  0
   -1.7040    1.3181    1.1435 C   0  0  0  0  0  0  0  0  0  0  0  0
   -1.9851    2.2426    1.9205 O   0  0  0  0  0  0  0  0  0  0  0  0
   -0.3409    1.0397    0.9005 C   0  0  0  0  0  0  0  0  0  0  0  0
    0.6109    1.8105    1.5400 O   0  0  0  0  0  0  0  0  0  0  0  0
    1.4395   -1.4225   -1.1761 C   0  0  0  0  0  0  0  0  0  0  0  0
    2.6652   -1.8805   -1.5687 C   0  0  0  0  0  0  0  0  0  0  0  0
    3.7880   -1.2678   -1.0630 C   0  0  0  0  0  0  0  0  0  0  0  0
    5.0298   -1.7378   -1.4658 O   0  0  0  0  0  0  0  0  0  0  0  0
    4.0643    1.2113    2.0795 H   0  0  0  0  0  0  0  0  0  0  0  0
    5.7142    1.7201    1.6202 H   0  0  0  0  0  0  0  0  0  0  0  0
    4.3167    2.3417    0.6381 H   0  0  0  0  0  0  0  0  0  0  0  0
    2.3705    1.0276    0.8711 H   0  0  0  0  0  0  0  0  0  0  0  0
   -3.0347   -1.9906   -1.6207 H   0  0  0  0  0  0  0  0  0  0  0  0
   -5.3535   -2.6177   -1.7691 H   0  0  0  0  0  0  0  0  0  0  0  0
   -6.0699    0.2461    0.2757 H   0  0  0  0  0  0  0  0  0  0  0  0
   -4.6554    2.7364    1.1983 H   0  0  0  0  0  0  0  0  0  0  0  0
    0.7440    1.6097    2.5416 H   0  0  0  0  0  0  0  0  0  0  0  0
    0.5596   -1.9245   -1.5906 H   0  0  0  0  0  0  0  0  0  0  0  0
    2.7841   -2.7152   -2.2692 H   0  0  0  0  0  0  0  0  0  0  0  0
    5.3568   -1.5844   -2.4123 H   0  0  0  0  0  0  0  0  0  0  0  0
  1  2  1  0
  2  3  1  0
  3  4  2  0
  4  5  1  0
  5  6  1  0
  6  7  1  0
  7  8  1  0
  8  9  2  0
  9 10  1  0
 10 11  1  0
 10 12  2  0
 12 13  1  0
 13 14  1  0
 13 15  2  0
 15 16  1  0
 16 17  2  0
 16 18  1  0
 18 19  1  0
  5 20  2  0
 20 21  1  0
 21 22  2  0
 22 23  1  0
 22  3  1  0
 18  6  2  0
 15  8  1  0
  1 24  1  0
  1 25  1  0
  1 26  1  0
  4 27  1  0
  9 28  1  0
 11 29  1  0
 12 30  1  0
 14 31  1  0
 19 32  1  0
 20 33  1  0
 21 34  1  0
 23 35  1  0
M  END
$$$$
