@<TRIPOS>MOLECULE
*****
 47 49 0 0 0
SMALL
GASTEIGER

@<TRIPOS>ATOM
      1 C          -4.9107    1.4534   -2.6428 C.3     1  UNL1        0.0789
      2 O          -4.2907    1.3349   -1.3780 O.3     1  UNL1       -0.4932
      3 C          -4.7918    0.4004   -0.4876 C.ar    1  UNL1        0.1415
      4 C          -5.8819   -0.4003   -0.8379 C.ar    1  UNL1       -0.0181
      5 C          -6.3483   -1.3201    0.0837 C.ar    1  UNL1       -0.0582
      6 C          -5.7472   -1.4381    1.3159 C.ar    1  UNL1       -0.0598
      7 C          -4.6587   -0.6271    1.6445 C.ar    1  UNL1       -0.0366
      8 C          -4.1872    0.2887    0.7388 C.ar    1  UNL1        0.0807
      9 N          -3.0929    1.1135    1.0518 N.am    1  UNL1       -0.2365
     10 C          -3.2857    2.3877    1.6693 C.3     1  UNL1        0.0116
     11 C          -1.7858    0.6507    0.7394 C.2     1  UNL1        0.4124
     12 O          -0.7801    1.3741    1.0106 O.2     1  UNL1       -0.2254
     13 O          -1.5536   -0.5772    0.1411 O.3     1  UNL1       -0.4112
     14 C          -0.2409   -0.9329   -0.1209 C.ar    1  UNL1        0.1335
     15 C           0.4522   -1.6157    0.8449 C.ar    1  UNL1       -0.0157
     16 C           1.7712   -1.9997    0.6411 C.ar    1  UNL1       -0.0158
     17 C           2.4235   -1.6971   -0.5584 C.ar    1  UNL1        0.1306
     18 O           3.7386   -2.0981   -0.7213 O.3     1  UNL1       -0.4380
     19 C           4.8168   -1.3047   -0.3565 C.ar    1  UNL1        0.2205
     20 C           4.5744   -0.0638    0.1919 C.ar    1  UNL1        0.0009
     21 C           5.6498    0.7219    0.5533 C.ar    1  UNL1       -0.0436
     22 C           6.9558    0.3137    0.3870 C.ar    1  UNL1        0.0731
     23 C           8.1249    1.1463    0.7703 C.3     1  UNL1        0.4188
     24 F           7.7494    2.4823    0.7822 F       1  UNL1       -0.1658
     25 F           9.2078    0.9249   -0.0507 F       1  UNL1       -0.1658
     26 F           8.4475    0.7870    2.0857 F       1  UNL1       -0.1658
     27 C           7.1519   -0.9348   -0.1653 C.ar    1  UNL1        0.0430
     28 N           6.0879   -1.7029   -0.5187 N.ar    1  UNL1       -0.2204
     29 C           1.7251   -1.0107   -1.5279 C.ar    1  UNL1       -0.0158
     30 C           0.4133   -0.6394   -1.3015 C.ar    1  UNL1       -0.0157
     31 H          -6.0228    1.5753   -2.5524 H       1  UNL1        0.0660
     32 H          -4.7305    0.5497   -3.2434 H       1  UNL1        0.0660
     33 H          -4.5452    2.3748   -3.1680 H       1  UNL1        0.0660
     34 H          -6.3327   -0.2937   -1.7955 H       1  UNL1        0.0655
     35 H          -7.1976   -1.9394   -0.1977 H       1  UNL1        0.0619
     36 H          -6.1283   -2.1676    2.0279 H       1  UNL1        0.0618
     37 H          -4.2294   -0.7637    2.6216 H       1  UNL1        0.0637
     38 H          -4.0260    2.3357    2.4914 H       1  UNL1        0.0434
     39 H          -3.6681    3.1429    0.9471 H       1  UNL1        0.0434
     40 H          -2.3095    2.7817    2.0410 H       1  UNL1        0.0434
     41 H          -0.0121   -1.8699    1.7852 H       1  UNL1        0.0655
     42 H           2.2856   -2.5370    1.4260 H       1  UNL1        0.0655
     43 H           3.5468    0.3049    0.3438 H       1  UNL1        0.0671
     44 H           5.4849    1.7025    0.9870 H       1  UNL1        0.0625
     45 H           8.1317   -1.3592   -0.3425 H       1  UNL1        0.0836
     46 H           2.1941   -0.7588   -2.4670 H       1  UNL1        0.0655
     47 H          -0.1755   -0.0953   -2.0419 H       1  UNL1        0.0655
@<TRIPOS>BOND
     1     1     2    1
     2     2     3    1
     3     3     4   ar
     4     4     5   ar
     5     5     6   ar
     6     6     7   ar
     7     7     8   ar
     8     8     9    1
     9     9    10    1
    10     9    11   am
    11    11    12    2
    12    11    13    1
    13    13    14    1
    14    14    15   ar
    15    15    16   ar
    16    16    17   ar
    17    17    18    1
    18    18    19    1
    19    19    20   ar
    20    20    21   ar
    21    21    22   ar
    22    22    23    1
    23    23    24    1
    24    23    25    1
    25    23    26    1
    26    22    27   ar
    27    27    28   ar
    28    17    29   ar
    29    29    30   ar
    30     8     3   ar
    31    30    14   ar
    32    28    19   ar
    33     1    31    1
    34     1    32    1
    35     1    33    1
    36     4    34    1
    37     5    35    1
    38     6    36    1
    39     7    37    1
    40    10    38    1
    41    10    39    1
    42    10    40    1
    43    15    41    1
    44    16    42    1
    45    20    43    1
    46    21    44    1
    47    27    45    1
    48    29    46    1
    49    30    47    1
