
     RDKit          3D

 47 49  0  0  0  0  0  0  0  0999 V2000
   -4.9107    1.4534   -2.6428 C   0  0  0  0  0  0  0  0  0  0  0  0
   -4.2907    1.3349   -1.3780 O   0  0  0  0  0  0  0  0  0  0  0  0
   -4.7918    0.4004   -0.4876 C   0  0  0  0  0  0  0  0  0  0  0  0
   -5.8819   -0.4003   -0.8379 C   0  0  0  0  0  0  0  0  0  0  0  0
   -6.3483   -1.3201    0.0837 C   0  0  0  0  0  0  0  0  0  0  0  0
   -5.7472   -1.4381    1.3159 C   0  0  0  0  0  0  0  0  0  0  0  0
   -4.6587   -0.6271    1.6445 C   0  0  0  0  0  0  0  0  0  0  0  0
   -4.1872    0.2887    0.7388 C   0  0  0  0  0  0  0  0  0  0  0  0
   -3.0929    1.1135    1.0518 N   0  0  0  0  0  0  0  0  0  0  0  0
   -3.2857    2.3877    1.6693 C   0  0  0  0  0  0  0  0  0  0  0  0
   -1.7858    0.6507    0.7394 C   0  0  0  0  0  0  0  0  0  0  0  0
   -0.7801    1.3741    1.0106 O   0  0  0  0  0  0  0  0  0  0  0  0
   -1.5536   -0.5772    0.1411 O   0  0  0  0  0  0  0  0  0  0  0  0
   -0.2409   -0.9329   -0.1209 C   0  0  0  0  0  0  0  0  0  0  0  0
    0.4522   -1.6157    0.8449 C   0  0  0  0  0  0  0  0  0  0  0  0
    1.7712   -1.9997    0.6411 C   0  0  0  0  0  0  0  0  0  0  0  0
    2.4235   -1.6971   -0.5584 C   0  0  0  0  0  0  0  0  0  0  0  0
    3.7386   -2.0981   -0.7213 O   0  0  0  0  0  0  0  0  0  0  0  0
    4.8168   -1.3047   -0.3565 C   0  0  0  0  0  0  0  0  0  0  0  0
    4.5744   -0.0638    0.1919 C   0  0  0  0  0  0  0  0  0  0  0  0
    5.6498    0.7219    0.5533 C   0  0  0  0  0  0  0  0  0  0  0  0
    6.9558    0.3137    0.3870 C   0  0  0  0  0  0  0  0  0  0  0  0
    8.1249    1.1463    0.7703 C   0  0  0  0  0  0  0  0  0  0  0  0
    7.7494    2.4823    0.7822 F   0  0  0  0  0  0  0  0  0  0  0  0
    9.2078    0.9249   -0.0507 F   0  0  0  0  0  0  0  0  0  0  0  0
    8.4475    0.7870    2.0857 F   0  0  0  0  0  0  0  0  0  0  0  0
    7.1519   -0.9348   -0.1653 C   0  0  0  0  0  0  0  0  0  0  0  0
    6.0879   -1.7029   -0.5187 N   0  0  0  0  0  0  0  0  0  0  0  0
    1.7251   -1.0107   -1.5279 C   0  0  0  0  0  0  0  0  0  0  0  0
    0.4133   -0.6394   -1.3015 C   0  0  0  0  0  0  0  0  0  0  0  0
   -6.0228    1.5753   -2.5524 H   0  0  0  0  0  0  0  0  0  0  0  0
   -4.7305    0.5497   -3.2434 H   0  0  0  0  0  0  0  0  0  0  0  0
   -4.5452    2.3748   -3.1680 H   0  0  0  0  0  0  0  0  0  0  0  0
   -6.3327   -0.2937   -1.7955 H   0  0  0  0  0  0  0  0  0  0  0  0
   -7.1976   -1.9394   -0.1977 H   0  0  0  0  0  0  0  0  0  0  0  0
   -6.1283   -2.1676    2.0279 H   0  0  0  0  0  0  0  0  0  0  0  0
   -4.2294   -0.7637    2.6216 H   0  0  0  0  0  0  0  0  0  0  0  0
   -4.0260    2.3357    2.4914 H   0  0  0  0  0  0  0  0  0  0  0  0
   -3.6681    3.1429    0.9471 H   0  0  0  0  0  0  0  0  0  0  0  0
   -2.3095    2.7817    2.0410 H   0  0  0  0  0  0  0  0  0  0  0  0
   -0.0121   -1.8699    1.7852 H   0  0  0  0  0  0  0  0  0  0  0  0
    2.2856   -2.5370    1.4260 H   0  0  0  0  0  0  0  0  0  0  0  0
    3.5468    0.3049    0.3438 H   0  0  0  0  0  0  0  0  0  0  0  0
    5.4849    1.7025    0.9870 H   0  0  0  0  0  0  0  0  0  0  0  0
    8.1317   -1.3592   -0.3425 H   0  0  0  0  0  0  0  0  0  0  0  0
    2.1941   -0.7588   -2.4670 H   0  0  0  0  0  0  0  0  0  0  0  0
   -0.1755   -0.0953   -2.0419 H   0  0  0  0  0  0  0  0  0  0  0  0
  1  2  1  0
  2  3  1  0
  3  4  2  0
  4  5  1  0
  5  6  2  0
  6  7  1  0
  7  8  2  0
  8  9  1  0
  9 10  1  0
  9 11  1  0
 11 12  2  0
 11 13  1  0
 13 14  1  0
 14 15  2  0
 15 16  1  0
 16 17  2  0
 17 18  1  0
 18 19  1  0
 19 20  2  0
 20 21  1  0
 21 22  2  0
 22 23  1  0
 23 24  1  0
 23 25  1  0
 23 26  1  0
 22 27  1  0
 27 28  2  0
 17 29  1  0
 29 30  2  0
  8  3  1  0
 30 14  1  0
 28 19  1  0
  1 31  1  0
  1 32  1  0
  1 33  1  0
  4 34  1  0
  5 35  1  0
  6 36  1  0
  7 37  1  0
 10 38  1  0
 10 39  1  0
 10 40  1  0
 15 41  1  0
 16 42  1  0
 20 43  1  0
 21 44  1  0
 27 45  1  0
 29 46  1  0
 30 47  1  0
M  END
$$$$
