
     RDKit          3D

 74 78  0  0  0  0  0  0  0  0999 V2000
   -2.1606   -0.1717    1.3218 O   0  0  0  0  0  0  0  0  0  0  0  0
   -2.4422   -1.1798    0.6558 C   0  0  0  0  0  0  0  0  0  0  0  0
   -3.7891   -1.5971    0.5546 N   0  0  0  0  0  0  0  0  0  0  0  0
   -4.8326   -0.8547    1.2158 C   0  0  0  0  0  0  0  0  0  0  0  0
   -5.2665    0.3500    0.4956 C   0  0  0  0  0  0  0  0  0  0  0  0
   -6.2874    0.1904   -0.4319 C   0  0  0  0  0  0  0  0  0  0  0  0
   -6.7700    1.2529   -1.1423 C   0  0  0  0  0  0  0  0  0  0  0  0
   -7.8707    1.0695   -2.1267 C   0  0  0  0  0  0  0  0  0  0  0  0
   -7.8336    2.0172   -3.0997 F   0  0  0  0  0  0  0  0  0  0  0  0
   -9.0785    1.0797   -1.4323 F   0  0  0  0  0  0  0  0  0  0  0  0
   -7.6939   -0.1888   -2.7057 F   0  0  0  0  0  0  0  0  0  0  0  0
   -6.2414    2.5102   -0.9440 C   0  0  0  0  0  0  0  0  0  0  0  0
   -5.2195    2.7114   -0.0251 C   0  0  0  0  0  0  0  0  0  0  0  0
   -4.6862    4.0765    0.1511 C   0  0  0  0  0  0  0  0  0  0  0  0
   -5.0011    4.5873    1.4095 F   0  0  0  0  0  0  0  0  0  0  0  0
   -5.2162    4.9433   -0.7926 F   0  0  0  0  0  0  0  0  0  0  0  0
   -3.3023    4.0755    0.0424 F   0  0  0  0  0  0  0  0  0  0  0  0
   -4.7651    1.6184    0.6668 C   0  0  0  0  0  0  0  0  0  0  0  0
   -1.3921   -1.9343   -0.0200 C   0  0  0  0  0  0  0  0  0  0  0  0
   -0.0056   -1.3679    0.0794 C   0  0  0  0  0  0  0  0  0  0  0  0
    0.1970   -0.0126   -0.4840 C   0  0  0  0  0  0  0  0  0  0  0  0
    1.5528    0.4112   -0.3251 N   0  0  0  0  0  0  0  0  0  0  0  0
    1.9272    0.6851    1.0225 C   0  0  0  0  0  0  0  0  0  0  0  0
    3.4144    0.4583    1.2394 C   0  0  0  0  0  0  0  0  0  0  0  0
    4.1054    1.0838    0.0489 C   0  0  0  0  0  0  0  0  0  0  0  0
    3.8352    0.1679   -1.1234 C   0  0  0  0  0  0  0  0  0  0  0  0
    2.4892   -0.4591   -1.0107 C   0  0  0  0  0  0  0  0  0  0  0  0
    3.6369    2.3577   -0.1434 O   0  0  0  0  0  0  0  0  0  0  0  0
    4.0539    2.9680   -1.2971 C   0  0  0  0  0  0  0  0  0  0  0  0
    5.5119    2.8619   -1.5839 C   0  0  0  0  0  0  0  0  0  0  0  0
    6.2481    2.0448   -0.5862 C   0  0  0  0  0  0  0  0  0  0  0  0
    7.6138    2.2161   -0.5252 C   0  0  0  0  0  0  0  0  0  0  0  0
    8.3029    1.4455    0.4146 C   0  0  0  0  0  0  0  0  0  0  0  0
    7.6417    0.5588    1.2375 C   0  0  0  0  0  0  0  0  0  0  0  0
    6.2722    0.4210    1.1402 C   0  0  0  0  0  0  0  0  0  0  0  0
    5.5750    1.1621    0.2303 C   0  0  0  0  0  0  0  0  0  0  0  0
   -1.3167   -3.3409    0.4261 C   0  0  0  0  0  0  0  0  0  0  0  0
   -0.8728   -3.6883    1.6917 C   0  0  0  0  0  0  0  0  0  0  0  0
   -0.8344   -5.0094    2.0213 C   0  0  0  0  0  0  0  0  0  0  0  0
   -1.2204   -5.9957    1.1405 C   0  0  0  0  0  0  0  0  0  0  0  0
   -1.1776   -7.3125    1.4803 F   0  0  0  0  0  0  0  0  0  0  0  0
   -1.6672   -5.6808   -0.1269 C   0  0  0  0  0  0  0  0  0  0  0  0
   -1.7015   -4.3341   -0.4491 C   0  0  0  0  0  0  0  0  0  0  0  0
   -4.0715   -2.4499    0.0009 H   0  0  0  0  0  0  0  0  0  0  0  0
   -4.5250   -0.5214    2.2356 H   0  0  0  0  0  0  0  0  0  0  0  0
   -5.6781   -1.5632    1.4046 H   0  0  0  0  0  0  0  0  0  0  0  0
   -6.6954   -0.7842   -0.5842 H   0  0  0  0  0  0  0  0  0  0  0  0
   -6.6333    3.3571   -1.5176 H   0  0  0  0  0  0  0  0  0  0  0  0
   -3.9814    1.7867    1.3824 H   0  0  0  0  0  0  0  0  0  0  0  0
   -1.6750   -1.9479   -1.1117 H   0  0  0  0  0  0  0  0  0  0  0  0
    0.3352   -1.3753    1.1346 H   0  0  0  0  0  0  0  0  0  0  0  0
    0.6598   -2.1371   -0.4177 H   0  0  0  0  0  0  0  0  0  0  0  0
   -0.0389    0.0666   -1.5668 H   0  0  0  0  0  0  0  0  0  0  0  0
   -0.4275    0.7115    0.1123 H   0  0  0  0  0  0  0  0  0  0  0  0
    1.3047    0.2299    1.7928 H   0  0  0  0  0  0  0  0  0  0  0  0
    1.8052    1.8090    1.1453 H   0  0  0  0  0  0  0  0  0  0  0  0
    3.7690    0.8607    2.1964 H   0  0  0  0  0  0  0  0  0  0  0  0
    3.5681   -0.6433    1.2625 H   0  0  0  0  0  0  0  0  0  0  0  0
    4.6332   -0.6331   -1.0551 H   0  0  0  0  0  0  0  0  0  0  0  0
    4.0188    0.6823   -2.0894 H   0  0  0  0  0  0  0  0  0  0  0  0
    2.5816   -1.4135   -0.4604 H   0  0  0  0  0  0  0  0  0  0  0  0
    2.0918   -0.5956   -2.0476 H   0  0  0  0  0  0  0  0  0  0  0  0
    3.7766    4.0607   -1.1961 H   0  0  0  0  0  0  0  0  0  0  0  0
    3.4034    2.6184   -2.1479 H   0  0  0  0  0  0  0  0  0  0  0  0
    5.9958    3.8641   -1.6081 H   0  0  0  0  0  0  0  0  0  0  0  0
    5.6711    2.3914   -2.5729 H   0  0  0  0  0  0  0  0  0  0  0  0
    8.1762    2.8933   -1.1430 H   0  0  0  0  0  0  0  0  0  0  0  0
    9.3924    1.5678    0.4778 H   0  0  0  0  0  0  0  0  0  0  0  0
    8.1890   -0.0389    1.9680 H   0  0  0  0  0  0  0  0  0  0  0  0
    5.7053   -0.2625    1.7645 H   0  0  0  0  0  0  0  0  0  0  0  0
   -0.5753   -2.8865    2.3645 H   0  0  0  0  0  0  0  0  0  0  0  0
   -0.4846   -5.2661    3.0189 H   0  0  0  0  0  0  0  0  0  0  0  0
   -1.9634   -6.4770   -0.7932 H   0  0  0  0  0  0  0  0  0  0  0  0
   -2.0599   -4.1009   -1.4640 H   0  0  0  0  0  0  0  0  0  0  0  0
  1  2  2  0
  2  3  1  0
  3  4  1  0
  4  5  1  0
  5  6  2  0
  6  7  1  0
  7  8  1  0
  8  9  1  0
  8 10  1  0
  8 11  1  0
  7 12  2  0
 12 13  1  0
 13 14  1  0
 14 15  1  0
 14 16  1  0
 14 17  1  0
 13 18  2  0
  2 19  1  0
 19 20  1  0
 20 21  1  0
 21 22  1  0
 22 23  1  0
 23 24  1  0
 24 25  1  0
 25 26  1  0
 26 27  1  0
 25 28  1  0
 28 29  1  0
 29 30  1  0
 30 31  1  0
 31 32  2  0
 32 33  1  0
 33 34  2  0
 34 35  1  0
 35 36  2  0
 19 37  1  0
 37 38  2  0
 38 39  1  0
 39 40  2  0
 40 41  1  0
 40 42  1  0
 42 43  2  0
 18  5  1  0
 27 22  1  0
 36 31  1  0
 43 37  1  0
 36 25  1  0
  3 44  1  0
  4 45  1  0
  4 46  1  0
  6 47  1  0
 12 48  1  0
 18 49  1  0
 19 50  1  0
 20 51  1  0
 20 52  1  0
 21 53  1  0
 21 54  1  0
 23 55  1  0
 23 56  1  0
 24 57  1  0
 24 58  1  0
 26 59  1  0
 26 60  1  0
 27 61  1  0
 27 62  1  0
 29 63  1  0
 29 64  1  0
 30 65  1  0
 30 66  1  0
 32 67  1  0
 33 68  1  0
 34 69  1  0
 35 70  1  0
 38 71  1  0
 39 72  1  0
 42 73  1  0
 43 74  1  0
M  END
$$$$
