@<TRIPOS>MOLECULE
*****
 74 78 0 0 0
SMALL
GASTEIGER

@<TRIPOS>ATOM
      1 O          -2.1606   -0.1717    1.3218 O.2     1  UNL1       -0.2751
      2 C          -2.4422   -1.1798    0.6558 C.2     1  UNL1        0.2207
      3 N          -3.7891   -1.5971    0.5546 N.am    1  UNL1       -0.3107
      4 C          -4.8326   -0.8547    1.2158 C.3     1  UNL1        0.0369
      5 C          -5.2665    0.3500    0.4956 C.ar    1  UNL1       -0.0293
      6 C          -6.2874    0.1904   -0.4319 C.ar    1  UNL1       -0.0454
      7 C          -6.7700    1.2529   -1.1423 C.ar    1  UNL1        0.0556
      8 C          -7.8707    1.0695   -2.1267 C.3     1  UNL1        0.4174
      9 F          -7.8336    2.0172   -3.0997 F       1  UNL1       -0.1659
     10 F          -9.0785    1.0797   -1.4323 F       1  UNL1       -0.1659
     11 F          -7.6939   -0.1888   -2.7057 F       1  UNL1       -0.1659
     12 C          -6.2414    2.5102   -0.9440 C.ar    1  UNL1       -0.0385
     13 C          -5.2195    2.7114   -0.0251 C.ar    1  UNL1        0.0556
     14 C          -4.6862    4.0765    0.1511 C.3     1  UNL1        0.4174
     15 F          -5.0011    4.5873    1.4095 F       1  UNL1       -0.1659
     16 F          -5.2162    4.9433   -0.7926 F       1  UNL1       -0.1659
     17 F          -3.3023    4.0755    0.0424 F       1  UNL1       -0.1659
     18 C          -4.7651    1.6184    0.6668 C.ar    1  UNL1       -0.0454
     19 C          -1.3921   -1.9343   -0.0200 C.3     1  UNL1        0.0617
     20 C          -0.0056   -1.3679    0.0794 C.3     1  UNL1       -0.0250
     21 C           0.1970   -0.0126   -0.4840 C.3     1  UNL1       -0.0001
     22 N           1.5528    0.4112   -0.3251 N.3     1  UNL1       -0.3021
     23 C           1.9272    0.6851    1.0225 C.3     1  UNL1        0.0018
     24 C           3.4144    0.4583    1.2394 C.3     1  UNL1       -0.0067
     25 C           4.1054    1.0838    0.0489 C.3     1  UNL1        0.0969
     26 C           3.8352    0.1679   -1.1234 C.3     1  UNL1       -0.0067
     27 C           2.4892   -0.4591   -1.0107 C.3     1  UNL1        0.0018
     28 O           3.6369    2.3577   -0.1434 O.3     1  UNL1       -0.3683
     29 C           4.0539    2.9680   -1.2971 C.3     1  UNL1        0.0528
     30 C           5.5119    2.8619   -1.5839 C.3     1  UNL1       -0.0038
     31 C           6.2481    2.0448   -0.5862 C.ar    1  UNL1       -0.0393
     32 C           7.6138    2.2161   -0.5252 C.ar    1  UNL1       -0.0582
     33 C           8.3029    1.4455    0.4146 C.ar    1  UNL1       -0.0615
     34 C           7.6417    0.5588    1.2375 C.ar    1  UNL1       -0.0614
     35 C           6.2722    0.4210    1.1402 C.ar    1  UNL1       -0.0556
     36 C           5.5750    1.1621    0.2303 C.ar    1  UNL1       -0.0125
     37 C          -1.3167   -3.3409    0.4261 C.ar    1  UNL1       -0.0353
     38 C          -0.8728   -3.6883    1.6917 C.ar    1  UNL1       -0.0551
     39 C          -0.8344   -5.0094    2.0213 C.ar    1  UNL1       -0.0262
     40 C          -1.2204   -5.9957    1.1405 C.ar    1  UNL1        0.1234
     41 F          -1.1776   -7.3125    1.4803 F       1  UNL1       -0.2055
     42 C          -1.6672   -5.6808   -0.1269 C.ar    1  UNL1       -0.0262
     43 C          -1.7015   -4.3341   -0.4491 C.ar    1  UNL1       -0.0551
     44 H          -4.0715   -2.4499    0.0009 H       1  UNL1        0.1490
     45 H          -4.5250   -0.5214    2.2356 H       1  UNL1        0.0512
     46 H          -5.6781   -1.5632    1.4046 H       1  UNL1        0.0512
     47 H          -6.6954   -0.7842   -0.5842 H       1  UNL1        0.0626
     48 H          -6.6333    3.3571   -1.5176 H       1  UNL1        0.0629
     49 H          -3.9814    1.7867    1.3824 H       1  UNL1        0.0626
     50 H          -1.6750   -1.9479   -1.1117 H       1  UNL1        0.0443
     51 H           0.3352   -1.3753    1.1346 H       1  UNL1        0.0288
     52 H           0.6598   -2.1371   -0.4177 H       1  UNL1        0.0288
     53 H          -0.0389    0.0666   -1.5668 H       1  UNL1        0.0427
     54 H          -0.4275    0.7115    0.1123 H       1  UNL1        0.0427
     55 H           1.3047    0.2299    1.7928 H       1  UNL1        0.0427
     56 H           1.8052    1.8090    1.1453 H       1  UNL1        0.0427
     57 H           3.7690    0.8607    2.1964 H       1  UNL1        0.0309
     58 H           3.5681   -0.6433    1.2625 H       1  UNL1        0.0309
     59 H           4.6332   -0.6331   -1.0551 H       1  UNL1        0.0309
     60 H           4.0188    0.6823   -2.0894 H       1  UNL1        0.0309
     61 H           2.5816   -1.4135   -0.4604 H       1  UNL1        0.0427
     62 H           2.0918   -0.5956   -2.0476 H       1  UNL1        0.0427
     63 H           3.7766    4.0607   -1.1961 H       1  UNL1        0.0563
     64 H           3.4034    2.6184   -2.1479 H       1  UNL1        0.0563
     65 H           5.9958    3.8641   -1.6081 H       1  UNL1        0.0336
     66 H           5.6711    2.3914   -2.5729 H       1  UNL1        0.0336
     67 H           8.1762    2.8933   -1.1430 H       1  UNL1        0.0620
     68 H           9.3924    1.5678    0.4778 H       1  UNL1        0.0618
     69 H           8.1890   -0.0389    1.9680 H       1  UNL1        0.0618
     70 H           5.7053   -0.2625    1.7645 H       1  UNL1        0.0621
     71 H          -0.5753   -2.8865    2.3645 H       1  UNL1        0.0621
     72 H          -0.4846   -5.2661    3.0189 H       1  UNL1        0.0646
     73 H          -1.9634   -6.4770   -0.7932 H       1  UNL1        0.0646
     74 H          -2.0599   -4.1009   -1.4640 H       1  UNL1        0.0621
@<TRIPOS>BOND
     1     1     2    2
     2     2     3   am
     3     3     4    1
     4     4     5    1
     5     5     6   ar
     6     6     7   ar
     7     7     8    1
     8     8     9    1
     9     8    10    1
    10     8    11    1
    11     7    12   ar
    12    12    13   ar
    13    13    14    1
    14    14    15    1
    15    14    16    1
    16    14    17    1
    17    13    18   ar
    18     2    19    1
    19    19    20    1
    20    20    21    1
    21    21    22    1
    22    22    23    1
    23    23    24    1
    24    24    25    1
    25    25    26    1
    26    26    27    1
    27    25    28    1
    28    28    29    1
    29    29    30    1
    30    30    31    1
    31    31    32   ar
    32    32    33   ar
    33    33    34   ar
    34    34    35   ar
    35    35    36   ar
    36    19    37    1
    37    37    38   ar
    38    38    39   ar
    39    39    40   ar
    40    40    41    1
    41    40    42   ar
    42    42    43   ar
    43    18     5   ar
    44    27    22    1
    45    36    31   ar
    46    43    37   ar
    47    36    25    1
    48     3    44    1
    49     4    45    1
    50     4    46    1
    51     6    47    1
    52    12    48    1
    53    18    49    1
    54    19    50    1
    55    20    51    1
    56    20    52    1
    57    21    53    1
    58    21    54    1
    59    23    55    1
    60    23    56    1
    61    24    57    1
    62    24    58    1
    63    26    59    1
    64    26    60    1
    65    27    61    1
    66    27    62    1
    67    29    63    1
    68    29    64    1
    69    30    65    1
    70    30    66    1
    71    32    67    1
    72    33    68    1
    73    34    69    1
    74    35    70    1
    75    38    71    1
    76    39    72    1
    77    42    73    1
    78    43    74    1
