@<TRIPOS>MOLECULE
*****
 64 66 0 0 0
SMALL
GASTEIGER

@<TRIPOS>ATOM
      1 C          -5.2856   -0.0235   -1.7308 C.3     1  UNL1        0.0386
      2 C          -5.8575   -0.2430   -0.3649 C.2     1  UNL1        0.2769
      3 N          -5.8140   -1.4551    0.1131 N.2     1  UNL1       -0.1041
      4 N          -6.4338    0.7946    0.4081 N.pl3   1  UNL1       -0.2264
      5 C          -7.7899    1.2040    0.1305 C.3     1  UNL1        0.0693
      6 C          -5.6624    1.4162    1.4565 C.3     1  UNL1        0.0926
      7 C          -4.2675    0.8531    1.5640 C.3     1  UNL1        0.0350
      8 N          -3.4779    1.4126    2.5723 N.3     1  UNL1       -0.2976
      9 C          -3.8202    1.1615    3.9185 C.3     1  UNL1       -0.0123
     10 C          -2.2537    2.0290    2.2858 C.3     1  UNL1        0.0239
     11 C          -1.2825    1.0763    1.6552 C.ar    1  UNL1       -0.0333
     12 C          -0.4973    0.2432    2.4192 C.ar    1  UNL1       -0.0566
     13 C           0.4199   -0.6225    1.8628 C.ar    1  UNL1       -0.0493
     14 C           0.5855   -0.6827    0.4758 C.ar    1  UNL1        0.0370
     15 C           1.5567   -1.5979   -0.1024 C.2     1  UNL1        0.2483
     16 O           2.1445   -2.3960    0.6666 O.2     1  UNL1       -0.2699
     17 N           1.8894   -1.6522   -1.4776 N.am    1  UNL1       -0.2808
     18 C           2.8510   -2.5643   -2.0090 C.ar    1  UNL1        0.0459
     19 C           2.5040   -3.8020   -2.4946 C.ar    1  UNL1       -0.0384
     20 C           3.4073   -4.7077   -3.0021 C.ar    1  UNL1       -0.0416
     21 C           4.7450   -4.3817   -3.0379 C.ar    1  UNL1        0.0418
     22 CL          5.9450   -5.4907   -3.6710 Cl      1  UNL1       -0.0835
     23 C           5.1134   -3.1264   -2.5474 C.ar    1  UNL1       -0.0295
     24 C           4.2081   -2.2216   -2.0403 C.ar    1  UNL1        0.0596
     25 C           4.5993   -0.8995   -1.5231 C.2     1  UNL1        0.2511
     26 O           3.6890   -0.1583   -1.1262 O.2     1  UNL1       -0.2697
     27 N           5.9359   -0.5192   -1.4881 N.am    1  UNL1       -0.2663
     28 C           6.3971    0.7303   -1.0126 C.ar    1  UNL1        0.1252
     29 C           5.6045    1.7880   -0.6733 C.ar    1  UNL1       -0.0201
     30 C           6.1254    2.9825   -0.1833 C.ar    1  UNL1       -0.0387
     31 C           7.4746    3.1106   -0.0339 C.ar    1  UNL1        0.0592
     32 CL          8.1635    4.6070    0.5848 Cl      1  UNL1       -0.0820
     33 C           8.2519    2.0385   -0.3802 C.ar    1  UNL1        0.0480
     34 N           7.7362    0.9222   -0.8402 N.ar    1  UNL1       -0.2387
     35 C          -0.2114    0.1599   -0.2564 C.ar    1  UNL1       -0.0493
     36 C          -1.1304    1.0285    0.2820 C.ar    1  UNL1       -0.0566
     37 H          -5.0626    1.0306   -1.8912 H       1  UNL1        0.0351
     38 H          -4.4244   -0.6766   -1.9234 H       1  UNL1        0.0351
     39 H          -6.0906   -0.3144   -2.4423 H       1  UNL1        0.0351
     40 H          -6.2045   -1.6415    1.0620 H       1  UNL1        0.3629
     41 H          -7.9819    2.2521    0.4066 H       1  UNL1        0.0689
     42 H          -8.0074    1.1196   -0.9645 H       1  UNL1        0.0689
     43 H          -8.5302    0.5560    0.6630 H       1  UNL1        0.0689
     44 H          -6.2387    1.3259    2.3988 H       1  UNL1        0.0739
     45 H          -5.6206    2.5091    1.2230 H       1  UNL1        0.0739
     46 H          -4.4006   -0.2457    1.7968 H       1  UNL1        0.0463
     47 H          -3.7964    0.9341    0.5842 H       1  UNL1        0.0463
     48 H          -3.7102    0.0514    4.0976 H       1  UNL1        0.0391
     49 H          -4.8548    1.3932    4.2134 H       1  UNL1        0.0391
     50 H          -3.1529    1.7377    4.5917 H       1  UNL1        0.0391
     51 H          -2.4114    2.9135    1.6197 H       1  UNL1        0.0476
     52 H          -1.7934    2.3881    3.2252 H       1  UNL1        0.0476
     53 H          -0.6095    0.2746    3.4999 H       1  UNL1        0.0621
     54 H           1.0233   -1.2672    2.4944 H       1  UNL1        0.0625
     55 H           1.4125   -0.9982   -2.1271 H       1  UNL1        0.1552
     56 H           1.4595   -4.0836   -2.4787 H       1  UNL1        0.0637
     57 H           3.1281   -5.6911   -3.3878 H       1  UNL1        0.0633
     58 H           6.1549   -2.9091   -2.5920 H       1  UNL1        0.0640
     59 H           6.7115   -1.1689   -1.8338 H       1  UNL1        0.1566
     60 H           4.5147    1.7462   -0.7826 H       1  UNL1        0.0652
     61 H           5.4410    3.7873    0.0682 H       1  UNL1        0.0634
     62 H           9.3290    2.1416   -0.2589 H       1  UNL1        0.0845
     63 H          -0.1017    0.1311   -1.3350 H       1  UNL1        0.0625
     64 H          -1.7459    1.6904   -0.3273 H       1  UNL1        0.0621
@<TRIPOS>BOND
     1     1     2    1
     2     2     3    2
     3     2     4    1
     4     4     5    1
     5     4     6    1
     6     6     7    1
     7     7     8    1
     8     8     9    1
     9     8    10    1
    10    10    11    1
    11    11    12   ar
    12    12    13   ar
    13    13    14   ar
    14    14    15    1
    15    15    16    2
    16    15    17   am
    17    17    18    1
    18    18    19   ar
    19    19    20   ar
    20    20    21   ar
    21    21    22    1
    22    21    23   ar
    23    23    24   ar
    24    24    25    1
    25    25    26    2
    26    25    27   am
    27    27    28    1
    28    28    29   ar
    29    29    30   ar
    30    30    31   ar
    31    31    32    1
    32    31    33   ar
    33    33    34   ar
    34    14    35   ar
    35    35    36   ar
    36    36    11   ar
    37    24    18   ar
    38    34    28   ar
    39     1    37    1
    40     1    38    1
    41     1    39    1
    42     3    40    1
    43     5    41    1
    44     5    42    1
    45     5    43    1
    46     6    44    1
    47     6    45    1
    48     7    46    1
    49     7    47    1
    50     9    48    1
    51     9    49    1
    52     9    50    1
    53    10    51    1
    54    10    52    1
    55    12    53    1
    56    13    54    1
    57    17    55    1
    58    19    56    1
    59    20    57    1
    60    23    58    1
    61    27    59    1
    62    29    60    1
    63    30    61    1
    64    33    62    1
    65    35    63    1
    66    36    64    1
