
     RDKit          3D

 64 66  0  0  0  0  0  0  0  0999 V2000
   -5.2856   -0.0235   -1.7308 C   0  0  0  0  0  0  0  0  0  0  0  0
   -5.8575   -0.2430   -0.3649 C   0  0  0  0  0  0  0  0  0  0  0  0
   -5.8140   -1.4551    0.1131 N   0  0  0  0  0  0  0  0  0  0  0  0
   -6.4338    0.7946    0.4081 N   0  0  0  0  0  0  0  0  0  0  0  0
   -7.7899    1.2040    0.1305 C   0  0  0  0  0  0  0  0  0  0  0  0
   -5.6624    1.4162    1.4565 C   0  0  0  0  0  0  0  0  0  0  0  0
   -4.2675    0.8531    1.5640 C   0  0  0  0  0  0  0  0  0  0  0  0
   -3.4779    1.4126    2.5723 N   0  0  0  0  0  0  0  0  0  0  0  0
   -3.8202    1.1615    3.9185 C   0  0  0  0  0  0  0  0  0  0  0  0
   -2.2537    2.0290    2.2858 C   0  0  0  0  0  0  0  0  0  0  0  0
   -1.2825    1.0763    1.6552 C   0  0  0  0  0  0  0  0  0  0  0  0
   -0.4973    0.2432    2.4192 C   0  0  0  0  0  0  0  0  0  0  0  0
    0.4199   -0.6225    1.8628 C   0  0  0  0  0  0  0  0  0  0  0  0
    0.5855   -0.6827    0.4758 C   0  0  0  0  0  0  0  0  0  0  0  0
    1.5567   -1.5979   -0.1024 C   0  0  0  0  0  0  0  0  0  0  0  0
    2.1445   -2.3960    0.6666 O   0  0  0  0  0  0  0  0  0  0  0  0
    1.8894   -1.6522   -1.4776 N   0  0  0  0  0  0  0  0  0  0  0  0
    2.8510   -2.5643   -2.0090 C   0  0  0  0  0  0  0  0  0  0  0  0
    2.5040   -3.8020   -2.4946 C   0  0  0  0  0  0  0  0  0  0  0  0
    3.4073   -4.7077   -3.0021 C   0  0  0  0  0  0  0  0  0  0  0  0
    4.7450   -4.3817   -3.0379 C   0  0  0  0  0  0  0  0  0  0  0  0
    5.9450   -5.4907   -3.6710 Cl  0  0  0  0  0  0  0  0  0  0  0  0
    5.1134   -3.1264   -2.5474 C   0  0  0  0  0  0  0  0  0  0  0  0
    4.2081   -2.2216   -2.0403 C   0  0  0  0  0  0  0  0  0  0  0  0
    4.5993   -0.8995   -1.5231 C   0  0  0  0  0  0  0  0  0  0  0  0
    3.6890   -0.1583   -1.1262 O   0  0  0  0  0  0  0  0  0  0  0  0
    5.9359   -0.5192   -1.4881 N   0  0  0  0  0  0  0  0  0  0  0  0
    6.3971    0.7303   -1.0126 C   0  0  0  0  0  0  0  0  0  0  0  0
    5.6045    1.7880   -0.6733 C   0  0  0  0  0  0  0  0  0  0  0  0
    6.1254    2.9825   -0.1833 C   0  0  0  0  0  0  0  0  0  0  0  0
    7.4746    3.1106   -0.0339 C   0  0  0  0  0  0  0  0  0  0  0  0
    8.1635    4.6070    0.5848 Cl  0  0  0  0  0  0  0  0  0  0  0  0
    8.2519    2.0385   -0.3802 C   0  0  0  0  0  0  0  0  0  0  0  0
    7.7362    0.9222   -0.8402 N   0  0  0  0  0  0  0  0  0  0  0  0
   -0.2114    0.1599   -0.2564 C   0  0  0  0  0  0  0  0  0  0  0  0
   -1.1304    1.0285    0.2820 C   0  0  0  0  0  0  0  0  0  0  0  0
   -5.0626    1.0306   -1.8912 H   0  0  0  0  0  0  0  0  0  0  0  0
   -4.4244   -0.6766   -1.9234 H   0  0  0  0  0  0  0  0  0  0  0  0
   -6.0906   -0.3144   -2.4423 H   0  0  0  0  0  0  0  0  0  0  0  0
   -6.2045   -1.6415    1.0620 H   0  0  0  0  0  0  0  0  0  0  0  0
   -7.9819    2.2521    0.4066 H   0  0  0  0  0  0  0  0  0  0  0  0
   -8.0074    1.1196   -0.9645 H   0  0  0  0  0  0  0  0  0  0  0  0
   -8.5302    0.5560    0.6630 H   0  0  0  0  0  0  0  0  0  0  0  0
   -6.2387    1.3259    2.3988 H   0  0  0  0  0  0  0  0  0  0  0  0
   -5.6206    2.5091    1.2230 H   0  0  0  0  0  0  0  0  0  0  0  0
   -4.4006   -0.2457    1.7968 H   0  0  0  0  0  0  0  0  0  0  0  0
   -3.7964    0.9341    0.5842 H   0  0  0  0  0  0  0  0  0  0  0  0
   -3.7102    0.0514    4.0976 H   0  0  0  0  0  0  0  0  0  0  0  0
   -4.8548    1.3932    4.2134 H   0  0  0  0  0  0  0  0  0  0  0  0
   -3.1529    1.7377    4.5917 H   0  0  0  0  0  0  0  0  0  0  0  0
   -2.4114    2.9135    1.6197 H   0  0  0  0  0  0  0  0  0  0  0  0
   -1.7934    2.3881    3.2252 H   0  0  0  0  0  0  0  0  0  0  0  0
   -0.6095    0.2746    3.4999 H   0  0  0  0  0  0  0  0  0  0  0  0
    1.0233   -1.2672    2.4944 H   0  0  0  0  0  0  0  0  0  0  0  0
    1.4125   -0.9982   -2.1271 H   0  0  0  0  0  0  0  0  0  0  0  0
    1.4595   -4.0836   -2.4787 H   0  0  0  0  0  0  0  0  0  0  0  0
    3.1281   -5.6911   -3.3878 H   0  0  0  0  0  0  0  0  0  0  0  0
    6.1549   -2.9091   -2.5920 H   0  0  0  0  0  0  0  0  0  0  0  0
    6.7115   -1.1689   -1.8338 H   0  0  0  0  0  0  0  0  0  0  0  0
    4.5147    1.7462   -0.7826 H   0  0  0  0  0  0  0  0  0  0  0  0
    5.4410    3.7873    0.0682 H   0  0  0  0  0  0  0  0  0  0  0  0
    9.3290    2.1416   -0.2589 H   0  0  0  0  0  0  0  0  0  0  0  0
   -0.1017    0.1311   -1.3350 H   0  0  0  0  0  0  0  0  0  0  0  0
   -1.7459    1.6904   -0.3273 H   0  0  0  0  0  0  0  0  0  0  0  0
  1  2  1  0
  2  3  2  3
  2  4  1  0
  4  5  1  0
  4  6  1  0
  6  7  1  0
  7  8  1  0
  8  9  1  0
  8 10  1  0
 10 11  1  0
 11 12  2  0
 12 13  1  0
 13 14  2  0
 14 15  1  0
 15 16  2  0
 15 17  1  0
 17 18  1  0
 18 19  2  0
 19 20  1  0
 20 21  2  0
 21 22  1  0
 21 23  1  0
 23 24  2  0
 24 25  1  0
 25 26  2  0
 25 27  1  0
 27 28  1  0
 28 29  2  0
 29 30  1  0
 30 31  2  0
 31 32  1  0
 31 33  1  0
 33 34  2  0
 14 35  1  0
 35 36  2  0
 36 11  1  0
 24 18  1  0
 34 28  1  0
  1 37  1  0
  1 38  1  0
  1 39  1  0
  3 40  1  0
  5 41  1  0
  5 42  1  0
  5 43  1  0
  6 44  1  0
  6 45  1  0
  7 46  1  0
  7 47  1  0
  9 48  1  0
  9 49  1  0
  9 50  1  0
 10 51  1  0
 10 52  1  0
 12 53  1  0
 13 54  1  0
 17 55  1  0
 19 56  1  0
 20 57  1  0
 23 58  1  0
 27 59  1  0
 29 60  1  0
 30 61  1  0
 33 62  1  0
 35 63  1  0
 36 64  1  0
M  END
$$$$
