@<TRIPOS>MOLECULE
*****
 64 67 0 0 0
SMALL
GASTEIGER

@<TRIPOS>ATOM
      1 C          -5.1926    4.9671    1.3080 C.3     1  UNL1       -0.0652
      2 C          -5.4072    4.1226    2.5460 C.3     1  UNL1       -0.0545
      3 C          -4.6294    2.8330    2.3611 C.3     1  UNL1       -0.0376
      4 C          -5.1297    2.0929    1.1288 C.3     1  UNL1        0.0118
      5 N          -4.4127    0.8575    0.9222 N.pl3   1  UNL1       -0.3134
      6 C          -3.0035    0.8025    0.6933 C.ar    1  UNL1        0.2169
      7 N          -2.2504    1.9034    0.6471 N.ar    1  UNL1       -0.2222
      8 C          -0.9039    1.8606    0.4293 C.ar    1  UNL1        0.0437
      9 C          -0.2772    0.6478    0.2477 C.ar    1  UNL1        0.0600
     10 C           1.1605    0.5989    0.0137 C.ar    1  UNL1        0.0981
     11 C           1.9227    1.7703   -0.0284 C.ar    1  UNL1       -0.0317
     12 C           3.2764    1.6959   -0.2502 C.ar    1  UNL1       -0.0319
     13 C           3.9068    0.5106   -0.4320 C.ar    1  UNL1        0.0934
     14 C           5.3601    0.4176   -0.6707 C.ar    1  UNL1        0.0029
     15 C           5.9294   -0.8274   -0.8466 C.ar    1  UNL1       -0.0525
     16 C           7.2860   -0.9924   -1.0747 C.ar    1  UNL1       -0.0604
     17 C           8.0876    0.1448   -1.1251 C.ar    1  UNL1       -0.0477
     18 C           7.5499    1.3999   -0.9536 C.ar    1  UNL1        0.0595
     19 C           8.4259    2.5621   -1.0142 C.2     1  UNL1        0.3368
     20 O           9.6521    2.4833   -1.2155 O.2     1  UNL1       -0.2451
     21 O           7.8713    3.8221   -0.8396 O.3     1  UNL1       -0.4771
     22 C           6.1936    1.5035   -0.7298 C.ar    1  UNL1       -0.0385
     23 N           3.1546   -0.6067   -0.3878 N.ar    1  UNL1       -0.1487
     24 N           1.8667   -0.5257   -0.1761 N.ar    1  UNL1       -0.1485
     25 C          -1.0419   -0.4724    0.2945 C.ar    1  UNL1        0.1333
     26 N          -0.5248   -1.7678    0.1290 N.pl3   1  UNL1       -0.3256
     27 C          -1.4830   -2.8902    0.1993 C.3     1  UNL1        0.0221
     28 C          -2.4762   -2.7006   -0.9142 C.3     1  UNL1       -0.0322
     29 C          -2.1771   -3.7590   -1.9829 C.3     1  UNL1       -0.0252
     30 C          -2.4892   -5.1009   -1.3601 C.3     1  UNL1        0.0554
     31 O          -3.8815   -5.2043   -1.2134 O.3     1  UNL1       -0.3918
     32 C          -1.7732   -5.2834   -0.0565 C.3     1  UNL1       -0.0252
     33 C          -0.7354   -4.1890    0.1222 C.3     1  UNL1       -0.0322
     34 N          -2.3644   -0.3646    0.5128 N.ar    1  UNL1       -0.1991
     35 H          -4.2836    4.6218    0.7682 H       1  UNL1        0.0230
     36 H          -6.0572    4.9111    0.6159 H       1  UNL1        0.0230
     37 H          -4.9849    6.0135    1.6147 H       1  UNL1        0.0230
     38 H          -4.9689    4.6483    3.4079 H       1  UNL1        0.0263
     39 H          -6.5003    3.8985    2.7021 H       1  UNL1        0.0263
     40 H          -4.7297    2.2256    3.2726 H       1  UNL1        0.0280
     41 H          -3.5881    3.1030    2.1883 H       1  UNL1        0.0280
     42 H          -4.8826    2.7441    0.2399 H       1  UNL1        0.0462
     43 H          -6.2090    1.8978    1.1841 H       1  UNL1        0.0462
     44 H          -4.9339   -0.0445    0.9381 H       1  UNL1        0.1489
     45 H          -0.3533    2.7986    0.4044 H       1  UNL1        0.0838
     46 H           1.4450    2.7282    0.1135 H       1  UNL1        0.0640
     47 H           3.8332    2.6149   -0.2766 H       1  UNL1        0.0640
     48 H           5.2669   -1.6926   -0.7998 H       1  UNL1        0.0624
     49 H           7.7146   -1.9834   -1.2108 H       1  UNL1        0.0618
     50 H           9.1397   -0.0253   -1.3048 H       1  UNL1        0.0626
     51 H           8.3948    4.6282   -0.5321 H       1  UNL1        0.2954
     52 H           5.8047    2.4836   -0.6008 H       1  UNL1        0.0632
     53 H           0.4576   -2.0245   -0.0373 H       1  UNL1        0.1478
     54 H          -2.0305   -2.8318    1.1674 H       1  UNL1        0.0498
     55 H          -2.2911   -1.7350   -1.4195 H       1  UNL1        0.0284
     56 H          -3.5257   -2.8062   -0.5695 H       1  UNL1        0.0284
     57 H          -1.1257   -3.6426   -2.2593 H       1  UNL1        0.0291
     58 H          -2.8469   -3.5758   -2.8711 H       1  UNL1        0.0291
     59 H          -2.1109   -5.8692   -2.0788 H       1  UNL1        0.0593
     60 H          -4.2430   -5.4388   -2.1255 H       1  UNL1        0.2098
     61 H          -1.2501   -6.2474   -0.0311 H       1  UNL1        0.0291
     62 H          -2.4736   -5.1750    0.8127 H       1  UNL1        0.0291
     63 H           0.0279   -4.1877   -0.6735 H       1  UNL1        0.0284
     64 H          -0.1860   -4.3491    1.0770 H       1  UNL1        0.0284
@<TRIPOS>BOND
     1     1     2    1
     2     2     3    1
     3     3     4    1
     4     4     5    1
     5     5     6    1
     6     6     7   ar
     7     7     8   ar
     8     8     9   ar
     9     9    10    1
    10    10    11   ar
    11    11    12   ar
    12    12    13   ar
    13    13    14    1
    14    14    15   ar
    15    15    16   ar
    16    16    17   ar
    17    17    18   ar
    18    18    19    1
    19    19    20    2
    20    19    21    1
    21    18    22   ar
    22    13    23   ar
    23    23    24   ar
    24     9    25   ar
    25    25    26    1
    26    26    27    1
    27    27    28    1
    28    28    29    1
    29    29    30    1
    30    30    31    1
    31    30    32    1
    32    32    33    1
    33    25    34   ar
    34    34     6   ar
    35    24    10   ar
    36    33    27    1
    37    22    14   ar
    38     1    35    1
    39     1    36    1
    40     1    37    1
    41     2    38    1
    42     2    39    1
    43     3    40    1
    44     3    41    1
    45     4    42    1
    46     4    43    1
    47     5    44    1
    48     8    45    1
    49    11    46    1
    50    12    47    1
    51    15    48    1
    52    16    49    1
    53    17    50    1
    54    21    51    1
    55    22    52    1
    56    26    53    1
    57    27    54    1
    58    28    55    1
    59    28    56    1
    60    29    57    1
    61    29    58    1
    62    30    59    1
    63    31    60    1
    64    32    61    1
    65    32    62    1
    66    33    63    1
    67    33    64    1
