
     RDKit          3D

 46 48  0  0  0  0  0  0  0  0999 V2000
   -1.7211   -1.9142   -0.7291 C   0  0  0  0  0  0  0  0  0  0  0  0
   -2.7763   -0.9359   -0.3195 C   0  0  0  0  0  0  0  0  0  0  0  0
   -4.0269   -1.3801    0.0559 C   0  0  0  0  0  0  0  0  0  0  0  0
   -4.9322   -0.4096    0.4205 C   0  0  0  0  0  0  0  0  0  0  0  0
   -6.2815   -0.7812    0.8261 C   0  0  0  0  0  0  0  0  0  0  0  0
   -6.8067   -1.9886    0.9030 C   0  0  0  0  0  0  0  0  0  0  0  0
   -8.1545   -2.2519    1.3164 C   0  0  0  0  0  0  0  0  0  0  0  0
   -9.2460   -2.4654    1.6482 N   0  0  0  0  0  0  0  0  0  0  0  0
   -4.6159    0.9305    0.4141 C   0  0  0  0  0  0  0  0  0  0  0  0
   -3.3660    1.3775    0.0390 C   0  0  0  0  0  0  0  0  0  0  0  0
   -3.1325    2.8410    0.0625 C   0  0  0  0  0  0  0  0  0  0  0  0
   -2.4391    0.3990   -0.3334 C   0  0  0  0  0  0  0  0  0  0  0  0
   -1.1727    0.9128   -0.7172 N   0  0  0  0  0  0  0  0  0  0  0  0
    0.1385    1.1673   -0.2284 C   0  0  0  0  0  0  0  0  0  0  0  0
    0.3940    2.3100    0.4959 C   0  0  0  0  0  0  0  0  0  0  0  0
    1.6910    2.4869    0.9196 C   0  0  0  0  0  0  0  0  0  0  0  0
    2.6038    1.5623    0.6106 N   0  0  0  0  0  0  0  0  0  0  0  0
    2.3275    0.4595   -0.0962 C   0  0  0  0  0  0  0  0  0  0  0  0
    3.3060   -0.5102   -0.4323 N   0  0  0  0  0  0  0  0  0  0  0  0
    4.6945   -0.5498   -0.1619 C   0  0  0  0  0  0  0  0  0  0  0  0
    5.5162   -1.5473   -0.5953 C   0  0  0  0  0  0  0  0  0  0  0  0
    6.8682   -1.6646   -0.3879 C   0  0  0  0  0  0  0  0  0  0  0  0
    7.4694   -0.6415    0.3531 C   0  0  0  0  0  0  0  0  0  0  0  0
    6.7116    0.3992    0.8263 C   0  0  0  0  0  0  0  0  0  0  0  0
    5.3598    0.4291    0.5662 C   0  0  0  0  0  0  0  0  0  0  0  0
    8.8892   -0.7766    0.5603 C   0  0  0  0  0  0  0  0  0  0  0  0
   10.0360   -0.8765    0.7459 N   0  0  0  0  0  0  0  0  0  0  0  0
    1.0739    0.2527   -0.5262 N   0  0  0  0  0  0  0  0  0  0  0  0
   -0.9244   -1.9768    0.0369 H   0  0  0  0  0  0  0  0  0  0  0  0
   -2.1783   -2.9374   -0.7628 H   0  0  0  0  0  0  0  0  0  0  0  0
   -1.3243   -1.6937   -1.7474 H   0  0  0  0  0  0  0  0  0  0  0  0
   -4.2484   -2.4368    0.0531 H   0  0  0  0  0  0  0  0  0  0  0  0
   -7.0114   -0.0083    1.1199 H   0  0  0  0  0  0  0  0  0  0  0  0
   -6.1538   -2.8057    0.6286 H   0  0  0  0  0  0  0  0  0  0  0  0
   -5.3790    1.6639    0.7157 H   0  0  0  0  0  0  0  0  0  0  0  0
   -2.3805    3.0942   -0.7170 H   0  0  0  0  0  0  0  0  0  0  0  0
   -4.1052    3.3405   -0.1821 H   0  0  0  0  0  0  0  0  0  0  0  0
   -2.7883    3.1169    1.0738 H   0  0  0  0  0  0  0  0  0  0  0  0
   -1.2133    1.2118   -1.7201 H   0  0  0  0  0  0  0  0  0  0  0  0
   -0.3296    3.0429    0.7417 H   0  0  0  0  0  0  0  0  0  0  0  0
    2.0553    3.3275    1.4982 H   0  0  0  0  0  0  0  0  0  0  0  0
    2.9817   -1.3654   -0.9785 H   0  0  0  0  0  0  0  0  0  0  0  0
    5.0808   -2.3647   -1.1771 H   0  0  0  0  0  0  0  0  0  0  0  0
    7.4297   -2.4991   -0.7760 H   0  0  0  0  0  0  0  0  0  0  0  0
    7.2184    1.1825    1.4057 H   0  0  0  0  0  0  0  0  0  0  0  0
    4.8623    1.2734    0.9744 H   0  0  0  0  0  0  0  0  0  0  0  0
  1  2  1  0
  2  3  2  0
  3  4  1  0
  4  5  1  0
  5  6  2  0
  6  7  1  0
  7  8  3  0
  4  9  2  0
  9 10  1  0
 10 11  1  0
 10 12  2  0
 12 13  1  0
 13 14  1  0
 14 15  2  0
 15 16  1  0
 16 17  2  0
 17 18  1  0
 18 19  1  0
 19 20  1  0
 20 21  2  0
 21 22  1  0
 22 23  2  0
 23 24  1  0
 24 25  2  0
 23 26  1  0
 26 27  3  0
 18 28  2  0
 12  2  1  0
 28 14  1  0
 25 20  1  0
  1 29  1  0
  1 30  1  0
  1 31  1  0
  3 32  1  0
  5 33  1  0
  6 34  1  0
  9 35  1  0
 11 36  1  0
 11 37  1  0
 11 38  1  0
 13 39  1  0
 15 40  1  0
 16 41  1  0
 19 42  1  0
 21 43  1  0
 22 44  1  0
 24 45  1  0
 25 46  1  0
M  END
$$$$
