@<TRIPOS>MOLECULE
*****
 46 51 0 0 0
SMALL
GASTEIGER

@<TRIPOS>ATOM
      1 N           4.8924    1.9362    1.6359 N.am    1  UNL1       -0.3240
      2 C           3.6328    1.4383    1.2791 C.2     1  UNL1        0.2615
      3 O           2.7234    1.4478    2.1525 O.2     1  UNL1       -0.2687
      4 C           3.3753    0.9220   -0.0644 C.ar    1  UNL1        0.1470
      5 C           4.2956    0.8660   -1.0822 C.ar    1  UNL1        0.0605
      6 N           3.6448    0.3306   -2.1286 N.ar    1  UNL1       -0.2339
      7 C           2.3542    0.0575   -1.7812 C.ar    1  UNL1        0.1549
      8 C           1.2987   -0.4847   -2.4800 C.ar    1  UNL1       -0.0153
      9 C           0.0956   -0.6405   -1.8561 C.ar    1  UNL1       -0.0290
     10 C          -0.0535   -0.2612   -0.5534 C.ar    1  UNL1        0.1103
     11 C          -1.3536   -0.4209    0.1330 C.ar    1  UNL1        0.0971
     12 C          -2.0329    0.6801    0.6194 C.ar    1  UNL1        0.0982
     13 C          -1.6137    2.0850    0.5502 C.ar    1  UNL1        0.0027
     14 C          -1.4424    2.6699   -0.6845 C.ar    1  UNL1       -0.0498
     15 C          -1.0447    4.0020   -0.7875 C.ar    1  UNL1       -0.0258
     16 C          -0.8114    4.7728    0.3326 C.ar    1  UNL1        0.1234
     17 F          -0.4248    6.0677    0.2329 F       1  UNL1       -0.2055
     18 C          -0.9842    4.1833    1.5735 C.ar    1  UNL1       -0.0258
     19 C          -1.3811    2.8538    1.6696 C.ar    1  UNL1       -0.0498
     20 N          -3.1428    0.2114    1.1661 N.ar    1  UNL1       -0.2350
     21 C          -3.1625   -1.1021    1.0331 C.ar    1  UNL1        0.0976
     22 N          -2.0427   -1.5530    0.3807 N.ar    1  UNL1       -0.3221
     23 C          -1.7529   -2.8116    0.0917 C.3     1  UNL1        0.0478
     24 C          -0.3979   -3.4516    0.1319 C.3     1  UNL1       -0.0262
     25 C          -1.3256   -4.5916   -0.1895 C.3     1  UNL1       -0.0346
     26 C          -2.0173   -3.6206   -1.1192 C.3     1  UNL1       -0.0262
     27 C          -2.2134   -4.0193    0.8836 C.3     1  UNL1       -0.0262
     28 N           1.0061    0.2627    0.0855 N.ar    1  UNL1       -0.1628
     29 N           2.1846    0.4250   -0.4964 N.ar    1  UNL1       -0.2076
     30 H           5.5441    1.3742    2.2243 H       1  UNL1        0.1453
     31 H           5.1976    2.8769    1.3180 H       1  UNL1        0.1453
     32 H           5.3223    1.1951   -1.0159 H       1  UNL1        0.0854
     33 H           1.4428   -0.7824   -3.5268 H       1  UNL1        0.0655
     34 H          -0.7300   -1.0616   -2.3949 H       1  UNL1        0.0641
     35 H          -1.6169    2.0931   -1.5719 H       1  UNL1        0.0625
     36 H          -0.9069    4.4718   -1.7626 H       1  UNL1        0.0646
     37 H          -0.8073    4.7682    2.4694 H       1  UNL1        0.0646
     38 H          -1.5211    2.3776    2.6427 H       1  UNL1        0.0625
     39 H          -3.9734   -1.7395    1.3999 H       1  UNL1        0.1029
     40 H           0.2827   -3.2857   -0.7084 H       1  UNL1        0.0291
     41 H           0.0812   -3.4710    1.1259 H       1  UNL1        0.0291
     42 H          -1.1035   -5.5458   -0.3647 H       1  UNL1        0.0303
     43 H          -3.0537   -3.9642   -1.3009 H       1  UNL1        0.0291
     44 H          -1.4248   -3.3192   -1.9859 H       1  UNL1        0.0291
     45 H          -3.2743   -4.2618    0.8200 H       1  UNL1        0.0291
     46 H          -1.7651   -3.9807    1.9037 H       1  UNL1        0.0291
@<TRIPOS>BOND
     1     1     2   am
     2     2     3    2
     3     2     4    1
     4     4     5   ar
     5     5     6   ar
     6     6     7   ar
     7     7     8   ar
     8     8     9   ar
     9     9    10   ar
    10    10    11    1
    11    11    12   ar
    12    12    13    1
    13    13    14   ar
    14    14    15   ar
    15    15    16   ar
    16    16    17    1
    17    16    18   ar
    18    18    19   ar
    19    12    20   ar
    20    20    21   ar
    21    21    22   ar
    22    22    23    1
    23    23    24    1
    24    24    25    1
    25    25    26    1
    26    25    27    1
    27    10    28   ar
    28    28    29   ar
    29    29     4   ar
    30    29     7   ar
    31    22    11   ar
    32    26    23    1
    33    19    13   ar
    34    27    23    1
    35     1    30    1
    36     1    31    1
    37     5    32    1
    38     8    33    1
    39     9    34    1
    40    14    35    1
    41    15    36    1
    42    18    37    1
    43    19    38    1
    44    21    39    1
    45    24    40    1
    46    24    41    1
    47    25    42    1
    48    26    43    1
    49    26    44    1
    50    27    45    1
    51    27    46    1
