
     RDKit          3D

 49 51  0  0  0  0  0  0  0  0999 V2000
    6.8861    2.1501   -0.1002 C   0  0  0  0  0  0  0  0  0  0  0  0
    5.9289    1.0168   -0.1363 C   0  0  0  0  0  0  0  0  0  0  0  0
    6.3842   -0.2339    0.2927 C   0  0  0  0  0  0  0  0  0  0  0  0
    5.4997   -1.2720    0.2590 C   0  0  0  0  0  0  0  0  0  0  0  0
    4.2239   -1.0880   -0.1772 C   0  0  0  0  0  0  0  0  0  0  0  0
    3.2069   -1.9509   -0.2920 N   0  0  0  0  0  0  0  0  0  0  0  0
    2.1244   -1.3383   -0.7674 C   0  0  0  0  0  0  0  0  0  0  0  0
    0.8282   -1.9900   -1.0188 C   0  0  0  0  0  0  0  0  0  0  0  0
    0.7821   -2.8991   -1.9118 O   0  0  0  0  0  0  0  0  0  0  0  0
   -0.3466   -1.6666   -0.3350 N   0  0  0  0  0  0  0  0  0  0  0  0
   -1.5738   -2.3595   -0.6513 C   0  0  0  0  0  0  0  0  0  0  0  0
   -2.6835   -2.0327    0.3054 C   0  0  0  0  0  0  0  0  0  0  0  0
   -2.8742   -0.5440    0.5133 C   0  0  0  0  0  0  0  0  0  0  0  0
   -3.9375   -0.1069   -0.4615 C   0  0  0  0  0  0  0  0  0  0  0  0
   -4.2720    1.3407   -0.4092 C   0  0  0  0  0  0  0  0  0  0  0  0
   -4.7891    1.7790    0.9510 C   0  0  0  0  0  0  0  0  0  0  0  0
   -5.4215    1.5650   -1.3893 C   0  0  0  0  0  0  0  0  0  0  0  0
   -3.2352    2.1718   -0.8415 O   0  0  0  0  0  0  0  0  0  0  0  0
   -1.6163    0.2457    0.4140 C   0  0  0  0  0  0  0  0  0  0  0  0
   -0.4346   -0.6558    0.7027 C   0  0  0  0  0  0  0  0  0  0  0  0
    2.4332   -0.0132   -0.9778 C   0  0  0  0  0  0  0  0  0  0  0  0
    3.7505    0.1560   -0.6102 C   0  0  0  0  0  0  0  0  0  0  0  0
    4.6394    1.2145   -0.5800 C   0  0  0  0  0  0  0  0  0  0  0  0
    6.8124    2.6403    0.8908 H   0  0  0  0  0  0  0  0  0  0  0  0
    7.9286    1.7396   -0.1917 H   0  0  0  0  0  0  0  0  0  0  0  0
    6.7534    2.8374   -0.9482 H   0  0  0  0  0  0  0  0  0  0  0  0
    7.4244   -0.3162    0.6336 H   0  0  0  0  0  0  0  0  0  0  0  0
    5.8153   -2.2467    0.5815 H   0  0  0  0  0  0  0  0  0  0  0  0
    3.2481   -2.9787   -0.0418 H   0  0  0  0  0  0  0  0  0  0  0  0
   -1.8765   -2.1254   -1.6900 H   0  0  0  0  0  0  0  0  0  0  0  0
   -1.3964   -3.4652   -0.5680 H   0  0  0  0  0  0  0  0  0  0  0  0
   -3.6173   -2.4993   -0.1286 H   0  0  0  0  0  0  0  0  0  0  0  0
   -2.5445   -2.5786    1.2800 H   0  0  0  0  0  0  0  0  0  0  0  0
   -3.3016   -0.4180    1.5282 H   0  0  0  0  0  0  0  0  0  0  0  0
   -3.5927   -0.3272   -1.5011 H   0  0  0  0  0  0  0  0  0  0  0  0
   -4.8351   -0.6949   -0.2711 H   0  0  0  0  0  0  0  0  0  0  0  0
   -5.1713    2.8156    0.8128 H   0  0  0  0  0  0  0  0  0  0  0  0
   -4.0393    1.6870    1.7430 H   0  0  0  0  0  0  0  0  0  0  0  0
   -5.7018    1.1595    1.1524 H   0  0  0  0  0  0  0  0  0  0  0  0
   -5.1080    1.0937   -2.3410 H   0  0  0  0  0  0  0  0  0  0  0  0
   -6.2924    0.9971   -0.9982 H   0  0  0  0  0  0  0  0  0  0  0  0
   -5.6223    2.6395   -1.4980 H   0  0  0  0  0  0  0  0  0  0  0  0
   -3.3717    3.0500   -0.3661 H   0  0  0  0  0  0  0  0  0  0  0  0
   -1.6054    1.0264    1.2130 H   0  0  0  0  0  0  0  0  0  0  0  0
   -1.4350    0.6820   -0.5896 H   0  0  0  0  0  0  0  0  0  0  0  0
   -0.5565   -1.1012    1.7062 H   0  0  0  0  0  0  0  0  0  0  0  0
    0.5082   -0.0456    0.7090 H   0  0  0  0  0  0  0  0  0  0  0  0
    1.8114    0.7758   -1.3517 H   0  0  0  0  0  0  0  0  0  0  0  0
    4.2627    2.1645   -0.9149 H   0  0  0  0  0  0  0  0  0  0  0  0
  1  2  1  0
  2  3  2  0
  3  4  1  0
  4  5  2  0
  5  6  1  0
  6  7  1  0
  7  8  1  0
  8  9  2  0
  8 10  1  0
 10 11  1  0
 11 12  1  0
 12 13  1  0
 13 14  1  0
 14 15  1  0
 15 16  1  0
 15 17  1  0
 15 18  1  0
 13 19  1  0
 19 20  1  0
  7 21  2  0
 21 22  1  0
 22 23  2  0
 23  2  1  0
 22  5  1  0
 20 10  1  0
  1 24  1  0
  1 25  1  0
  1 26  1  0
  3 27  1  0
  4 28  1  0
  6 29  1  0
 11 30  1  0
 11 31  1  0
 12 32  1  0
 12 33  1  0
 13 34  1  0
 14 35  1  0
 14 36  1  0
 16 37  1  0
 16 38  1  0
 16 39  1  0
 17 40  1  0
 17 41  1  0
 17 42  1  0
 18 43  1  0
 19 44  1  0
 19 45  1  0
 20 46  1  0
 20 47  1  0
 21 48  1  0
 23 49  1  0
M  END
$$$$
