@<TRIPOS>MOLECULE
*****
 49 51 0 0 0
SMALL
GASTEIGER

@<TRIPOS>ATOM
      1 C           6.8861    2.1501   -0.1002 C.3     1  UNL1       -0.0397
      2 C           5.9289    1.0168   -0.1363 C.ar    1  UNL1       -0.0498
      3 C           6.3842   -0.2339    0.2927 C.ar    1  UNL1       -0.0569
      4 C           5.4997   -1.2720    0.2590 C.ar    1  UNL1       -0.0375
      5 C           4.2239   -1.0880   -0.1772 C.ar    1  UNL1        0.0470
      6 N           3.2069   -1.9509   -0.2920 N.ar    1  UNL1       -0.3506
      7 C           2.1244   -1.3383   -0.7674 C.ar    1  UNL1        0.1030
      8 C           0.8282   -1.9900   -1.0188 C.2     1  UNL1        0.2629
      9 O           0.7821   -2.8991   -1.9118 O.2     1  UNL1       -0.2684
     10 N          -0.3466   -1.6666   -0.3350 N.am    1  UNL1       -0.2963
     11 C          -1.5738   -2.3595   -0.6513 C.3     1  UNL1        0.0153
     12 C          -2.6835   -2.0327    0.3054 C.3     1  UNL1       -0.0342
     13 C          -2.8742   -0.5440    0.5133 C.3     1  UNL1       -0.0356
     14 C          -3.9375   -0.1069   -0.4615 C.3     1  UNL1       -0.0216
     15 C          -4.2720    1.3407   -0.4092 C.3     1  UNL1        0.0608
     16 C          -4.7891    1.7790    0.9510 C.3     1  UNL1       -0.0363
     17 C          -5.4215    1.5650   -1.3893 C.3     1  UNL1       -0.0363
     18 O          -3.2352    2.1718   -0.8415 O.3     1  UNL1       -0.3891
     19 C          -1.6163    0.2457    0.4140 C.3     1  UNL1       -0.0342
     20 C          -0.4346   -0.6558    0.7027 C.3     1  UNL1        0.0153
     21 C           2.4332   -0.0132   -0.9778 C.ar    1  UNL1       -0.0241
     22 C           3.7505    0.1560   -0.6102 C.ar    1  UNL1        0.0006
     23 C           4.6394    1.2145   -0.5800 C.ar    1  UNL1       -0.0496
     24 H           6.8124    2.6403    0.8908 H       1  UNL1        0.0278
     25 H           7.9286    1.7396   -0.1917 H       1  UNL1        0.0278
     26 H           6.7534    2.8374   -0.9482 H       1  UNL1        0.0278
     27 H           7.4244   -0.3162    0.6336 H       1  UNL1        0.0621
     28 H           5.8153   -2.2467    0.5815 H       1  UNL1        0.0638
     29 H           3.2481   -2.9787   -0.0418 H       1  UNL1        0.1660
     30 H          -1.8765   -2.1254   -1.6900 H       1  UNL1        0.0465
     31 H          -1.3964   -3.4652   -0.5680 H       1  UNL1        0.0465
     32 H          -3.6173   -2.4993   -0.1286 H       1  UNL1        0.0283
     33 H          -2.5445   -2.5786    1.2800 H       1  UNL1        0.0283
     34 H          -3.3016   -0.4180    1.5282 H       1  UNL1        0.0303
     35 H          -3.5927   -0.3272   -1.5011 H       1  UNL1        0.0295
     36 H          -4.8351   -0.6949   -0.2711 H       1  UNL1        0.0295
     37 H          -5.1713    2.8156    0.8128 H       1  UNL1        0.0257
     38 H          -4.0393    1.6870    1.7430 H       1  UNL1        0.0257
     39 H          -5.7018    1.1595    1.1524 H       1  UNL1        0.0257
     40 H          -5.1080    1.0937   -2.3410 H       1  UNL1        0.0257
     41 H          -6.2924    0.9971   -0.9982 H       1  UNL1        0.0257
     42 H          -5.6223    2.6395   -1.4980 H       1  UNL1        0.0257
     43 H          -3.3717    3.0500   -0.3661 H       1  UNL1        0.2101
     44 H          -1.6054    1.0264    1.2130 H       1  UNL1        0.0283
     45 H          -1.4350    0.6820   -0.5896 H       1  UNL1        0.0283
     46 H          -0.5565   -1.1012    1.7062 H       1  UNL1        0.0465
     47 H           0.5082   -0.0456    0.7090 H       1  UNL1        0.0465
     48 H           1.8114    0.7758   -1.3517 H       1  UNL1        0.0646
     49 H           4.2627    2.1645   -0.9149 H       1  UNL1        0.0627
@<TRIPOS>BOND
     1     1     2    1
     2     2     3   ar
     3     3     4   ar
     4     4     5   ar
     5     5     6   ar
     6     6     7   ar
     7     7     8    1
     8     8     9    2
     9     8    10   am
    10    10    11    1
    11    11    12    1
    12    12    13    1
    13    13    14    1
    14    14    15    1
    15    15    16    1
    16    15    17    1
    17    15    18    1
    18    13    19    1
    19    19    20    1
    20     7    21   ar
    21    21    22   ar
    22    22    23   ar
    23    23     2   ar
    24    22     5   ar
    25    20    10    1
    26     1    24    1
    27     1    25    1
    28     1    26    1
    29     3    27    1
    30     4    28    1
    31     6    29    1
    32    11    30    1
    33    11    31    1
    34    12    32    1
    35    12    33    1
    36    13    34    1
    37    14    35    1
    38    14    36    1
    39    16    37    1
    40    16    38    1
    41    16    39    1
    42    17    40    1
    43    17    41    1
    44    17    42    1
    45    18    43    1
    46    19    44    1
    47    19    45    1
    48    20    46    1
    49    20    47    1
    50    21    48    1
    51    23    49    1
