@<TRIPOS>MOLECULE
*****
 57 61 0 0 0
SMALL
GASTEIGER

@<TRIPOS>ATOM
      1 C          -1.7827    0.7996    1.1905 C.3     1  UNL1        0.0328
      2 C          -1.4965   -0.6788    1.3099 C.3     1  UNL1       -0.0209
      3 C          -0.1159   -1.0815    0.9006 C.3     1  UNL1        0.0006
      4 N           0.6488   -0.0475    0.2781 N.3     1  UNL1       -0.3016
      5 C           1.7433   -0.6761   -0.4388 C.3     1  UNL1       -0.0007
      6 C           2.7470   -1.3051    0.4741 C.3     1  UNL1       -0.0332
      7 C           3.8728   -1.9446   -0.2887 C.3     1  UNL1        0.0116
      8 C           4.6014   -0.9541   -1.1236 C.2     1  UNL1        0.1632
      9 O           4.1071   -0.6579   -2.2488 O.2     1  UNL1       -0.2921
     10 C           5.8475   -0.3017   -0.7325 C.ar    1  UNL1        0.0176
     11 C           6.3995    0.5923   -1.6065 C.ar    1  UNL1       -0.0486
     12 C           7.5846    1.2109   -1.2307 C.ar    1  UNL1       -0.0258
     13 C           8.2057    0.9495   -0.0200 C.ar    1  UNL1        0.1234
     14 F           9.3606    1.5790    0.3019 F       1  UNL1       -0.2055
     15 C           7.6250    0.0301    0.8627 C.ar    1  UNL1       -0.0258
     16 C           6.4586   -0.5568    0.4551 C.ar    1  UNL1       -0.0486
     17 C          -0.0623    0.7669   -0.6528 C.3     1  UNL1        0.0075
     18 C          -1.4112    1.2096   -0.2154 C.3     1  UNL1        0.0173
     19 C          -2.5271    0.7226   -1.0302 C.ar    1  UNL1       -0.0185
     20 C          -2.8757    0.3797   -2.3303 C.ar    1  UNL1       -0.0563
     21 C          -4.1331   -0.0603   -2.6966 C.ar    1  UNL1       -0.0596
     22 C          -5.1628   -0.1910   -1.7546 C.ar    1  UNL1       -0.0388
     23 C          -4.8726    0.1362   -0.4464 C.ar    1  UNL1        0.0511
     24 C          -3.5791    0.5708   -0.1636 C.ar    1  UNL1        0.0549
     25 N          -3.2458    0.8997    1.1608 N.pl3   1  UNL1       -0.3230
     26 C          -4.1883    1.2363    2.1771 C.3     1  UNL1        0.0283
     27 C          -5.5907    0.8791    1.8540 C.3     1  UNL1        0.0277
     28 N          -5.7810    0.0766    0.6608 N.pl3   1  UNL1       -0.3300
     29 C          -6.8926   -0.8418    0.4789 C.3     1  UNL1        0.0008
     30 H          -1.3320    1.4135    1.9711 H       1  UNL1        0.0506
     31 H          -1.7162   -1.0289    2.3526 H       1  UNL1        0.0296
     32 H          -2.2381   -1.2101    0.6749 H       1  UNL1        0.0296
     33 H          -0.1685   -1.9772    0.2455 H       1  UNL1        0.0427
     34 H           0.4349   -1.4030    1.8102 H       1  UNL1        0.0427
     35 H           1.3473   -1.4253   -1.1762 H       1  UNL1        0.0427
     36 H           2.2619    0.1108   -1.0555 H       1  UNL1        0.0427
     37 H           3.0662   -0.5849    1.2326 H       1  UNL1        0.0282
     38 H           2.2134   -2.1365    1.0213 H       1  UNL1        0.0282
     39 H           4.5563   -2.4443    0.4112 H       1  UNL1        0.0345
     40 H           3.4161   -2.7338   -0.9398 H       1  UNL1        0.0345
     41 H           5.9405    0.8259   -2.5713 H       1  UNL1        0.0625
     42 H           8.0429    1.9324   -1.9207 H       1  UNL1        0.0646
     43 H           8.1685   -0.1181    1.7845 H       1  UNL1        0.0646
     44 H           6.0485   -1.2598    1.1705 H       1  UNL1        0.0625
     45 H           0.5570    1.6682   -0.8527 H       1  UNL1        0.0433
     46 H          -0.1688    0.2452   -1.6268 H       1  UNL1        0.0433
     47 H          -1.4963    2.3371   -0.2165 H       1  UNL1        0.0380
     48 H          -2.0688    0.4824   -3.0613 H       1  UNL1        0.0621
     49 H          -4.3669   -0.3189   -3.7203 H       1  UNL1        0.0618
     50 H          -6.1668   -0.5247   -1.9503 H       1  UNL1        0.0637
     51 H          -3.9132    0.8230    3.1777 H       1  UNL1        0.0479
     52 H          -4.1334    2.3619    2.2863 H       1  UNL1        0.0479
     53 H          -6.0616    0.3760    2.7402 H       1  UNL1        0.0479
     54 H          -6.1957    1.8195    1.6763 H       1  UNL1        0.0479
     55 H          -7.5231   -0.5872   -0.3883 H       1  UNL1        0.0428
     56 H          -7.5021   -0.8388    1.4236 H       1  UNL1        0.0428
     57 H          -6.4862   -1.8655    0.3762 H       1  UNL1        0.0428
@<TRIPOS>BOND
     1     1     2    1
     2     2     3    1
     3     3     4    1
     4     4     5    1
     5     5     6    1
     6     6     7    1
     7     7     8    1
     8     8     9    2
     9     8    10    1
    10    10    11   ar
    11    11    12   ar
    12    12    13   ar
    13    13    14    1
    14    13    15   ar
    15    15    16   ar
    16     4    17    1
    17    17    18    1
    18    18    19    1
    19    19    20   ar
    20    20    21   ar
    21    21    22   ar
    22    22    23   ar
    23    23    24   ar
    24    24    25    1
    25    25    26    1
    26    26    27    1
    27    27    28    1
    28    28    29    1
    29    18     1    1
    30    24    19   ar
    31    25     1    1
    32    16    10   ar
    33    28    23    1
    34     1    30    1
    35     2    31    1
    36     2    32    1
    37     3    33    1
    38     3    34    1
    39     5    35    1
    40     5    36    1
    41     6    37    1
    42     6    38    1
    43     7    39    1
    44     7    40    1
    45    11    41    1
    46    12    42    1
    47    15    43    1
    48    16    44    1
    49    17    45    1
    50    17    46    1
    51    18    47    1
    52    20    48    1
    53    21    49    1
    54    22    50    1
    55    26    51    1
    56    26    52    1
    57    27    53    1
    58    27    54    1
    59    29    55    1
    60    29    56    1
    61    29    57    1
