
     RDKit          3D

 74 77  0  0  0  0  0  0  0  0999 V2000
   -5.7171   -5.1278   -2.4490 C   0  0  0  0  0  0  0  0  0  0  0  0
   -5.4288   -5.0742   -0.9538 C   0  0  0  0  0  0  0  0  0  0  0  0
   -4.9079   -3.6866   -0.6392 C   0  0  0  0  0  0  0  0  0  0  0  0
   -3.7152   -3.4618   -1.3965 N   0  0  0  0  0  0  0  0  0  0  0  0
   -3.0228   -2.2073   -1.3027 C   0  0  0  0  0  0  0  0  0  0  0  0
   -3.4602   -1.2044   -0.5222 N   0  0  0  0  0  0  0  0  0  0  0  0
   -2.8124   -0.0266   -0.4370 C   0  0  0  0  0  0  0  0  0  0  0  0
   -3.2850    1.0454    0.4007 N   0  0  0  0  0  0  0  0  0  0  0  0
   -2.8374    1.0566    1.7752 C   0  0  0  0  0  0  0  0  0  0  0  0
   -3.3830    2.2485    2.4751 C   0  0  0  0  0  0  0  0  0  0  0  0
   -4.5556    2.3841    3.1669 C   0  0  0  0  0  0  0  0  0  0  0  0
   -4.6793    3.6359    3.6517 N   0  0  0  0  0  0  0  0  0  0  0  0
   -5.7741    4.1767    4.4361 C   0  0  0  0  0  0  0  0  0  0  0  0
   -3.5736    4.2839    3.2583 C   0  0  0  0  0  0  0  0  0  0  0  0
   -2.7731    3.4654    2.5448 N   0  0  0  0  0  0  0  0  0  0  0  0
   -1.6808    0.1472   -1.1668 N   0  0  0  0  0  0  0  0  0  0  0  0
   -1.2130   -0.8274   -1.9559 C   0  0  0  0  0  0  0  0  0  0  0  0
   -0.0447   -0.6973   -2.7463 N   0  0  0  0  0  0  0  0  0  0  0  0
    0.5878   -1.7568   -3.4918 C   0  0  0  0  0  0  0  0  0  0  0  0
    2.0220   -1.2796   -3.5873 C   0  0  0  0  0  0  0  0  0  0  0  0
    1.8277    0.2017   -3.8720 C   0  0  0  0  0  0  0  0  0  0  0  0
    0.6822    0.5387   -2.9314 C   0  0  2  0  0  0  0  0  0  0  0  0
    1.2025    1.1261   -1.6389 C   0  0  0  0  0  0  0  0  0  0  0  0
    1.8906    2.3374   -1.9557 N   0  0  0  0  0  0  0  0  0  0  0  0
    2.5609    3.1754   -0.6409 S   0  0  0  0  0  6  0  0  0  0  0  0
    1.4520    3.5919    0.2832 O   0  0  0  0  0  0  0  0  0  0  0  0
    3.1991    4.4380   -1.1710 O   0  0  0  0  0  0  0  0  0  0  0  0
    3.7681    2.3138    0.2432 C   0  0  0  0  0  0  0  0  0  0  0  0
    3.4302    1.5352    1.3308 C   0  0  0  0  0  0  0  0  0  0  0  0
    4.4047    0.8433    2.0469 C   0  0  0  0  0  0  0  0  0  0  0  0
    5.7237    0.9158    1.6916 C   0  0  0  0  0  0  0  0  0  0  0  0
    6.7957    0.2028    2.4223 C   0  0  0  0  0  0  0  0  0  0  0  0
    7.0615   -1.1707    1.8837 C   0  0  0  0  0  0  0  0  0  0  0  0
    5.8256   -2.0396    1.9802 C   0  0  0  0  0  0  0  0  0  0  0  0
    6.0571    1.7058    0.5893 C   0  0  0  0  0  0  0  0  0  0  0  0
    5.0975    2.3910   -0.1201 C   0  0  0  0  0  0  0  0  0  0  0  0
   -1.9011   -1.9753   -1.9977 N   0  0  0  0  0  0  0  0  0  0  0  0
   -5.5135   -6.1025   -2.8930 H   0  0  0  0  0  0  0  0  0  0  0  0
   -5.1077   -4.3532   -2.9935 H   0  0  0  0  0  0  0  0  0  0  0  0
   -6.7707   -4.8325   -2.6231 H   0  0  0  0  0  0  0  0  0  0  0  0
   -4.6941   -5.8597   -0.7189 H   0  0  0  0  0  0  0  0  0  0  0  0
   -6.3507   -5.3152   -0.3696 H   0  0  0  0  0  0  0  0  0  0  0  0
   -5.7255   -2.9797   -0.8627 H   0  0  0  0  0  0  0  0  0  0  0  0
   -4.6092   -3.6598    0.4439 H   0  0  0  0  0  0  0  0  0  0  0  0
   -3.3220   -4.1806   -2.0227 H   0  0  0  0  0  0  0  0  0  0  0  0
   -3.9178    1.7761    0.0314 H   0  0  0  0  0  0  0  0  0  0  0  0
   -1.7244    1.1002    1.8365 H   0  0  0  0  0  0  0  0  0  0  0  0
   -3.2267    0.1133    2.2334 H   0  0  0  0  0  0  0  0  0  0  0  0
   -5.2984    1.6050    3.3175 H   0  0  0  0  0  0  0  0  0  0  0  0
   -5.3639    4.6237    5.3686 H   0  0  0  0  0  0  0  0  0  0  0  0
   -6.5528    3.4331    4.6201 H   0  0  0  0  0  0  0  0  0  0  0  0
   -6.2599    5.0299    3.8847 H   0  0  0  0  0  0  0  0  0  0  0  0
   -3.2961    5.3204    3.4497 H   0  0  0  0  0  0  0  0  0  0  0  0
    0.1397   -1.9463   -4.4775 H   0  0  0  0  0  0  0  0  0  0  0  0
    0.6176   -2.6729   -2.8533 H   0  0  0  0  0  0  0  0  0  0  0  0
    2.5745   -1.4373   -2.6482 H   0  0  0  0  0  0  0  0  0  0  0  0
    2.5434   -1.7295   -4.4656 H   0  0  0  0  0  0  0  0  0  0  0  0
    2.7172    0.7242   -3.5035 H   0  0  0  0  0  0  0  0  0  0  0  0
    1.5726    0.3936   -4.9232 H   0  0  0  0  0  0  0  0  0  0  0  0
    0.0670    1.3309   -3.4131 H   0  0  0  0  0  0  0  0  0  0  0  0
    1.8236    0.4028   -1.0745 H   0  0  0  0  0  0  0  0  0  0  0  0
    0.3342    1.3575   -0.9935 H   0  0  0  0  0  0  0  0  0  0  0  0
    1.5064    2.8978   -2.7132 H   0  0  0  0  0  0  0  0  0  0  0  0
    2.4024    1.4484    1.6465 H   0  0  0  0  0  0  0  0  0  0  0  0
    4.1301    0.2250    2.9146 H   0  0  0  0  0  0  0  0  0  0  0  0
    7.7425    0.8069    2.3140 H   0  0  0  0  0  0  0  0  0  0  0  0
    6.5379    0.0946    3.5028 H   0  0  0  0  0  0  0  0  0  0  0  0
    7.8472   -1.6414    2.5071 H   0  0  0  0  0  0  0  0  0  0  0  0
    7.3903   -1.1479    0.8129 H   0  0  0  0  0  0  0  0  0  0  0  0
    6.0099   -3.0592    1.6014 H   0  0  0  0  0  0  0  0  0  0  0  0
    5.5506   -2.1282    3.0712 H   0  0  0  0  0  0  0  0  0  0  0  0
    4.9508   -1.6230    1.4475 H   0  0  0  0  0  0  0  0  0  0  0  0
    7.0994    1.7618    0.3102 H   0  0  0  0  0  0  0  0  0  0  0  0
    5.3532    2.9985   -0.9691 H   0  0  0  0  0  0  0  0  0  0  0  0
  1  2  1  0
  2  3  1  0
  3  4  1  0
  4  5  1  0
  5  6  2  0
  6  7  1  0
  7  8  1  0
  8  9  1  0
  9 10  1  0
 10 11  2  0
 11 12  1  0
 12 13  1  0
 12 14  1  0
 14 15  2  0
  7 16  2  0
 16 17  1  0
 17 18  1  0
 18 19  1  0
 19 20  1  0
 20 21  1  0
 21 22  1  0
 22 23  1  0
 23 24  1  0
 24 25  1  0
 25 26  2  0
 25 27  2  0
 25 28  1  0
 28 29  2  0
 29 30  1  0
 30 31  2  0
 31 32  1  0
 32 33  1  0
 33 34  1  0
 31 35  1  0
 35 36  2  0
 17 37  2  0
 37  5  1  0
 15 10  1  0
 22 18  1  0
 36 28  1  0
  1 38  1  0
  1 39  1  0
  1 40  1  0
  2 41  1  0
  2 42  1  0
  3 43  1  0
  3 44  1  0
  4 45  1  0
  8 46  1  0
  9 47  1  0
  9 48  1  0
 11 49  1  0
 13 50  1  0
 13 51  1  0
 13 52  1  0
 14 53  1  0
 19 54  1  0
 19 55  1  0
 20 56  1  0
 20 57  1  0
 21 58  1  0
 21 59  1  0
 22 60  1  6
 23 61  1  0
 23 62  1  0
 24 63  1  0
 29 64  1  0
 30 65  1  0
 32 66  1  0
 32 67  1  0
 33 68  1  0
 33 69  1  0
 34 70  1  0
 34 71  1  0
 34 72  1  0
 35 73  1  0
 36 74  1  0
M  END
$$$$
