@<TRIPOS>MOLECULE
*****
 74 77 0 0 0
SMALL
GASTEIGER

@<TRIPOS>ATOM
      1 C          -5.7171   -5.1278   -2.4490 C.3     1  UNL1       -0.0639
      2 C          -5.4288   -5.0742   -0.9538 C.3     1  UNL1       -0.0402
      3 C          -4.9079   -3.6866   -0.6392 C.3     1  UNL1        0.0116
      4 N          -3.7152   -3.4618   -1.3965 N.pl3   1  UNL1       -0.3133
      5 C          -3.0228   -2.2073   -1.3027 C.ar    1  UNL1        0.2210
      6 N          -3.4602   -1.2044   -0.5222 N.ar    1  UNL1       -0.1810
      7 C          -2.8124   -0.0266   -0.4370 C.ar    1  UNL1        0.2214
      8 N          -3.2850    1.0454    0.4007 N.pl3   1  UNL1       -0.3077
      9 C          -2.8374    1.0566    1.7752 C.3     1  UNL1        0.0556
     10 C          -3.3830    2.2485    2.4751 C.ar    1  UNL1        0.0760
     11 C          -4.5556    2.3841    3.1669 C.ar    1  UNL1        0.0284
     12 N          -4.6793    3.6359    3.6517 N.ar    1  UNL1       -0.3396
     13 C          -5.7741    4.1767    4.4361 C.3     1  UNL1        0.0127
     14 C          -3.5736    4.2839    3.2583 C.ar    1  UNL1        0.0960
     15 N          -2.7731    3.4654    2.5448 N.ar    1  UNL1       -0.2391
     16 N          -1.6808    0.1472   -1.1668 N.ar    1  UNL1       -0.1809
     17 C          -1.2130   -0.8274   -1.9559 C.ar    1  UNL1        0.2239
     18 N          -0.0447   -0.6973   -2.7463 N.pl3   1  UNL1       -0.2952
     19 C           0.5878   -1.7568   -3.4918 C.3     1  UNL1        0.0153
     20 C           2.0220   -1.2796   -3.5873 C.3     1  UNL1       -0.0354
     21 C           1.8277    0.2017   -3.8720 C.3     1  UNL1       -0.0316
     22 C           0.6822    0.5387   -2.9314 C.3     1  UNL1        0.0403
     23 C           1.2025    1.1261   -1.6389 C.3     1  UNL1        0.0361
     24 N           1.8906    2.3374   -1.9557 N.3     1  UNL1       -0.1882
     25 S           2.5609    3.1754   -0.6409 S.O2    1  UNL1        0.0585
     26 O           1.4520    3.5919    0.2832 O.2     1  UNL1       -0.1530
     27 O           3.1991    4.4380   -1.1710 O.2     1  UNL1       -0.1530
     28 C           3.7681    2.3138    0.2432 C.ar    1  UNL1        0.1053
     29 C           3.4302    1.5352    1.3308 C.ar    1  UNL1       -0.0351
     30 C           4.4047    0.8433    2.0469 C.ar    1  UNL1       -0.0567
     31 C           5.7237    0.9158    1.6916 C.ar    1  UNL1       -0.0473
     32 C           6.7957    0.2028    2.4223 C.3     1  UNL1       -0.0279
     33 C           7.0615   -1.1707    1.8837 C.3     1  UNL1       -0.0519
     34 C           5.8256   -2.0396    1.9802 C.3     1  UNL1       -0.0650
     35 C           6.0571    1.7058    0.5893 C.ar    1  UNL1       -0.0567
     36 C           5.0975    2.3910   -0.1201 C.ar    1  UNL1       -0.0351
     37 N          -1.9011   -1.9753   -1.9977 N.ar    1  UNL1       -0.1809
     38 H          -5.5135   -6.1025   -2.8930 H       1  UNL1        0.0230
     39 H          -5.1077   -4.3532   -2.9935 H       1  UNL1        0.0230
     40 H          -6.7707   -4.8325   -2.6231 H       1  UNL1        0.0230
     41 H          -4.6941   -5.8597   -0.7189 H       1  UNL1        0.0278
     42 H          -6.3507   -5.3152   -0.3696 H       1  UNL1        0.0278
     43 H          -5.7255   -2.9797   -0.8627 H       1  UNL1        0.0462
     44 H          -4.6092   -3.6598    0.4439 H       1  UNL1        0.0462
     45 H          -3.3220   -4.1806   -2.0227 H       1  UNL1        0.1489
     46 H          -3.9178    1.7761    0.0314 H       1  UNL1        0.1493
     47 H          -1.7244    1.1002    1.8365 H       1  UNL1        0.0527
     48 H          -3.2267    0.1133    2.2334 H       1  UNL1        0.0527
     49 H          -5.2984    1.6050    3.3175 H       1  UNL1        0.0828
     50 H          -5.3639    4.6237    5.3686 H       1  UNL1        0.0456
     51 H          -6.5528    3.4331    4.6201 H       1  UNL1        0.0456
     52 H          -6.2599    5.0299    3.8847 H       1  UNL1        0.0456
     53 H          -3.2961    5.3204    3.4497 H       1  UNL1        0.1029
     54 H           0.1397   -1.9463   -4.4775 H       1  UNL1        0.0465
     55 H           0.6176   -2.6729   -2.8533 H       1  UNL1        0.0465
     56 H           2.5745   -1.4373   -2.6482 H       1  UNL1        0.0281
     57 H           2.5434   -1.7295   -4.4656 H       1  UNL1        0.0281
     58 H           2.7172    0.7242   -3.5035 H       1  UNL1        0.0284
     59 H           1.5726    0.3936   -4.9232 H       1  UNL1        0.0284
     60 H           0.0670    1.3309   -3.4131 H       1  UNL1        0.0514
     61 H           1.8236    0.4028   -1.0745 H       1  UNL1        0.0460
     62 H           0.3342    1.3575   -0.9935 H       1  UNL1        0.0460
     63 H           1.5064    2.8978   -2.7132 H       1  UNL1        0.1481
     64 H           2.4024    1.4484    1.6465 H       1  UNL1        0.0637
     65 H           4.1301    0.2250    2.9146 H       1  UNL1        0.0621
     66 H           7.7425    0.8069    2.3140 H       1  UNL1        0.0313
     67 H           6.5379    0.0946    3.5028 H       1  UNL1        0.0313
     68 H           7.8472   -1.6414    2.5071 H       1  UNL1        0.0266
     69 H           7.3903   -1.1479    0.8129 H       1  UNL1        0.0266
     70 H           6.0099   -3.0592    1.6014 H       1  UNL1        0.0230
     71 H           5.5506   -2.1282    3.0712 H       1  UNL1        0.0230
     72 H           4.9508   -1.6230    1.4475 H       1  UNL1        0.0230
     73 H           7.0994    1.7618    0.3102 H       1  UNL1        0.0621
     74 H           5.3532    2.9985   -0.9691 H       1  UNL1        0.0637
@<TRIPOS>BOND
     1     1     2    1
     2     2     3    1
     3     3     4    1
     4     4     5    1
     5     5     6   ar
     6     6     7   ar
     7     7     8    1
     8     8     9    1
     9     9    10    1
    10    10    11   ar
    11    11    12   ar
    12    12    13    1
    13    12    14   ar
    14    14    15   ar
    15     7    16   ar
    16    16    17   ar
    17    17    18    1
    18    18    19    1
    19    19    20    1
    20    20    21    1
    21    21    22    1
    22    22    23    1
    23    23    24    1
    24    24    25    1
    25    25    26    2
    26    25    27    2
    27    25    28    1
    28    28    29   ar
    29    29    30   ar
    30    30    31   ar
    31    31    32    1
    32    32    33    1
    33    33    34    1
    34    31    35   ar
    35    35    36   ar
    36    17    37   ar
    37    37     5   ar
    38    15    10   ar
    39    22    18    1
    40    36    28   ar
    41     1    38    1
    42     1    39    1
    43     1    40    1
    44     2    41    1
    45     2    42    1
    46     3    43    1
    47     3    44    1
    48     4    45    1
    49     8    46    1
    50     9    47    1
    51     9    48    1
    52    11    49    1
    53    13    50    1
    54    13    51    1
    55    13    52    1
    56    14    53    1
    57    19    54    1
    58    19    55    1
    59    20    56    1
    60    20    57    1
    61    21    58    1
    62    21    59    1
    63    22    60    1
    64    23    61    1
    65    23    62    1
    66    24    63    1
    67    29    64    1
    68    30    65    1
    69    32    66    1
    70    32    67    1
    71    33    68    1
    72    33    69    1
    73    34    70    1
    74    34    71    1
    75    34    72    1
    76    35    73    1
    77    36    74    1
