
     RDKit          3D

 51 53  0  0  0  0  0  0  0  0999 V2000
    5.9269   -0.8246    2.1466 C   0  0  0  0  0  0  0  0  0  0  0  0
    6.2911   -1.3402    0.8782 O   0  0  0  0  0  0  0  0  0  0  0  0
    5.4496   -1.0421   -0.1853 C   0  0  0  0  0  0  0  0  0  0  0  0
    4.2823   -0.2962   -0.1740 C   0  0  0  0  0  0  0  0  0  0  0  0
    3.5934   -0.1224   -1.3590 C   0  0  0  0  0  0  0  0  0  0  0  0
    4.0086   -0.6559   -2.5625 C   0  0  0  0  0  0  0  0  0  0  0  0
    5.1895   -1.4053   -2.5507 C   0  0  0  0  0  0  0  0  0  0  0  0
    5.8939   -1.5897   -1.3691 C   0  0  0  0  0  0  0  0  0  0  0  0
    2.3746    0.6770   -1.2541 C   0  0  0  0  0  0  0  0  0  0  0  0
    1.5725    0.7075   -0.1328 C   0  0  0  0  0  0  0  0  0  0  0  0
    0.4060    1.4830   -0.0542 C   0  0  0  0  0  0  0  0  0  0  0  0
   -0.2397    1.3659    1.2574 C   0  0  0  0  0  0  0  0  0  0  0  0
   -1.1519    0.2294    1.4970 C   0  0  0  0  0  0  0  0  0  0  0  0
   -2.3461    0.1203    0.6320 C   0  0  2  0  0  0  0  0  0  0  0  0
   -2.0020   -0.0515   -0.8227 C   0  0  0  0  0  0  0  0  0  0  0  0
   -3.1728    1.3865    0.8514 C   0  0  0  0  0  0  0  0  0  0  0  0
   -4.5495    1.2599    0.3005 C   0  0  0  0  0  0  0  0  0  0  0  0
   -5.1538    2.0774   -0.4786 O   0  0  0  0  0  0  0  0  0  0  0  0
   -5.2459    0.0817    0.7079 N   0  0  0  0  0  0  0  0  0  0  0  0
   -6.6964    0.0243    0.7562 C   0  0  0  0  0  0  0  0  0  0  0  0
   -4.4081   -1.0144    1.0556 C   0  0  0  0  0  0  0  0  0  0  0  0
   -5.0377   -2.2046    1.4664 N   0  0  0  0  0  0  0  0  0  0  0  0
   -3.1356   -1.0555    1.0417 N   0  0  0  0  0  0  0  0  0  0  0  0
    0.1104    2.2301   -1.2024 C   0  0  0  0  0  0  0  0  0  0  0  0
    0.9143    2.1958   -2.3182 C   0  0  0  0  0  0  0  0  0  0  0  0
    2.0549    1.4248   -2.3684 C   0  0  0  0  0  0  0  0  0  0  0  0
    6.2515    0.2228    2.2990 H   0  0  0  0  0  0  0  0  0  0  0  0
    6.4292   -1.5090    2.8912 H   0  0  0  0  0  0  0  0  0  0  0  0
    4.8332   -0.9661    2.3265 H   0  0  0  0  0  0  0  0  0  0  0  0
    4.0148    0.0876    0.7824 H   0  0  0  0  0  0  0  0  0  0  0  0
    3.4017   -0.4633   -3.4282 H   0  0  0  0  0  0  0  0  0  0  0  0
    5.5159   -1.8247   -3.4992 H   0  0  0  0  0  0  0  0  0  0  0  0
    6.7947   -2.1917   -1.4946 H   0  0  0  0  0  0  0  0  0  0  0  0
    1.9546    0.0714    0.6533 H   0  0  0  0  0  0  0  0  0  0  0  0
   -0.7746    2.3698    1.4012 H   0  0  0  0  0  0  0  0  0  0  0  0
    0.5604    1.4423    2.0622 H   0  0  0  0  0  0  0  0  0  0  0  0
   -1.5000    0.2879    2.5770 H   0  0  0  0  0  0  0  0  0  0  0  0
   -0.5224   -0.7069    1.4896 H   0  0  0  0  0  0  0  0  0  0  0  0
   -2.3246    0.8234   -1.4142 H   0  0  0  0  0  0  0  0  0  0  0  0
   -2.6325   -0.9052   -1.2533 H   0  0  0  0  0  0  0  0  0  0  0  0
   -0.9608   -0.3814   -1.0045 H   0  0  0  0  0  0  0  0  0  0  0  0
   -3.2768    1.5870    1.9368 H   0  0  0  0  0  0  0  0  0  0  0  0
   -2.7005    2.2188    0.3104 H   0  0  0  0  0  0  0  0  0  0  0  0
   -7.0868    0.1646    1.7884 H   0  0  0  0  0  0  0  0  0  0  0  0
   -7.0254   -0.9826    0.4056 H   0  0  0  0  0  0  0  0  0  0  0  0
   -7.1289    0.7867    0.0745 H   0  0  0  0  0  0  0  0  0  0  0  0
   -5.7304   -2.6467    0.8076 H   0  0  0  0  0  0  0  0  0  0  0  0
   -5.3517   -3.0486    1.9919 H   0  0  0  0  0  0  0  0  0  0  0  0
   -0.8061    2.7921   -1.0388 H   0  0  0  0  0  0  0  0  0  0  0  0
    0.5454    2.8316   -3.1208 H   0  0  0  0  0  0  0  0  0  0  0  0
    2.5914    1.4918   -3.3029 H   0  0  0  0  0  0  0  0  0  0  0  0
  1  2  1  0
  2  3  1  0
  3  4  2  0
  4  5  1  0
  5  6  2  0
  6  7  1  0
  7  8  2  0
  5  9  1  0
  9 10  2  0
 10 11  1  0
 11 12  1  0
 12 13  1  0
 14 13  1  1
 14 15  1  0
 14 16  1  0
 16 17  1  0
 17 18  2  0
 17 19  1  0
 19 20  1  0
 19 21  1  0
 21 22  1  0
 21 23  2  0
 11 24  2  0
 24 25  1  0
 25 26  2  0
  8  3  1  0
 26  9  1  0
 23 14  1  0
  1 27  1  0
  1 28  1  0
  1 29  1  0
  4 30  1  0
  6 31  1  0
  7 32  1  0
  8 33  1  0
 10 34  1  0
 12 35  1  0
 12 36  1  0
 13 37  1  0
 13 38  1  0
 15 39  1  0
 15 40  1  0
 15 41  1  0
 16 42  1  0
 16 43  1  0
 20 44  1  0
 20 45  1  0
 20 46  1  0
 22 47  1  0
 22 48  1  0
 24 49  1  0
 25 50  1  0
 26 51  1  0
M  END
$$$$
