@<TRIPOS>MOLECULE
*****
 50 51 0 0 0
SMALL
GASTEIGER

@<TRIPOS>ATOM
      1 C          -2.6198    0.2940    0.5231 C.3     1  UNL1        0.0405
      2 N          -2.8793    1.6947    0.4377 N.3     1  UNL1       -0.3247
      3 C          -3.7737   -0.5281   -0.0206 C.3     1  UNL1       -0.0258
      4 C          -4.0880   -0.2550   -1.4557 C.3     1  UNL1       -0.0048
      5 S          -5.4515   -1.2289   -2.1138 S.3     1  UNL1       -0.1610
      6 C          -7.0433   -0.8343   -1.3790 C.3     1  UNL1       -0.0092
      7 C          -7.0594   -1.2484    0.0715 C.3     1  UNL1       -0.0562
      8 C          -1.3738   -0.0963   -0.1888 C.3     1  UNL1        0.1458
      9 O          -1.1600   -1.4771   -0.0907 O.3     1  UNL1       -0.3810
     10 C          -0.1517    0.6469    0.2783 C.2     1  UNL1        0.2436
     11 O          -0.3834    1.8984    0.1342 O.2     1  UNL1       -0.2729
     12 N           1.0968    0.1305    0.8063 N.am    1  UNL1       -0.3066
     13 C           2.1052    1.0950    1.1762 C.3     1  UNL1        0.0462
     14 C           2.4154    1.1954    2.6301 C.3     1  UNL1       -0.0424
     15 C           3.2890    1.0970    0.2783 C.ar    1  UNL1       -0.0198
     16 C           4.1363    0.0343    0.1048 C.ar    1  UNL1       -0.0130
     17 C           3.9246   -1.1202    0.8251 C.ar    1  UNL1       -0.0537
     18 C           4.7248   -2.2410    0.7271 C.ar    1  UNL1       -0.0612
     19 C           5.8103   -2.2466   -0.1298 C.ar    1  UNL1       -0.0612
     20 C           6.0467   -1.1070   -0.8612 C.ar    1  UNL1       -0.0540
     21 C           5.2281   -0.0124   -0.7360 C.ar    1  UNL1       -0.0176
     22 C           5.5208    1.1019   -1.4863 C.ar    1  UNL1       -0.0540
     23 C           4.7314    2.2270   -1.3862 C.ar    1  UNL1       -0.0609
     24 C           3.6615    2.1882   -0.5233 C.ar    1  UNL1       -0.0562
     25 H          -2.5151   -0.0360    1.5967 H       1  UNL1        0.0489
     26 H          -2.6157    2.1344   -0.4482 H       1  UNL1        0.1186
     27 H          -2.4100    2.1746    1.2330 H       1  UNL1        0.1186
     28 H          -3.6040   -1.5939    0.1260 H       1  UNL1        0.0289
     29 H          -4.6805   -0.2179    0.5747 H       1  UNL1        0.0289
     30 H          -4.3216    0.8196   -1.6480 H       1  UNL1        0.0377
     31 H          -3.2016   -0.4920   -2.1148 H       1  UNL1        0.0377
     32 H          -7.8520   -1.3342   -1.9596 H       1  UNL1        0.0374
     33 H          -7.2581    0.2586   -1.4498 H       1  UNL1        0.0374
     34 H          -8.0541   -1.7553    0.2621 H       1  UNL1        0.0238
     35 H          -6.2700   -1.9765    0.3258 H       1  UNL1        0.0238
     36 H          -7.0511   -0.3805    0.7555 H       1  UNL1        0.0238
     37 H          -1.4809    0.1403   -1.2631 H       1  UNL1        0.0706
     38 H          -0.8498   -1.8494   -0.9736 H       1  UNL1        0.2105
     39 H           0.9204   -0.8969    0.7772 H       1  UNL1        0.1494
     40 H           1.6439    2.1175    0.9425 H       1  UNL1        0.0546
     41 H           2.0562    2.1160    3.1353 H       1  UNL1        0.0251
     42 H           1.9668    0.3687    3.2544 H       1  UNL1        0.0251
     43 H           3.5328    1.2299    2.7833 H       1  UNL1        0.0251
     44 H           3.1164   -1.1770    1.5071 H       1  UNL1        0.0624
     45 H           4.5639   -3.1527    1.2911 H       1  UNL1        0.0618
     46 H           6.4431   -3.1061   -0.2204 H       1  UNL1        0.0618
     47 H           6.8861   -1.0821   -1.5378 H       1  UNL1        0.0624
     48 H           6.3491    1.1308   -2.1543 H       1  UNL1        0.0624
     49 H           4.9303    3.1166   -1.9565 H       1  UNL1        0.0618
     50 H           3.0483    3.0946   -0.4597 H       1  UNL1        0.0621
@<TRIPOS>BOND
     1     1     2    1
     2     1     3    1
     3     3     4    1
     4     4     5    1
     5     5     6    1
     6     6     7    1
     7     1     8    1
     8     8     9    1
     9     8    10    1
    10    10    11    2
    11    10    12   am
    12    12    13    1
    13    13    14    1
    14    13    15    1
    15    15    16   ar
    16    16    17   ar
    17    17    18   ar
    18    18    19   ar
    19    19    20   ar
    20    20    21   ar
    21    21    22   ar
    22    22    23   ar
    23    23    24   ar
    24    24    15   ar
    25    21    16   ar
    26     1    25    1
    27     2    26    1
    28     2    27    1
    29     3    28    1
    30     3    29    1
    31     4    30    1
    32     4    31    1
    33     6    32    1
    34     6    33    1
    35     7    34    1
    36     7    35    1
    37     7    36    1
    38     8    37    1
    39     9    38    1
    40    12    39    1
    41    13    40    1
    42    14    41    1
    43    14    42    1
    44    14    43    1
    45    17    44    1
    46    18    45    1
    47    19    46    1
    48    20    47    1
    49    22    48    1
    50    23    49    1
    51    24    50    1
