@<TRIPOS>MOLECULE
*****
 59 60 0 0 0
SMALL
GASTEIGER

@<TRIPOS>ATOM
      1 C           8.1496   -0.9698   -1.9246 C.3     1  UNL1       -0.0639
      2 C           7.1013   -0.9276   -0.8054 C.3     1  UNL1       -0.0402
      3 C           5.8998   -0.2129   -1.3923 C.3     1  UNL1        0.0114
      4 N           4.8181   -0.0878   -0.4661 N.am    1  UNL1       -0.3131
      5 C           4.1832   -1.2183    0.1199 C.2     1  UNL1        0.2450
      6 O           4.5973   -2.3415   -0.1971 O.2     1  UNL1       -0.2729
      7 C           3.0763   -1.0625    1.0669 C.3     1  UNL1        0.1698
      8 O           3.2521    0.0269    1.9559 O.3     1  UNL1       -0.3487
      9 C           2.2213    0.1403    1.0252 C.3     1  UNL1        0.1698
     10 C           0.8572    0.0879    1.6094 C.2     1  UNL1        0.2456
     11 O           0.5791   -0.6149    2.5978 O.2     1  UNL1       -0.2728
     12 N          -0.1863    0.8679    1.0264 N.am    1  UNL1       -0.3015
     13 C          -1.5390    0.8813    1.5242 C.3     1  UNL1        0.1022
     14 C          -2.5773    0.4691    0.5989 C.2     1  UNL1        0.2368
     15 O          -3.7892    0.5002    1.0158 O.2     1  UNL1       -0.2735
     16 N          -2.4154    0.0174   -0.7639 N.am    1  UNL1       -0.2865
     17 C          -1.1860   -0.1312   -1.4829 C.3     1  UNL1        0.0157
     18 C          -1.5416   -1.0137   -2.6643 C.3     1  UNL1       -0.0349
     19 C          -2.9870   -0.5746   -2.9676 C.3     1  UNL1       -0.0225
     20 C          -3.5283   -0.3483   -1.5999 C.3     1  UNL1        0.1230
     21 C          -4.2499   -1.5413   -1.0678 C.2     1  UNL1        0.3276
     22 O          -3.8685   -2.0864   -0.0269 O.2     1  UNL1       -0.2487
     23 O          -5.3504   -2.0308   -1.7517 O.3     1  UNL1       -0.4666
     24 C          -6.0889   -3.1555   -1.3151 C.3     1  UNL1        0.0817
     25 C          -1.7630    2.2750    2.0966 C.3     1  UNL1       -0.0171
     26 C          -1.5995    3.3607    1.0875 C.3     1  UNL1       -0.0603
     27 C          -3.0543    2.4186    2.8410 C.3     1  UNL1       -0.0512
     28 C          -3.1260    1.4547    4.0165 C.3     1  UNL1       -0.0650
     29 H           7.5872   -1.1401   -2.8622 H       1  UNL1        0.0230
     30 H           8.8514   -1.7952   -1.7810 H       1  UNL1        0.0230
     31 H           8.6782    0.0136   -1.9210 H       1  UNL1        0.0230
     32 H           7.5671   -0.3451    0.0118 H       1  UNL1        0.0278
     33 H           6.8813   -1.9752   -0.5324 H       1  UNL1        0.0278
     34 H           5.5552   -0.7507   -2.2831 H       1  UNL1        0.0462
     35 H           6.2340    0.7859   -1.7221 H       1  UNL1        0.0462
     36 H           4.4603    0.8488   -0.1911 H       1  UNL1        0.1488
     37 H           2.6457   -1.9863    1.4699 H       1  UNL1        0.0725
     38 H           2.3574    0.7958    0.1511 H       1  UNL1        0.0725
     39 H           0.0695    1.4593    0.2100 H       1  UNL1        0.1495
     40 H          -1.5206    0.2179    2.4506 H       1  UNL1        0.0597
     41 H          -0.3743   -0.5867   -0.8795 H       1  UNL1        0.0465
     42 H          -0.8895    0.8873   -1.8653 H       1  UNL1        0.0465
     43 H          -1.5099   -2.0826   -2.4018 H       1  UNL1        0.0281
     44 H          -0.9200   -0.7370   -3.5296 H       1  UNL1        0.0281
     45 H          -3.4501   -1.4077   -3.5208 H       1  UNL1        0.0289
     46 H          -2.9799    0.3438   -3.5930 H       1  UNL1        0.0289
     47 H          -4.2388    0.5145   -1.6513 H       1  UNL1        0.0616
     48 H          -6.5578   -2.9763   -0.3171 H       1  UNL1        0.0661
     49 H          -6.9315   -3.2913   -2.0355 H       1  UNL1        0.0661
     50 H          -5.5054   -4.0747   -1.2598 H       1  UNL1        0.0661
     51 H          -0.9524    2.4484    2.8681 H       1  UNL1        0.0321
     52 H          -2.3405    4.1499    1.2844 H       1  UNL1        0.0233
     53 H          -0.5776    3.8320    1.1269 H       1  UNL1        0.0233
     54 H          -1.6742    2.9676    0.0360 H       1  UNL1        0.0233
     55 H          -2.9959    3.4391    3.3321 H       1  UNL1        0.0266
     56 H          -3.9579    2.4544    2.2361 H       1  UNL1        0.0266
     57 H          -3.4312    0.4450    3.7382 H       1  UNL1        0.0230
     58 H          -2.1271    1.4847    4.4981 H       1  UNL1        0.0230
     59 H          -3.8374    1.8781    4.7768 H       1  UNL1        0.0230
@<TRIPOS>BOND
     1     1     2    1
     2     2     3    1
     3     3     4    1
     4     4     5   am
     5     5     6    2
     6     5     7    1
     7     7     8    1
     8     8     9    1
     9     9    10    1
    10    10    11    2
    11    10    12   am
    12    12    13    1
    13    13    14    1
    14    14    15    2
    15    14    16   am
    16    16    17    1
    17    17    18    1
    18    18    19    1
    19    19    20    1
    20    20    21    1
    21    21    22    2
    22    21    23    1
    23    23    24    1
    24    13    25    1
    25    25    26    1
    26    25    27    1
    27    27    28    1
    28     9     7    1
    29    20    16    1
    30     1    29    1
    31     1    30    1
    32     1    31    1
    33     2    32    1
    34     2    33    1
    35     3    34    1
    36     3    35    1
    37     4    36    1
    38     7    37    1
    39     9    38    1
    40    12    39    1
    41    13    40    1
    42    17    41    1
    43    17    42    1
    44    18    43    1
    45    18    44    1
    46    19    45    1
    47    19    46    1
    48    20    47    1
    49    24    48    1
    50    24    49    1
    51    24    50    1
    52    25    51    1
    53    26    52    1
    54    26    53    1
    55    26    54    1
    56    27    55    1
    57    27    56    1
    58    28    57    1
    59    28    58    1
    60    28    59    1
