@<TRIPOS>MOLECULE
*****
 67 72 0 0 0
SMALL
GASTEIGER

@<TRIPOS>ATOM
      1 C          -0.3047   -1.3868   -1.2211 C.3     1  UNL1       -0.0586
      2 C          -0.8418   -0.0146   -0.9893 C.3     1  UNL1       -0.0186
      3 C          -0.8444    0.9404   -2.1289 C.3     1  UNL1       -0.0586
      4 C          -0.6211    0.5460    0.3600 C.ar    1  UNL1       -0.0023
      5 C          -1.5761    0.7952    1.3487 C.ar    1  UNL1        0.0622
      6 C          -3.0405    0.6139    1.2347 C.ar    1  UNL1        0.2536
      7 N          -3.9308    0.8859    2.2303 N.ar    1  UNL1       -0.1042
      8 N          -5.1391    0.6213    1.8093 N.ar    1  UNL1       -0.0714
      9 C          -5.0464    0.1773    0.5439 C.ar    1  UNL1        0.4167
     10 O          -6.1192   -0.2003   -0.2304 O.3     1  UNL1       -0.4449
     11 C          -7.4363   -0.1197    0.2557 C.3     1  UNL1        0.1072
     12 C          -8.0760   -1.4899    0.3667 C.3     1  UNL1       -0.0030
     13 C          -9.4995   -1.2648    0.8531 C.3     1  UNL1       -0.0008
     14 N         -10.2377   -0.4610   -0.0923 N.3     1  UNL1       -0.3157
     15 C          -9.6556    0.8551   -0.2527 C.3     1  UNL1       -0.0008
     16 C          -8.2420    0.6956   -0.7227 C.3     1  UNL1       -0.0030
     17 O          -3.7744    0.1899    0.2440 O.2     1  UNL1       -0.3888
     18 C          -0.9705    1.2627    2.4835 C.ar    1  UNL1        0.0425
     19 N           0.3478    1.3153    2.2307 N.ar    1  UNL1       -0.2341
     20 N           1.3158    1.6974    3.0575 N.ar    1  UNL1       -0.1548
     21 C           2.5787    1.6759    2.6571 C.ar    1  UNL1        0.1388
     22 N           2.8344    1.2698    1.4293 N.ar    1  UNL1       -0.2167
     23 C           1.8973    0.8666    0.5301 C.ar    1  UNL1        0.1507
     24 N           2.2764    0.4601   -0.7475 N.pl3   1  UNL1       -0.2954
     25 C           3.5889    0.0353   -1.1300 C.ar    1  UNL1        0.0690
     26 C           4.6574   -0.0923   -0.3007 C.ar    1  UNL1       -0.0228
     27 C           5.9407   -0.4766   -0.7129 C.ar    1  UNL1        0.0737
     28 C           7.0189   -0.5458    0.2654 C.2     1  UNL1        0.2471
     29 O           6.6958   -0.5902    1.4827 O.2     1  UNL1       -0.2701
     30 N           8.3900   -0.5648   -0.0236 N.am    1  UNL1       -0.3084
     31 C           9.4191   -0.6391    1.0101 C.3     1  UNL1        0.0235
     32 C          10.5577    0.3659    0.8900 C.3     1  UNL1       -0.0328
     33 C          10.7951   -1.1246    0.6088 C.3     1  UNL1       -0.0328
     34 C           6.1283   -0.7438   -2.0471 C.ar    1  UNL1        0.1383
     35 F           7.3178   -1.1292   -2.5515 F       1  UNL1       -0.2046
     36 C           5.0659   -0.6309   -2.9470 C.ar    1  UNL1        0.0114
     37 C           3.8319   -0.2480   -2.4747 C.ar    1  UNL1        0.1472
     38 F           2.8471   -0.1596   -3.3995 F       1  UNL1       -0.2035
     39 C           0.5847    0.8871    0.9496 C.ar    1  UNL1        0.1095
     40 H           0.1759   -1.7078   -0.2667 H       1  UNL1        0.0235
     41 H          -1.1199   -2.0865   -1.4697 H       1  UNL1        0.0235
     42 H           0.4260   -1.4931   -2.0419 H       1  UNL1        0.0235
     43 H          -1.9806   -0.2738   -0.9337 H       1  UNL1        0.0344
     44 H          -1.8395    1.2938   -2.4689 H       1  UNL1        0.0235
     45 H          -0.3920    0.4792   -3.0587 H       1  UNL1        0.0235
     46 H          -0.2938    1.9019   -1.8920 H       1  UNL1        0.0235
     47 H          -7.4814    0.3178    1.2794 H       1  UNL1        0.0735
     48 H          -8.1160   -2.0060   -0.5951 H       1  UNL1        0.0313
     49 H          -7.5698   -2.1385    1.1025 H       1  UNL1        0.0313
     50 H          -9.4969   -0.7089    1.8203 H       1  UNL1        0.0425
     51 H          -9.9807   -2.2389    0.9366 H       1  UNL1        0.0425
     52 H         -10.2592   -0.9098   -1.0369 H       1  UNL1        0.1219
     53 H         -10.2145    1.3685   -1.0727 H       1  UNL1        0.0425
     54 H          -9.6815    1.4157    0.6862 H       1  UNL1        0.0425
     55 H          -8.2228    0.1253   -1.6910 H       1  UNL1        0.0313
     56 H          -7.7812    1.6821   -0.8961 H       1  UNL1        0.0313
     57 H          -1.4823    1.5359    3.4070 H       1  UNL1        0.0838
     58 H           3.4140    1.9728    3.2816 H       1  UNL1        0.1066
     59 H           1.6048    0.4874   -1.5200 H       1  UNL1        0.1537
     60 H           4.5647    0.0916    0.7387 H       1  UNL1        0.0645
     61 H           8.7164   -0.5165   -0.9983 H       1  UNL1        0.1493
     62 H           9.1128   -0.7905    2.0428 H       1  UNL1        0.0498
     63 H          11.0053    0.7828    1.8150 H       1  UNL1        0.0284
     64 H          10.5597    1.0275    0.0078 H       1  UNL1        0.0284
     65 H          10.9642   -1.3800   -0.4707 H       1  UNL1        0.0284
     66 H          11.4136   -1.6631    1.3524 H       1  UNL1        0.0284
     67 H           5.2212   -0.8438   -4.0016 H       1  UNL1        0.0676
@<TRIPOS>BOND
     1     1     2    1
     2     2     3    1
     3     2     4    1
     4     4     5   ar
     5     5     6    1
     6     6     7   ar
     7     7     8   ar
     8     8     9   ar
     9     9    10    1
    10    10    11    1
    11    11    12    1
    12    12    13    1
    13    13    14    1
    14    14    15    1
    15    15    16    1
    16     9    17   ar
    17     5    18   ar
    18    18    19   ar
    19    19    20   ar
    20    20    21   ar
    21    21    22   ar
    22    22    23   ar
    23    23    24    1
    24    24    25    1
    25    25    26   ar
    26    26    27   ar
    27    27    28    1
    28    28    29    2
    29    28    30   am
    30    30    31    1
    31    31    32    1
    32    32    33    1
    33    27    34   ar
    34    34    35    1
    35    34    36   ar
    36    36    37   ar
    37    37    38    1
    38    23    39   ar
    39    39     4   ar
    40    17     6   ar
    41    39    19   ar
    42    16    11    1
    43    37    25   ar
    44    33    31    1
    45     1    40    1
    46     1    41    1
    47     1    42    1
    48     2    43    1
    49     3    44    1
    50     3    45    1
    51     3    46    1
    52    11    47    1
    53    12    48    1
    54    12    49    1
    55    13    50    1
    56    13    51    1
    57    14    52    1
    58    15    53    1
    59    15    54    1
    60    16    55    1
    61    16    56    1
    62    18    57    1
    63    21    58    1
    64    24    59    1
    65    26    60    1
    66    30    61    1
    67    31    62    1
    68    32    63    1
    69    32    64    1
    70    33    65    1
    71    33    66    1
    72    36    67    1
