@<TRIPOS>MOLECULE
*****
 31 34 0 0 0
SMALL
GASTEIGER

@<TRIPOS>ATOM
      1 O          -0.8303    3.7923   -0.5147 O.2     1  UNL1       -0.2751
      2 C          -0.8613    2.5648   -0.2401 C.2     1  UNL1        0.2216
      3 C           0.3805    2.0744    0.3952 C.3     1  UNL1        0.0520
      4 C           0.6580    0.6563    0.1515 C.ar    1  UNL1       -0.0056
      5 C          -0.1355   -0.4328   -0.0457 C.ar    1  UNL1        0.0529
      6 N           0.5885   -1.5441   -0.2348 N.ar    1  UNL1       -0.3539
      7 C           1.8766   -1.1660   -0.1582 C.ar    1  UNL1        0.0473
      8 C           3.0685   -1.8661   -0.2713 C.ar    1  UNL1       -0.0367
      9 C           4.3041   -1.2632   -0.1556 C.ar    1  UNL1       -0.0458
     10 C           4.3723    0.0967    0.0833 C.ar    1  UNL1        0.0186
     11 BR          6.0800    0.9020    0.2382 Br      1  UNL1       -0.0503
     12 C           3.1948    0.7878    0.1950 C.ar    1  UNL1       -0.0383
     13 C           1.9607    0.1860    0.0795 C.ar    1  UNL1        0.0049
     14 C          -1.5915   -0.4515   -0.0610 C.ar    1  UNL1        0.0198
     15 C          -2.1403   -1.6779    0.2095 C.ar    1  UNL1       -0.0508
     16 C          -3.5306   -1.8610    0.2276 C.ar    1  UNL1       -0.0610
     17 C          -4.3398   -0.7986   -0.0281 C.ar    1  UNL1       -0.0600
     18 C          -3.8197    0.4582   -0.3056 C.ar    1  UNL1       -0.0398
     19 C          -2.4519    0.6086   -0.3168 C.ar    1  UNL1        0.0426
     20 N          -2.0906    1.9512   -0.6115 N.am    1  UNL1       -0.2847
     21 H           0.2632    2.2415    1.4902 H       1  UNL1        0.0408
     22 H           1.2276    2.6869    0.0199 H       1  UNL1        0.0408
     23 H           0.2954   -2.5244   -0.4117 H       1  UNL1        0.1659
     24 H           3.0550   -2.9346   -0.4587 H       1  UNL1        0.0639
     25 H           5.2159   -1.8565   -0.2523 H       1  UNL1        0.0629
     26 H           3.2669    1.8701    0.3853 H       1  UNL1        0.0635
     27 H          -1.4756   -2.5008    0.4151 H       1  UNL1        0.0625
     28 H          -3.8666   -2.8567    0.4488 H       1  UNL1        0.0618
     29 H          -5.4123   -0.9636   -0.0087 H       1  UNL1        0.0618
     30 H          -4.4725    1.3104   -0.5107 H       1  UNL1        0.0636
     31 H          -2.7895    2.5106   -1.1375 H       1  UNL1        0.1548
@<TRIPOS>BOND
     1     1     2    2
     2     2     3    1
     3     3     4    1
     4     4     5   ar
     5     5     6   ar
     6     6     7   ar
     7     7     8   ar
     8     8     9   ar
     9     9    10   ar
    10    10    11    1
    11    10    12   ar
    12    12    13   ar
    13     5    14    1
    14    14    15   ar
    15    15    16   ar
    16    16    17   ar
    17    17    18   ar
    18    18    19   ar
    19    19    20    1
    20    20     2   am
    21    13     4   ar
    22    19    14   ar
    23    13     7   ar
    24     3    21    1
    25     3    22    1
    26     6    23    1
    27     8    24    1
    28     9    25    1
    29    12    26    1
    30    15    27    1
    31    16    28    1
    32    17    29    1
    33    18    30    1
    34    20    31    1
