
     RDKit          3D

 31 34  0  0  0  0  0  0  0  0999 V2000
   -0.8303    3.7923   -0.5147 O   0  0  0  0  0  0  0  0  0  0  0  0
   -0.8613    2.5648   -0.2401 C   0  0  0  0  0  0  0  0  0  0  0  0
    0.3805    2.0744    0.3952 C   0  0  0  0  0  0  0  0  0  0  0  0
    0.6580    0.6563    0.1515 C   0  0  0  0  0  0  0  0  0  0  0  0
   -0.1355   -0.4328   -0.0457 C   0  0  0  0  0  0  0  0  0  0  0  0
    0.5885   -1.5441   -0.2348 N   0  0  0  0  0  0  0  0  0  0  0  0
    1.8766   -1.1660   -0.1582 C   0  0  0  0  0  0  0  0  0  0  0  0
    3.0685   -1.8661   -0.2713 C   0  0  0  0  0  0  0  0  0  0  0  0
    4.3041   -1.2632   -0.1556 C   0  0  0  0  0  0  0  0  0  0  0  0
    4.3723    0.0967    0.0833 C   0  0  0  0  0  0  0  0  0  0  0  0
    6.0800    0.9020    0.2382 Br  0  0  0  0  0  0  0  0  0  0  0  0
    3.1948    0.7878    0.1950 C   0  0  0  0  0  0  0  0  0  0  0  0
    1.9607    0.1860    0.0795 C   0  0  0  0  0  0  0  0  0  0  0  0
   -1.5915   -0.4515   -0.0610 C   0  0  0  0  0  0  0  0  0  0  0  0
   -2.1403   -1.6779    0.2095 C   0  0  0  0  0  0  0  0  0  0  0  0
   -3.5306   -1.8610    0.2276 C   0  0  0  0  0  0  0  0  0  0  0  0
   -4.3398   -0.7986   -0.0281 C   0  0  0  0  0  0  0  0  0  0  0  0
   -3.8197    0.4582   -0.3056 C   0  0  0  0  0  0  0  0  0  0  0  0
   -2.4519    0.6086   -0.3168 C   0  0  0  0  0  0  0  0  0  0  0  0
   -2.0906    1.9512   -0.6115 N   0  0  0  0  0  0  0  0  0  0  0  0
    0.2632    2.2415    1.4902 H   0  0  0  0  0  0  0  0  0  0  0  0
    1.2276    2.6869    0.0199 H   0  0  0  0  0  0  0  0  0  0  0  0
    0.2954   -2.5244   -0.4117 H   0  0  0  0  0  0  0  0  0  0  0  0
    3.0550   -2.9346   -0.4587 H   0  0  0  0  0  0  0  0  0  0  0  0
    5.2159   -1.8565   -0.2523 H   0  0  0  0  0  0  0  0  0  0  0  0
    3.2669    1.8701    0.3853 H   0  0  0  0  0  0  0  0  0  0  0  0
   -1.4756   -2.5008    0.4151 H   0  0  0  0  0  0  0  0  0  0  0  0
   -3.8666   -2.8567    0.4488 H   0  0  0  0  0  0  0  0  0  0  0  0
   -5.4123   -0.9636   -0.0087 H   0  0  0  0  0  0  0  0  0  0  0  0
   -4.4725    1.3104   -0.5107 H   0  0  0  0  0  0  0  0  0  0  0  0
   -2.7895    2.5106   -1.1375 H   0  0  0  0  0  0  0  0  0  0  0  0
  1  2  2  0
  2  3  1  0
  3  4  1  0
  4  5  2  0
  5  6  1  0
  6  7  1  0
  7  8  2  0
  8  9  1  0
  9 10  2  0
 10 11  1  0
 10 12  1  0
 12 13  2  0
  5 14  1  0
 14 15  2  0
 15 16  1  0
 16 17  2  0
 17 18  1  0
 18 19  2  0
 19 20  1  0
 20  2  1  0
 13  4  1  0
 19 14  1  0
 13  7  1  0
  3 21  1  0
  3 22  1  0
  6 23  1  0
  8 24  1  0
  9 25  1  0
 12 26  1  0
 15 27  1  0
 16 28  1  0
 17 29  1  0
 18 30  1  0
 20 31  1  0
M  END
$$$$
