@<TRIPOS>MOLECULE
*****
 42 45 0 0 0
SMALL
GASTEIGER

@<TRIPOS>ATOM
      1 N          -4.0372    2.7066    2.7995 N.1     1  UNL1       -0.1892
      2 C          -3.6520    2.5956    1.7129 C.1     1  UNL1        0.1208
      3 C          -3.1553    2.4666    0.3712 C.ar    1  UNL1        0.1618
      4 C          -3.4737    3.3393   -0.6481 C.ar    1  UNL1        0.0659
      5 N          -2.8226    2.8882   -1.7331 N.ar    1  UNL1       -0.2333
      6 C          -2.1125    1.7835   -1.4604 C.ar    1  UNL1        0.1555
      7 C          -1.2904    0.9434   -2.1877 C.ar    1  UNL1       -0.0153
      8 C          -0.7052   -0.1363   -1.5611 C.ar    1  UNL1       -0.0290
      9 C          -0.9449   -0.3738   -0.2023 C.ar    1  UNL1        0.1103
     10 C          -0.3176   -1.5204    0.4371 C.ar    1  UNL1        0.0968
     11 C           1.0424   -1.6755    0.5795 C.ar    1  UNL1        0.0982
     12 C           2.1084   -0.7771    0.1535 C.ar    1  UNL1        0.0028
     13 C           3.0636   -1.1465   -0.7755 C.ar    1  UNL1       -0.0525
     14 C           4.0825   -0.3008   -1.1815 C.ar    1  UNL1       -0.0608
     15 C           4.1686    0.9714   -0.6496 C.ar    1  UNL1       -0.0564
     16 C           3.2199    1.3707    0.2879 C.ar    1  UNL1       -0.0216
     17 C           3.3098    2.7391    0.8671 C.3     1  UNL1        0.0693
     18 O           2.5826    3.6023    0.0728 O.3     1  UNL1       -0.3904
     19 C           2.2166    0.5017    0.6706 C.ar    1  UNL1       -0.0471
     20 N           1.2620   -2.8611    1.2179 N.ar    1  UNL1       -0.2351
     21 C           0.0884   -3.4279    1.4672 C.ar    1  UNL1        0.0973
     22 N          -0.8757   -2.6123    0.9922 N.ar    1  UNL1       -0.3229
     23 C          -2.3073   -2.8290    1.0459 C.3     1  UNL1        0.0852
     24 C          -2.7781   -3.5814   -0.2063 C.3     1  UNL1        0.2569
     25 F          -2.4712   -2.8307   -1.3209 F       1  UNL1       -0.2073
     26 F          -2.0900   -4.7802   -0.3135 F       1  UNL1       -0.2073
     27 N          -1.7552    0.4851    0.4418 N.ar    1  UNL1       -0.1623
     28 N          -2.3281    1.5313   -0.1461 N.ar    1  UNL1       -0.2023
     29 H          -4.1272    4.2104   -0.5565 H       1  UNL1        0.0859
     30 H          -1.1076    1.1292   -3.2366 H       1  UNL1        0.0655
     31 H          -0.0488   -0.8280   -2.0936 H       1  UNL1        0.0641
     32 H           2.9861   -2.1435   -1.1832 H       1  UNL1        0.0624
     33 H           4.8345   -0.6031   -1.9178 H       1  UNL1        0.0618
     34 H           4.9713    1.6084   -0.9831 H       1  UNL1        0.0621
     35 H           4.3666    3.0476    1.0212 H       1  UNL1        0.0607
     36 H           2.7943    2.7287    1.8714 H       1  UNL1        0.0607
     37 H           3.0362    4.4878    0.0322 H       1  UNL1        0.2098
     38 H           1.4882    0.8260    1.3990 H       1  UNL1        0.0628
     39 H          -0.0741   -4.3720    1.9613 H       1  UNL1        0.1029
     40 H          -2.4804   -3.5007    1.9334 H       1  UNL1        0.0548
     41 H          -2.8107   -1.8686    1.1318 H       1  UNL1        0.0548
     42 H          -3.8561   -3.7943   -0.1104 H       1  UNL1        0.1037
@<TRIPOS>BOND
     1     1     2    3
     2     2     3    1
     3     3     4   ar
     4     4     5   ar
     5     5     6   ar
     6     6     7   ar
     7     7     8   ar
     8     8     9   ar
     9     9    10    1
    10    10    11   ar
    11    11    12    1
    12    12    13   ar
    13    13    14   ar
    14    14    15   ar
    15    15    16   ar
    16    16    17    1
    17    17    18    1
    18    16    19   ar
    19    11    20   ar
    20    20    21   ar
    21    21    22   ar
    22    22    23    1
    23    23    24    1
    24    24    25    1
    25    24    26    1
    26     9    27   ar
    27    27    28   ar
    28    28     3   ar
    29    28     6   ar
    30    22    10   ar
    31    19    12   ar
    32     4    29    1
    33     7    30    1
    34     8    31    1
    35    13    32    1
    36    14    33    1
    37    15    34    1
    38    17    35    1
    39    17    36    1
    40    18    37    1
    41    19    38    1
    42    21    39    1
    43    23    40    1
    44    23    41    1
    45    24    42    1
