
     RDKit          3D

 40 42  0  0  0  0  0  0  0  0999 V2000
   -2.1731   -2.7865    0.4534 C   0  0  0  0  0  0  0  0  0  0  0  0
   -1.2055   -1.6294    0.3032 C   0  0  0  0  0  0  0  0  0  0  0  0
   -1.8400   -0.4929   -0.4015 C   0  0  0  0  0  0  0  0  0  0  0  0
   -1.8766   -0.4217   -1.7846 C   0  0  0  0  0  0  0  0  0  0  0  0
   -2.4736    0.6454   -2.4189 C   0  0  0  0  0  0  0  0  0  0  0  0
   -3.0537    1.6769   -1.7118 C   0  0  0  0  0  0  0  0  0  0  0  0
   -3.0220    1.6145   -0.3316 C   0  0  0  0  0  0  0  0  0  0  0  0
   -2.4226    0.5431    0.2972 C   0  0  0  0  0  0  0  0  0  0  0  0
   -2.3615    0.4297    1.7883 C   0  0  0  0  0  0  0  0  0  0  0  0
   -1.0139   -0.0707    2.1487 C   0  0  0  0  0  0  0  0  0  0  0  0
   -0.5739   -1.2370    1.5021 N   0  0  0  0  0  0  0  0  0  0  0  0
    1.1125   -1.5054    1.5580 S   0  0  0  0  0  6  0  0  0  0  0  0
    1.5188   -2.8241    1.0228 O   0  0  0  0  0  0  0  0  0  0  0  0
    1.5201   -1.4760    3.0252 O   0  0  0  0  0  0  0  0  0  0  0  0
    2.0229   -0.2294    0.7727 C   0  0  0  0  0  0  0  0  0  0  0  0
    2.4592    0.8806    1.4700 C   0  0  0  0  0  0  0  0  0  0  0  0
    3.1831    1.9015    0.8594 C   0  0  0  0  0  0  0  0  0  0  0  0
    3.4677    1.7819   -0.5027 C   0  0  0  0  0  0  0  0  0  0  0  0
    3.0477    0.6877   -1.2290 C   0  0  0  0  0  0  0  0  0  0  0  0
    3.3478    0.5624   -2.6611 C   0  0  0  0  0  0  0  0  0  0  0  0
    2.9409   -0.4552   -3.2768 O   0  0  0  0  0  0  0  0  0  0  0  0
    4.0504    1.5030   -3.3564 O   0  0  0  0  0  0  0  0  0  0  0  0
    2.3417   -0.2796   -0.5724 C   0  0  0  0  0  0  0  0  0  0  0  0
   -1.6600   -3.7660    0.2419 H   0  0  0  0  0  0  0  0  0  0  0  0
   -2.7029   -2.7962    1.4040 H   0  0  0  0  0  0  0  0  0  0  0  0
   -2.9381   -2.6886   -0.3658 H   0  0  0  0  0  0  0  0  0  0  0  0
   -0.4020   -2.0083   -0.3973 H   0  0  0  0  0  0  0  0  0  0  0  0
   -1.4187   -1.2353   -2.3619 H   0  0  0  0  0  0  0  0  0  0  0  0
   -2.4604    0.6266   -3.5131 H   0  0  0  0  0  0  0  0  0  0  0  0
   -3.5169    2.5056   -2.2461 H   0  0  0  0  0  0  0  0  0  0  0  0
   -3.4775    2.4236    0.2615 H   0  0  0  0  0  0  0  0  0  0  0  0
   -2.4927    1.4494    2.2417 H   0  0  0  0  0  0  0  0  0  0  0  0
   -3.1966   -0.1833    2.1860 H   0  0  0  0  0  0  0  0  0  0  0  0
   -0.9902   -0.2396    3.2572 H   0  0  0  0  0  0  0  0  0  0  0  0
   -0.2749    0.7521    1.9585 H   0  0  0  0  0  0  0  0  0  0  0  0
    2.2247    0.9551    2.5409 H   0  0  0  0  0  0  0  0  0  0  0  0
    3.5292    2.7738    1.3961 H   0  0  0  0  0  0  0  0  0  0  0  0
    4.0323    2.5815   -0.9720 H   0  0  0  0  0  0  0  0  0  0  0  0
    4.7590    1.1979   -4.0344 H   0  0  0  0  0  0  0  0  0  0  0  0
    1.9891   -1.1671   -1.1166 H   0  0  0  0  0  0  0  0  0  0  0  0
  1  2  1  0
  2  3  1  0
  3  4  2  0
  4  5  1  0
  5  6  2  0
  6  7  1  0
  7  8  2  0
  8  9  1  0
  9 10  1  0
 10 11  1  0
 11 12  1  0
 12 13  2  0
 12 14  2  0
 12 15  1  0
 15 16  2  0
 16 17  1  0
 17 18  2  0
 18 19  1  0
 19 20  1  0
 20 21  2  0
 20 22  1  0
 19 23  2  0
 11  2  1  0
 23 15  1  0
  8  3  1  0
  1 24  1  0
  1 25  1  0
  1 26  1  0
  2 27  1  0
  4 28  1  0
  5 29  1  0
  6 30  1  0
  7 31  1  0
  9 32  1  0
  9 33  1  0
 10 34  1  0
 10 35  1  0
 16 36  1  0
 17 37  1  0
 18 38  1  0
 22 39  1  0
 23 40  1  0
M  END
$$$$
