@<TRIPOS>MOLECULE
*****
 40 42 0 0 0
SMALL
GASTEIGER

@<TRIPOS>ATOM
      1 C          -2.1731   -2.7865    0.4534 C.3     1  UNL1       -0.0437
      2 C          -1.2055   -1.6294    0.3032 C.3     1  UNL1        0.0542
      3 C          -1.8400   -0.4929   -0.4015 C.ar    1  UNL1       -0.0257
      4 C          -1.8766   -0.4217   -1.7846 C.ar    1  UNL1       -0.0568
      5 C          -2.4736    0.6454   -2.4189 C.ar    1  UNL1       -0.0614
      6 C          -3.0537    1.6769   -1.7118 C.ar    1  UNL1       -0.0615
      7 C          -3.0220    1.6145   -0.3316 C.ar    1  UNL1       -0.0582
      8 C          -2.4226    0.5431    0.2972 C.ar    1  UNL1       -0.0414
      9 C          -2.3615    0.4297    1.7883 C.3     1  UNL1       -0.0129
     10 C          -1.0139   -0.0707    2.1487 C.3     1  UNL1        0.0251
     11 N          -0.5739   -1.2370    1.5021 N.3     1  UNL1       -0.1692
     12 S           1.1125   -1.5054    1.5580 S.O2    1  UNL1        0.0614
     13 O           1.5188   -2.8241    1.0228 O.2     1  UNL1       -0.1528
     14 O           1.5201   -1.4760    3.0252 O.2     1  UNL1       -0.1528
     15 C           2.0229   -0.2294    0.7727 C.ar    1  UNL1        0.1063
     16 C           2.4592    0.8806    1.4700 C.ar    1  UNL1       -0.0353
     17 C           3.1831    1.9015    0.8594 C.ar    1  UNL1       -0.0591
     18 C           3.4677    1.7819   -0.5027 C.ar    1  UNL1       -0.0477
     19 C           3.0477    0.6877   -1.2290 C.ar    1  UNL1        0.0607
     20 C           3.3478    0.5624   -2.6611 C.2     1  UNL1        0.3369
     21 O           2.9409   -0.4552   -3.2768 O.2     1  UNL1       -0.2451
     22 O           4.0504    1.5030   -3.3564 O.3     1  UNL1       -0.4771
     23 C           2.3417   -0.2796   -0.5724 C.ar    1  UNL1       -0.0214
     24 H          -1.6600   -3.7660    0.2419 H       1  UNL1        0.0248
     25 H          -2.7029   -2.7962    1.4040 H       1  UNL1        0.0248
     26 H          -2.9381   -2.6886   -0.3658 H       1  UNL1        0.0248
     27 H          -0.4020   -2.0083   -0.3973 H       1  UNL1        0.0526
     28 H          -1.4187   -1.2353   -2.3619 H       1  UNL1        0.0621
     29 H          -2.4604    0.6266   -3.5131 H       1  UNL1        0.0618
     30 H          -3.5169    2.5056   -2.2461 H       1  UNL1        0.0618
     31 H          -3.4775    2.4236    0.2615 H       1  UNL1        0.0620
     32 H          -2.4927    1.4494    2.2417 H       1  UNL1        0.0326
     33 H          -3.1966   -0.1833    2.1860 H       1  UNL1        0.0326
     34 H          -0.9902   -0.2396    3.2572 H       1  UNL1        0.0447
     35 H          -0.2749    0.7521    1.9585 H       1  UNL1        0.0447
     36 H           2.2247    0.9551    2.5409 H       1  UNL1        0.0637
     37 H           3.5292    2.7738    1.3961 H       1  UNL1        0.0618
     38 H           4.0323    2.5815   -0.9720 H       1  UNL1        0.0626
     39 H           4.7590    1.1979   -4.0344 H       1  UNL1        0.2954
     40 H           1.9891   -1.1671   -1.1166 H       1  UNL1        0.0645
@<TRIPOS>BOND
     1     1     2    1
     2     2     3    1
     3     3     4   ar
     4     4     5   ar
     5     5     6   ar
     6     6     7   ar
     7     7     8   ar
     8     8     9    1
     9     9    10    1
    10    10    11    1
    11    11    12    1
    12    12    13    2
    13    12    14    2
    14    12    15    1
    15    15    16   ar
    16    16    17   ar
    17    17    18   ar
    18    18    19   ar
    19    19    20    1
    20    20    21    2
    21    20    22    1
    22    19    23   ar
    23    11     2    1
    24    23    15   ar
    25     8     3   ar
    26     1    24    1
    27     1    25    1
    28     1    26    1
    29     2    27    1
    30     4    28    1
    31     5    29    1
    32     6    30    1
    33     7    31    1
    34     9    32    1
    35     9    33    1
    36    10    34    1
    37    10    35    1
    38    16    36    1
    39    17    37    1
    40    18    38    1
    41    22    39    1
    42    23    40    1
