@<TRIPOS>MOLECULE
*****
 22 23 0 0 0
SMALL
GASTEIGER

@<TRIPOS>ATOM
      1 O          -3.2699   -1.6388    1.0996 O.2     1  UNL1       -0.2450
      2 C          -3.0032   -0.6843    0.3502 C.2     1  UNL1        0.3404
      3 O          -4.0398    0.0034   -0.2601 O.3     1  UNL1       -0.4770
      4 C          -1.6108   -0.2932    0.1166 C.ar    1  UNL1        0.1007
      5 C          -0.5589   -0.9428    0.6972 C.ar    1  UNL1       -0.0365
      6 C           0.7486   -0.5151    0.4295 C.ar    1  UNL1       -0.0169
      7 C           1.7921   -1.1941    1.0331 C.ar    1  UNL1       -0.0540
      8 C           3.0994   -0.8302    0.8164 C.ar    1  UNL1       -0.0612
      9 C           3.3334    0.2363   -0.0245 C.ar    1  UNL1       -0.0612
     10 C           2.3021    0.9206   -0.6317 C.ar    1  UNL1       -0.0539
     11 C           1.0028    0.5439   -0.4044 C.ar    1  UNL1       -0.0144
     12 C          -0.0679    1.1966   -0.9885 C.ar    1  UNL1       -0.0116
     13 C          -1.3473    0.7670   -0.7175 C.ar    1  UNL1        0.1314
     14 O          -2.4274    1.4348   -1.3144 O.3     1  UNL1       -0.5059
     15 H          -4.9036   -0.4837   -0.5460 H       1  UNL1        0.2954
     16 H          -0.7449   -1.7786    1.3561 H       1  UNL1        0.0633
     17 H           1.5455   -2.0381    1.6950 H       1  UNL1        0.0624
     18 H           3.9256   -1.3394    1.2716 H       1  UNL1        0.0618
     19 H           4.3381    0.5943   -0.2537 H       1  UNL1        0.0618
     20 H           2.4824    1.7613   -1.2949 H       1  UNL1        0.0624
     21 H           0.1660    2.0278   -1.6410 H       1  UNL1        0.0660
     22 H          -2.7623    2.2522   -0.7887 H       1  UNL1        0.2922
@<TRIPOS>BOND
     1     1     2    2
     2     2     3    1
     3     2     4    1
     4     4     5   ar
     5     5     6   ar
     6     6     7   ar
     7     7     8   ar
     8     8     9   ar
     9     9    10   ar
    10    10    11   ar
    11    11    12   ar
    12    12    13   ar
    13    13    14    1
    14    13     4   ar
    15    11     6   ar
    16     3    15    1
    17     5    16    1
    18     7    17    1
    19     8    18    1
    20     9    19    1
    21    10    20    1
    22    12    21    1
    23    14    22    1
