
     RDKit          3D

 62 65  0  0  0  0  0  0  0  0999 V2000
    7.3737    1.5227    2.4420 C   0  0  0  0  0  0  0  0  0  0  0  0
    6.8028   -0.0554    1.8402 S   0  0  0  0  0  6  0  0  0  0  0  0
    7.2306   -0.1672    0.3958 O   0  0  0  0  0  0  0  0  0  0  0  0
    7.3587   -1.1848    2.6404 O   0  0  0  0  0  0  0  0  0  0  0  0
    5.0545   -0.0980    1.8191 N   0  0  0  0  0  0  0  0  0  0  0  0
    4.6304    0.9286    0.9224 C   0  0  0  0  0  0  0  0  0  0  0  0
    3.1321    1.0262    0.7879 C   0  0  0  0  0  0  0  0  0  0  0  0
    2.4944   -0.2160    0.2785 C   0  0  0  0  0  0  0  0  0  0  0  0
    1.0561    0.0181    0.1986 N   0  0  0  0  0  0  0  0  0  0  0  0
    0.0970   -0.7508    0.8988 C   0  0  0  0  0  0  0  0  0  0  0  0
    0.4831   -1.6906    1.6360 O   0  0  0  0  0  0  0  0  0  0  0  0
   -1.3642   -0.5004    0.8052 C   0  0  0  0  0  0  0  0  0  0  0  0
   -2.1134   -1.4304    1.6188 N   0  0  0  0  0  0  0  0  0  0  0  0
   -1.7644   -0.7455   -0.6318 C   0  0  0  0  0  0  0  0  0  0  0  0
   -3.1291   -0.2235   -0.9718 C   0  0  0  0  0  0  0  0  0  0  0  0
   -3.8493    0.2322    0.1899 N   0  0  0  0  0  0  0  0  0  0  0  0
   -5.2315   -0.0672    0.2933 C   0  0  0  0  0  0  0  0  0  0  0  0
   -5.6993   -0.8262    1.3191 N   0  0  0  0  0  0  0  0  0  0  0  0
   -7.0057   -1.1120    1.4133 C   0  0  0  0  0  0  0  0  0  0  0  0
   -7.8901   -0.6761    0.5263 N   0  0  0  0  0  0  0  0  0  0  0  0
   -7.4959    0.0810   -0.5154 C   0  0  0  0  0  0  0  0  0  0  0  0
   -8.1358    0.6471   -1.5325 N   0  0  0  0  0  0  0  0  0  0  0  0
   -7.2611    1.3096   -2.3050 C   0  0  0  0  0  0  0  0  0  0  0  0
   -6.0138    1.1559   -1.7526 C   0  0  0  0  0  0  0  0  0  0  0  0
   -6.1608    0.3877   -0.6337 C   0  0  0  0  0  0  0  0  0  0  0  0
   -3.2226    0.9821    1.2601 C   0  0  0  0  0  0  0  0  0  0  0  0
   -1.7089    0.9328    1.1423 C   0  0  0  0  0  0  0  0  0  0  0  0
    2.9231   -0.5747   -1.0952 C   0  0  0  0  0  0  0  0  0  0  0  0
    3.7813   -1.6508   -1.2285 C   0  0  0  0  0  0  0  0  0  0  0  0
    4.2478   -2.0798   -2.4495 C   0  0  0  0  0  0  0  0  0  0  0  0
    3.8455   -1.4120   -3.5905 C   0  0  0  0  0  0  0  0  0  0  0  0
    4.4226   -1.9350   -5.1626 Cl  0  0  0  0  0  0  0  0  0  0  0  0
    2.9941   -0.3467   -3.4409 C   0  0  0  0  0  0  0  0  0  0  0  0
    2.5283    0.0812   -2.2171 C   0  0  0  0  0  0  0  0  0  0  0  0
    8.3907    1.4328    2.8749 H   0  0  0  0  0  0  0  0  0  0  0  0
    6.6700    1.9682    3.1581 H   0  0  0  0  0  0  0  0  0  0  0  0
    7.4388    2.2624    1.5914 H   0  0  0  0  0  0  0  0  0  0  0  0
    4.7710    0.1357    2.7977 H   0  0  0  0  0  0  0  0  0  0  0  0
    5.0701    1.8922    1.2508 H   0  0  0  0  0  0  0  0  0  0  0  0
    5.0331    0.7524   -0.1036 H   0  0  0  0  0  0  0  0  0  0  0  0
    2.8171    1.9125    0.2039 H   0  0  0  0  0  0  0  0  0  0  0  0
    2.7320    1.1997    1.8226 H   0  0  0  0  0  0  0  0  0  0  0  0
    2.6308   -1.0631    0.9618 H   0  0  0  0  0  0  0  0  0  0  0  0
    0.6614    0.7975   -0.4058 H   0  0  0  0  0  0  0  0  0  0  0  0
   -1.5790   -1.6279    2.4971 H   0  0  0  0  0  0  0  0  0  0  0  0
   -2.1887   -2.3179    1.1047 H   0  0  0  0  0  0  0  0  0  0  0  0
   -1.8186   -1.8651   -0.7413 H   0  0  0  0  0  0  0  0  0  0  0  0
   -0.9919   -0.4269   -1.3563 H   0  0  0  0  0  0  0  0  0  0  0  0
   -3.7096   -0.9379   -1.5677 H   0  0  0  0  0  0  0  0  0  0  0  0
   -2.9724    0.6811   -1.6272 H   0  0  0  0  0  0  0  0  0  0  0  0
   -7.3660   -1.7293    2.2518 H   0  0  0  0  0  0  0  0  0  0  0  0
   -9.1624    0.5980   -1.7229 H   0  0  0  0  0  0  0  0  0  0  0  0
   -7.4915    1.8707   -3.2086 H   0  0  0  0  0  0  0  0  0  0  0  0
   -5.1099    1.5875   -2.1678 H   0  0  0  0  0  0  0  0  0  0  0  0
   -3.5329    0.5034    2.2101 H   0  0  0  0  0  0  0  0  0  0  0  0
   -3.5876    2.0262    1.1942 H   0  0  0  0  0  0  0  0  0  0  0  0
   -1.4197    1.5754    0.3095 H   0  0  0  0  0  0  0  0  0  0  0  0
   -1.2971    1.2638    2.1114 H   0  0  0  0  0  0  0  0  0  0  0  0
    4.1327   -2.2170   -0.3595 H   0  0  0  0  0  0  0  0  0  0  0  0
    4.9187   -2.9189   -2.5687 H   0  0  0  0  0  0  0  0  0  0  0  0
    2.6923    0.1621   -4.3526 H   0  0  0  0  0  0  0  0  0  0  0  0
    1.8586    0.9200   -2.1067 H   0  0  0  0  0  0  0  0  0  0  0  0
  1  2  1  0
  2  3  2  0
  2  4  2  0
  2  5  1  0
  5  6  1  0
  6  7  1  0
  7  8  1  0
  8  9  1  0
  9 10  1  0
 10 11  2  0
 10 12  1  0
 12 13  1  0
 12 14  1  0
 14 15  1  0
 15 16  1  0
 16 17  1  0
 17 18  2  0
 18 19  1  0
 19 20  2  0
 20 21  1  0
 21 22  1  0
 22 23  1  0
 23 24  2  0
 24 25  1  0
 16 26  1  0
 26 27  1  0
  8 28  1  0
 28 29  2  0
 29 30  1  0
 30 31  2  0
 31 32  1  0
 31 33  1  0
 33 34  2  0
 27 12  1  0
 34 28  1  0
 25 17  1  0
 25 21  2  0
  1 35  1  0
  1 36  1  0
  1 37  1  0
  5 38  1  0
  6 39  1  0
  6 40  1  0
  7 41  1  0
  7 42  1  0
  8 43  1  0
  9 44  1  0
 13 45  1  0
 13 46  1  0
 14 47  1  0
 14 48  1  0
 15 49  1  0
 15 50  1  0
 19 51  1  0
 22 52  1  0
 23 53  1  0
 24 54  1  0
 26 55  1  0
 26 56  1  0
 27 57  1  0
 27 58  1  0
 29 59  1  0
 30 60  1  0
 33 61  1  0
 34 62  1  0
M  END
$$$$
