@<TRIPOS>MOLECULE
*****
 62 65 0 0 0
SMALL
GASTEIGER

@<TRIPOS>ATOM
      1 C           7.3737    1.5227    2.4420 C.3     1  UNL1        0.0705
      2 S           6.8028   -0.0554    1.8402 S.O2    1  UNL1        0.0265
      3 O           7.2306   -0.1672    0.3958 O.2     1  UNL1       -0.1585
      4 O           7.3587   -1.1848    2.6404 O.2     1  UNL1       -0.1585
      5 N           5.0545   -0.0980    1.8191 N.3     1  UNL1       -0.1947
      6 C           4.6304    0.9286    0.9224 C.3     1  UNL1        0.0190
      7 C           3.1321    1.0262    0.7879 C.3     1  UNL1       -0.0161
      8 C           2.4944   -0.2160    0.2785 C.3     1  UNL1        0.0496
      9 N           1.0561    0.0181    0.1986 N.am    1  UNL1       -0.3069
     10 C           0.0970   -0.7508    0.8988 C.2     1  UNL1        0.2336
     11 O           0.4831   -1.6906    1.6360 O.2     1  UNL1       -0.2738
     12 C          -1.3642   -0.5004    0.8052 C.3     1  UNL1        0.0965
     13 N          -2.1134   -1.4304    1.6188 N.3     1  UNL1       -0.3173
     14 C          -1.7644   -0.7455   -0.6318 C.3     1  UNL1       -0.0104
     15 C          -3.1291   -0.2235   -0.9718 C.3     1  UNL1        0.0156
     16 N          -3.8493    0.2322    0.1899 N.pl3   1  UNL1       -0.3144
     17 C          -5.2315   -0.0672    0.2933 C.ar    1  UNL1        0.1337
     18 N          -5.6993   -0.8262    1.3191 N.ar    1  UNL1       -0.2200
     19 C          -7.0057   -1.1120    1.4133 C.ar    1  UNL1        0.1204
     20 N          -7.8901   -0.6761    0.5263 N.ar    1  UNL1       -0.2178
     21 C          -7.4959    0.0810   -0.5154 C.ar    1  UNL1        0.1432
     22 N          -8.1358    0.6471   -1.5325 N.ar    1  UNL1       -0.3457
     23 C          -7.2611    1.3096   -2.3050 C.ar    1  UNL1        0.0042
     24 C          -6.0138    1.1559   -1.7526 C.ar    1  UNL1       -0.0318
     25 C          -6.1608    0.3877   -0.6337 C.ar    1  UNL1        0.0585
     26 C          -3.2226    0.9821    1.2601 C.3     1  UNL1        0.0156
     27 C          -1.7089    0.9328    1.1423 C.3     1  UNL1       -0.0104
     28 C           2.9231   -0.5747   -1.0952 C.ar    1  UNL1       -0.0271
     29 C           3.7813   -1.6508   -1.2285 C.ar    1  UNL1       -0.0554
     30 C           4.2478   -2.0798   -2.4495 C.ar    1  UNL1       -0.0431
     31 C           3.8455   -1.4120   -3.5905 C.ar    1  UNL1        0.0410
     32 CL          4.4226   -1.9350   -5.1626 Cl      1  UNL1       -0.0835
     33 C           2.9941   -0.3467   -3.4409 C.ar    1  UNL1       -0.0431
     34 C           2.5283    0.0812   -2.2171 C.ar    1  UNL1       -0.0554
     35 H           8.3907    1.4328    2.8749 H       1  UNL1        0.0479
     36 H           6.6700    1.9682    3.1581 H       1  UNL1        0.0479
     37 H           7.4388    2.2624    1.5914 H       1  UNL1        0.0479
     38 H           4.7710    0.1357    2.7977 H       1  UNL1        0.1476
     39 H           5.0701    1.8922    1.2508 H       1  UNL1        0.0442
     40 H           5.0331    0.7524   -0.1036 H       1  UNL1        0.0442
     41 H           2.8171    1.9125    0.2039 H       1  UNL1        0.0299
     42 H           2.7320    1.1997    1.8226 H       1  UNL1        0.0299
     43 H           2.6308   -1.0631    0.9618 H       1  UNL1        0.0549
     44 H           0.6614    0.7975   -0.4058 H       1  UNL1        0.1493
     45 H          -1.5790   -1.6279    2.4971 H       1  UNL1        0.1192
     46 H          -2.1887   -2.3179    1.1047 H       1  UNL1        0.1192
     47 H          -1.8186   -1.8651   -0.7413 H       1  UNL1        0.0303
     48 H          -0.9919   -0.4269   -1.3563 H       1  UNL1        0.0303
     49 H          -3.7096   -0.9379   -1.5677 H       1  UNL1        0.0465
     50 H          -2.9724    0.6811   -1.6272 H       1  UNL1        0.0465
     51 H          -7.3660   -1.7293    2.2518 H       1  UNL1        0.1048
     52 H          -9.1624    0.5980   -1.7229 H       1  UNL1        0.1668
     53 H          -7.4915    1.8707   -3.2086 H       1  UNL1        0.0807
     54 H          -5.1099    1.5875   -2.1678 H       1  UNL1        0.0640
     55 H          -3.5329    0.5034    2.2101 H       1  UNL1        0.0465
     56 H          -3.5876    2.0262    1.1942 H       1  UNL1        0.0465
     57 H          -1.4197    1.5754    0.3095 H       1  UNL1        0.0303
     58 H          -1.2971    1.2638    2.1114 H       1  UNL1        0.0303
     59 H           4.1327   -2.2170   -0.3595 H       1  UNL1        0.0621
     60 H           4.9187   -2.9189   -2.5687 H       1  UNL1        0.0632
     61 H           2.6923    0.1621   -4.3526 H       1  UNL1        0.0632
     62 H           1.8586    0.9200   -2.1067 H       1  UNL1        0.0621
@<TRIPOS>BOND
     1     1     2    1
     2     2     3    2
     3     2     4    2
     4     2     5    1
     5     5     6    1
     6     6     7    1
     7     7     8    1
     8     8     9    1
     9     9    10   am
    10    10    11    2
    11    10    12    1
    12    12    13    1
    13    12    14    1
    14    14    15    1
    15    15    16    1
    16    16    17    1
    17    17    18   ar
    18    18    19   ar
    19    19    20   ar
    20    20    21   ar
    21    21    22   ar
    22    22    23   ar
    23    23    24   ar
    24    24    25   ar
    25    16    26    1
    26    26    27    1
    27     8    28    1
    28    28    29   ar
    29    29    30   ar
    30    30    31   ar
    31    31    32    1
    32    31    33   ar
    33    33    34   ar
    34    27    12    1
    35    34    28   ar
    36    25    17   ar
    37    25    21   ar
    38     1    35    1
    39     1    36    1
    40     1    37    1
    41     5    38    1
    42     6    39    1
    43     6    40    1
    44     7    41    1
    45     7    42    1
    46     8    43    1
    47     9    44    1
    48    13    45    1
    49    13    46    1
    50    14    47    1
    51    14    48    1
    52    15    49    1
    53    15    50    1
    54    19    51    1
    55    22    52    1
    56    23    53    1
    57    24    54    1
    58    26    55    1
    59    26    56    1
    60    27    57    1
    61    27    58    1
    62    29    59    1
    63    30    60    1
    64    33    61    1
    65    34    62    1
