@<TRIPOS>MOLECULE
*****
 50 54 0 0 0
SMALL
GASTEIGER

@<TRIPOS>ATOM
      1 N          -7.4289    1.2251   -1.1832 N.pl3   1  UNL1       -0.3134
      2 C          -6.5051    1.3624   -0.1001 C.2     1  UNL1        0.2764
      3 N          -5.2687    1.2498   -0.3618 N.2     1  UNL1       -0.2194
      4 C          -4.1857    1.3588    0.6097 C.3     1  UNL1        0.1603
      5 C          -3.4138    0.0697    0.4191 C.ar    1  UNL1        0.0228
      6 C          -2.0941    0.0552    0.0497 C.ar    1  UNL1       -0.0321
      7 C          -1.3846   -1.1259   -0.1178 C.ar    1  UNL1        0.0342
      8 N          -0.0213   -1.0390   -0.5044 N.am    1  UNL1       -0.2802
      9 C           1.0375   -0.9100    0.4052 C.2     1  UNL1        0.2681
     10 O           0.7381   -0.8712    1.6352 O.2     1  UNL1       -0.2681
     11 C           2.4260   -0.8218   -0.0390 C.ar    1  UNL1        0.1437
     12 C           3.4378   -0.6468    0.8937 C.ar    1  UNL1        0.0595
     13 N           4.7182   -0.5462    0.5084 N.ar    1  UNL1       -0.2429
     14 C           5.0682   -0.6128   -0.7997 C.ar    1  UNL1        0.1314
     15 C           6.4823   -0.5269   -1.1628 C.1     1  UNL1       -0.0446
     16 C           7.6369   -0.4681   -1.4410 C.1     1  UNL1       -0.0920
     17 C           9.0770   -0.4169   -1.7751 C.3     1  UNL1        0.0211
     18 C           9.6520   -1.4881   -2.6527 C.3     1  UNL1       -0.0382
     19 C           9.8875   -1.5885   -1.1864 C.3     1  UNL1       -0.0382
     20 C           4.0841   -0.7858   -1.7338 C.ar    1  UNL1        0.0623
     21 N           2.7951   -0.8851   -1.3282 N.ar    1  UNL1       -0.2461
     22 C          -2.0616   -2.3032    0.1023 C.ar    1  UNL1       -0.0377
     23 C          -3.3904   -2.3248    0.4750 C.ar    1  UNL1       -0.0243
     24 C          -4.0754   -1.1320    0.6353 C.ar    1  UNL1        0.1292
     25 F          -5.3862   -1.1196    1.0011 F       1  UNL1       -0.2051
     26 C          -3.3252    2.5277    0.1886 C.3     1  UNL1        0.2686
     27 F          -4.1085    3.6767    0.1576 F       1  UNL1       -0.2062
     28 F          -2.3239    2.6893    1.1463 F       1  UNL1       -0.2062
     29 C          -4.6196    1.3740    2.0231 C.3     1  UNL1        0.0344
     30 C          -5.1196    2.6498    2.6108 C.3     1  UNL1       -0.0064
     31 C          -6.0464    1.5338    2.2799 C.3     1  UNL1        0.1091
     32 O          -6.9027    1.6061    1.1879 O.2     1  UNL1       -0.4622
     33 H          -7.7928    2.0185   -1.7312 H       1  UNL1        0.1466
     34 H          -7.7499    0.2569   -1.4280 H       1  UNL1        0.1466
     35 H          -1.5922    0.9769   -0.1184 H       1  UNL1        0.0640
     36 H           0.2456   -1.0693   -1.5313 H       1  UNL1        0.1552
     37 H           3.1314   -0.6015    1.9319 H       1  UNL1        0.0853
     38 H           9.5602    0.5756   -1.7513 H       1  UNL1        0.0433
     39 H           8.9284   -2.1866   -3.1150 H       1  UNL1        0.0277
     40 H          10.5120   -1.2666   -3.3055 H       1  UNL1        0.0277
     41 H          10.8528   -1.3497   -0.7204 H       1  UNL1        0.0277
     42 H           9.3032   -2.3586   -0.6097 H       1  UNL1        0.0277
     43 H           4.3536   -0.8397   -2.7815 H       1  UNL1        0.0858
     44 H          -1.5314   -3.2561   -0.0224 H       1  UNL1        0.0637
     45 H          -3.9417   -3.2390    0.6518 H       1  UNL1        0.0647
     46 H          -2.9222    2.4014   -0.8321 H       1  UNL1        0.1047
     47 H          -4.0312    0.7572    2.7691 H       1  UNL1        0.0366
     48 H          -4.9388    2.8587    3.7076 H       1  UNL1        0.0306
     49 H          -5.2934    3.5675    2.0527 H       1  UNL1        0.0306
     50 H          -6.4724    0.9890    3.1573 H       1  UNL1        0.0737
@<TRIPOS>BOND
     1     1     2    1
     2     2     3    2
     3     3     4    1
     4     4     5    1
     5     5     6   ar
     6     6     7   ar
     7     7     8    1
     8     8     9   am
     9     9    10    2
    10     9    11    1
    11    11    12   ar
    12    12    13   ar
    13    13    14   ar
    14    14    15    1
    15    15    16    3
    16    16    17    1
    17    17    18    1
    18    18    19    1
    19    14    20   ar
    20    20    21   ar
    21     7    22   ar
    22    22    23   ar
    23    23    24   ar
    24    24    25    1
    25     4    26    1
    26    26    27    1
    27    26    28    1
    28     4    29    1
    29    29    30    1
    30    30    31    1
    31    31    32    1
    32    32     2    1
    33    24     5   ar
    34    31    29    1
    35    21    11   ar
    36    19    17    1
    37     1    33    1
    38     1    34    1
    39     6    35    1
    40     8    36    1
    41    12    37    1
    42    17    38    1
    43    18    39    1
    44    18    40    1
    45    19    41    1
    46    19    42    1
    47    20    43    1
    48    22    44    1
    49    23    45    1
    50    26    46    1
    51    29    47    1
    52    30    48    1
    53    30    49    1
    54    31    50    1
