
     RDKit          3D

 50 54  0  0  0  0  0  0  0  0999 V2000
   -7.4289    1.2251   -1.1832 N   0  0  0  0  0  0  0  0  0  0  0  0
   -6.5051    1.3624   -0.1001 C   0  0  0  0  0  0  0  0  0  0  0  0
   -5.2687    1.2498   -0.3618 N   0  0  0  0  0  0  0  0  0  0  0  0
   -4.1857    1.3588    0.6097 C   0  0  1  0  0  0  0  0  0  0  0  0
   -3.4138    0.0697    0.4191 C   0  0  0  0  0  0  0  0  0  0  0  0
   -2.0941    0.0552    0.0497 C   0  0  0  0  0  0  0  0  0  0  0  0
   -1.3846   -1.1259   -0.1178 C   0  0  0  0  0  0  0  0  0  0  0  0
   -0.0213   -1.0390   -0.5044 N   0  0  0  0  0  0  0  0  0  0  0  0
    1.0375   -0.9100    0.4052 C   0  0  0  0  0  0  0  0  0  0  0  0
    0.7381   -0.8712    1.6352 O   0  0  0  0  0  0  0  0  0  0  0  0
    2.4260   -0.8218   -0.0390 C   0  0  0  0  0  0  0  0  0  0  0  0
    3.4378   -0.6468    0.8937 C   0  0  0  0  0  0  0  0  0  0  0  0
    4.7182   -0.5462    0.5084 N   0  0  0  0  0  0  0  0  0  0  0  0
    5.0682   -0.6128   -0.7997 C   0  0  0  0  0  0  0  0  0  0  0  0
    6.4823   -0.5269   -1.1628 C   0  0  0  0  0  0  0  0  0  0  0  0
    7.6369   -0.4681   -1.4410 C   0  0  0  0  0  0  0  0  0  0  0  0
    9.0770   -0.4169   -1.7751 C   0  0  0  0  0  0  0  0  0  0  0  0
    9.6520   -1.4881   -2.6527 C   0  0  0  0  0  0  0  0  0  0  0  0
    9.8875   -1.5885   -1.1864 C   0  0  0  0  0  0  0  0  0  0  0  0
    4.0841   -0.7858   -1.7338 C   0  0  0  0  0  0  0  0  0  0  0  0
    2.7951   -0.8851   -1.3282 N   0  0  0  0  0  0  0  0  0  0  0  0
   -2.0616   -2.3032    0.1023 C   0  0  0  0  0  0  0  0  0  0  0  0
   -3.3904   -2.3248    0.4750 C   0  0  0  0  0  0  0  0  0  0  0  0
   -4.0754   -1.1320    0.6353 C   0  0  0  0  0  0  0  0  0  0  0  0
   -5.3862   -1.1196    1.0011 F   0  0  0  0  0  0  0  0  0  0  0  0
   -3.3252    2.5277    0.1886 C   0  0  0  0  0  0  0  0  0  0  0  0
   -4.1085    3.6767    0.1576 F   0  0  0  0  0  0  0  0  0  0  0  0
   -2.3239    2.6893    1.1463 F   0  0  0  0  0  0  0  0  0  0  0  0
   -4.6196    1.3740    2.0231 C   0  0  1  0  0  0  0  0  0  0  0  0
   -5.1196    2.6498    2.6108 C   0  0  0  0  0  0  0  0  0  0  0  0
   -6.0464    1.5338    2.2799 C   0  0  1  0  0  0  0  0  0  0  0  0
   -6.9027    1.6061    1.1879 O   0  0  0  0  0  0  0  0  0  0  0  0
   -7.7928    2.0185   -1.7312 H   0  0  0  0  0  0  0  0  0  0  0  0
   -7.7499    0.2569   -1.4280 H   0  0  0  0  0  0  0  0  0  0  0  0
   -1.5922    0.9769   -0.1184 H   0  0  0  0  0  0  0  0  0  0  0  0
    0.2456   -1.0693   -1.5313 H   0  0  0  0  0  0  0  0  0  0  0  0
    3.1314   -0.6015    1.9319 H   0  0  0  0  0  0  0  0  0  0  0  0
    9.5602    0.5756   -1.7513 H   0  0  0  0  0  0  0  0  0  0  0  0
    8.9284   -2.1866   -3.1150 H   0  0  0  0  0  0  0  0  0  0  0  0
   10.5120   -1.2666   -3.3055 H   0  0  0  0  0  0  0  0  0  0  0  0
   10.8528   -1.3497   -0.7204 H   0  0  0  0  0  0  0  0  0  0  0  0
    9.3032   -2.3586   -0.6097 H   0  0  0  0  0  0  0  0  0  0  0  0
    4.3536   -0.8397   -2.7815 H   0  0  0  0  0  0  0  0  0  0  0  0
   -1.5314   -3.2561   -0.0224 H   0  0  0  0  0  0  0  0  0  0  0  0
   -3.9417   -3.2390    0.6518 H   0  0  0  0  0  0  0  0  0  0  0  0
   -2.9222    2.4014   -0.8321 H   0  0  0  0  0  0  0  0  0  0  0  0
   -4.0312    0.7572    2.7691 H   0  0  0  0  0  0  0  0  0  0  0  0
   -4.9388    2.8587    3.7076 H   0  0  0  0  0  0  0  0  0  0  0  0
   -5.2934    3.5675    2.0527 H   0  0  0  0  0  0  0  0  0  0  0  0
   -6.4724    0.9890    3.1573 H   0  0  0  0  0  0  0  0  0  0  0  0
  1  2  1  0
  2  3  2  0
  3  4  1  0
  4  5  1  0
  5  6  2  0
  6  7  1  0
  7  8  1  0
  8  9  1  0
  9 10  2  0
  9 11  1  0
 11 12  2  0
 12 13  1  0
 13 14  2  0
 14 15  1  0
 15 16  3  0
 16 17  1  0
 17 18  1  0
 18 19  1  0
 14 20  1  0
 20 21  2  0
  7 22  2  0
 22 23  1  0
 23 24  2  0
 24 25  1  0
  4 26  1  6
 26 27  1  0
 26 28  1  0
  4 29  1  0
 29 30  1  0
 30 31  1  0
 31 32  1  0
 32  2  1  0
 24  5  1  0
 31 29  1  0
 21 11  1  0
 19 17  1  0
  1 33  1  0
  1 34  1  0
  6 35  1  0
  8 36  1  0
 12 37  1  0
 17 38  1  0
 18 39  1  0
 18 40  1  0
 19 41  1  0
 19 42  1  0
 20 43  1  0
 22 44  1  0
 23 45  1  0
 26 46  1  0
 29 47  1  1
 30 48  1  0
 30 49  1  0
 31 50  1  1
M  END
$$$$
