@<TRIPOS>MOLECULE
*****
 66 71 0 0 0
SMALL
GASTEIGER

@<TRIPOS>ATOM
      1 O          -4.4132   -0.3691   -0.6353 O.2     1  UNL1       -0.2444
      2 C          -3.2338   -0.8442   -0.6866 C.ar    1  UNL1        0.3518
      3 N          -2.8750   -2.1156   -0.8061 N.ar    1  UNL1       -0.2091
      4 C          -3.7963   -3.2477   -0.9046 C.3     1  UNL1        0.0621
      5 C          -3.5728   -4.2252    0.2284 C.3     1  UNL1       -0.0067
      6 C          -4.5084   -5.4011   -0.0262 C.3     1  UNL1        0.0496
      7 O          -5.8069   -4.9234    0.0274 O.3     1  UNL1       -0.3796
      8 C          -6.1003   -4.0245   -0.9764 C.3     1  UNL1        0.0496
      9 C          -5.2168   -2.7777   -0.8622 C.3     1  UNL1       -0.0067
     10 N          -1.5694   -2.1600   -0.8185 N.ar    1  UNL1       -0.1479
     11 C          -1.0384   -0.9289   -0.7084 C.ar    1  UNL1        0.1696
     12 C           0.3602   -0.5241   -0.6799 C.ar    1  UNL1        0.0243
     13 C           0.7534    0.5030   -1.4963 C.ar    1  UNL1       -0.0327
     14 C           2.0815    0.8720   -1.4553 C.ar    1  UNL1        0.0304
     15 N           2.9620    0.2632   -0.6578 N.ar    1  UNL1       -0.2405
     16 C           2.6121   -0.7398    0.1490 C.ar    1  UNL1        0.1195
     17 N           3.5508   -1.3780    0.9902 N.pl3   1  UNL1       -0.3262
     18 C           4.9360   -1.0625    1.1590 C.3     1  UNL1        0.0220
     19 C           5.1338    0.1469    1.9943 C.3     1  UNL1       -0.0345
     20 C           5.1912    1.4368    1.2940 C.3     1  UNL1       -0.0514
     21 C           5.9327    1.5053    0.0035 C.3     1  UNL1       -0.0529
     22 C           6.6402    0.1768   -0.2230 C.3     1  UNL1       -0.0514
     23 C           5.6735   -0.9580   -0.1417 C.3     1  UNL1       -0.0345
     24 C           1.2712   -1.1392    0.1319 C.ar    1  UNL1       -0.0112
     25 N          -2.1056   -0.0833   -0.6236 N.ar    1  UNL1       -0.2435
     26 C          -2.0944    1.3155   -0.4946 C.ar    1  UNL1        0.0535
     27 C          -2.6205    2.1146   -1.4777 C.ar    1  UNL1       -0.0370
     28 C          -2.6126    3.5106   -1.3553 C.ar    1  UNL1       -0.0521
     29 C          -2.0663    4.0925   -0.2268 C.ar    1  UNL1       -0.0178
     30 C          -2.0451    5.4752   -0.0790 C.ar    1  UNL1       -0.0540
     31 C          -1.4970    6.0321    1.0512 C.ar    1  UNL1       -0.0612
     32 C          -0.9596    5.2330    2.0565 C.ar    1  UNL1       -0.0612
     33 C          -1.0022    3.8689    1.8677 C.ar    1  UNL1       -0.0540
     34 C          -1.5418    3.2803    0.7521 C.ar    1  UNL1       -0.0159
     35 C          -1.5550    1.9070    0.6208 C.ar    1  UNL1       -0.0299
     36 H          -3.6371   -3.7932   -1.8496 H       1  UNL1        0.0548
     37 H          -3.7707   -3.7840    1.2181 H       1  UNL1        0.0308
     38 H          -2.5078   -4.5489    0.1607 H       1  UNL1        0.0308
     39 H          -4.3747   -6.1878    0.7185 H       1  UNL1        0.0560
     40 H          -4.2547   -5.7546   -1.0667 H       1  UNL1        0.0560
     41 H          -7.1420   -3.6902   -0.8429 H       1  UNL1        0.0560
     42 H          -5.9097   -4.4488   -1.9973 H       1  UNL1        0.0560
     43 H          -5.4790   -2.3102    0.1119 H       1  UNL1        0.0308
     44 H          -5.4735   -2.1406   -1.7313 H       1  UNL1        0.0308
     45 H           0.0435    1.0209   -2.1637 H       1  UNL1        0.0640
     46 H           2.3830    1.7020   -2.1197 H       1  UNL1        0.0830
     47 H           3.1702   -2.1920    1.5657 H       1  UNL1        0.1477
     48 H           5.4177   -1.9118    1.7585 H       1  UNL1        0.0498
     49 H           6.0341    0.0281    2.6783 H       1  UNL1        0.0283
     50 H           4.2279    0.2096    2.6967 H       1  UNL1        0.0283
     51 H           4.1563    1.8406    1.1495 H       1  UNL1        0.0266
     52 H           5.7050    2.2002    1.9988 H       1  UNL1        0.0266
     53 H           5.3059    1.7673   -0.8768 H       1  UNL1        0.0265
     54 H           6.7482    2.2715    0.0065 H       1  UNL1        0.0265
     55 H           7.4293    0.1153    0.5532 H       1  UNL1        0.0266
     56 H           7.0794    0.1900   -1.2345 H       1  UNL1        0.0266
     57 H           5.0030   -0.8935   -1.0249 H       1  UNL1        0.0283
     58 H           6.2630   -1.8990   -0.3109 H       1  UNL1        0.0283
     59 H           0.9885   -1.9651    0.7979 H       1  UNL1        0.0659
     60 H          -3.0626    1.7309   -2.3843 H       1  UNL1        0.0638
     61 H          -3.0232    4.1477   -2.1215 H       1  UNL1        0.0624
     62 H          -2.4576    6.0825   -0.8513 H       1  UNL1        0.0624
     63 H          -1.4944    7.1245    1.1398 H       1  UNL1        0.0618
     64 H          -0.5343    5.7046    2.9366 H       1  UNL1        0.0618
     65 H          -0.5718    3.2676    2.6758 H       1  UNL1        0.0624
     66 H          -1.1293    1.2849    1.4181 H       1  UNL1        0.0644
@<TRIPOS>BOND
     1     1     2    2
     2     2     3   ar
     3     3     4    1
     4     4     5    1
     5     5     6    1
     6     6     7    1
     7     7     8    1
     8     8     9    1
     9     3    10   ar
    10    10    11   ar
    11    11    12    1
    12    12    13   ar
    13    13    14   ar
    14    14    15   ar
    15    15    16   ar
    16    16    17    1
    17    17    18    1
    18    18    19    1
    19    19    20    1
    20    20    21    1
    21    21    22    1
    22    22    23    1
    23    16    24   ar
    24    11    25   ar
    25    25    26    1
    26    26    27   ar
    27    27    28   ar
    28    28    29   ar
    29    29    30   ar
    30    30    31   ar
    31    31    32   ar
    32    32    33   ar
    33    33    34   ar
    34    34    35   ar
    35    25     2   ar
    36    35    26   ar
    37     9     4    1
    38    24    12   ar
    39    34    29   ar
    40    23    18    1
    41     4    36    1
    42     5    37    1
    43     5    38    1
    44     6    39    1
    45     6    40    1
    46     8    41    1
    47     8    42    1
    48     9    43    1
    49     9    44    1
    50    13    45    1
    51    14    46    1
    52    17    47    1
    53    18    48    1
    54    19    49    1
    55    19    50    1
    56    20    51    1
    57    20    52    1
    58    21    53    1
    59    21    54    1
    60    22    55    1
    61    22    56    1
    62    23    57    1
    63    23    58    1
    64    24    59    1
    65    27    60    1
    66    28    61    1
    67    30    62    1
    68    31    63    1
    69    32    64    1
    70    33    65    1
    71    35    66    1
