@<TRIPOS>MOLECULE
*****
 31 31 0 0 0
SMALL
GASTEIGER

@<TRIPOS>ATOM
      1 C           2.3509   -1.2921    0.6238 C.3     1  UNL1       -0.0650
      2 C           1.7482   -1.1431   -0.7326 C.3     1  UNL1       -0.0519
      3 C           1.0061    0.1376   -0.9711 C.3     1  UNL1       -0.0217
      4 C           1.9245    1.3077   -0.7915 C.3     1  UNL1       -0.0610
      5 C          -0.3033    0.2499   -0.2507 C.3     1  UNL1        0.1257
      6 C          -0.8895    1.6202   -0.6317 C.3     1  UNL1       -0.0332
      7 C          -2.2326    1.8198    0.0620 C.3     1  UNL1       -0.0639
      8 C          -1.2880   -0.7436   -0.7630 C.2     1  UNL1        0.2357
      9 O          -1.3264   -0.6262   -2.0217 O.2     1  UNL1       -0.2742
     10 N          -2.0677   -1.6695   -0.0628 N.am    1  UNL1       -0.2390
     11 C          -1.8814   -1.6612    1.3269 C.2     1  UNL1        0.3122
     12 O          -2.5219   -2.4479    2.0921 O.2     1  UNL1       -0.2520
     13 N          -0.9784   -0.7892    1.9806 N.am    1  UNL1       -0.2390
     14 C          -0.1901    0.1533    1.2266 C.2     1  UNL1        0.2357
     15 O           0.6013    0.8970    1.8578 O.2     1  UNL1       -0.2742
     16 H           2.8683   -0.3888    1.0052 H       1  UNL1        0.0230
     17 H           3.1816   -2.0529    0.5080 H       1  UNL1        0.0230
     18 H           1.6176   -1.6088    1.3705 H       1  UNL1        0.0230
     19 H           1.0397   -2.0175   -0.8420 H       1  UNL1        0.0266
     20 H           2.4938   -1.3259   -1.5343 H       1  UNL1        0.0266
     21 H           0.7367    0.1395   -2.0746 H       1  UNL1        0.0313
     22 H           2.8856    1.0111   -1.3057 H       1  UNL1        0.0233
     23 H           2.1428    1.5827    0.2436 H       1  UNL1        0.0233
     24 H           1.6147    2.2266   -1.3271 H       1  UNL1        0.0233
     25 H          -0.1781    2.4123   -0.3732 H       1  UNL1        0.0277
     26 H          -1.1262    1.5432   -1.7137 H       1  UNL1        0.0277
     27 H          -2.4873    2.8939   -0.0685 H       1  UNL1        0.0230
     28 H          -2.9886    1.2356   -0.4659 H       1  UNL1        0.0230
     29 H          -2.1723    1.6417    1.1421 H       1  UNL1        0.0230
     30 H          -2.7225   -2.3020   -0.5364 H       1  UNL1        0.1591
     31 H          -0.8574   -0.8034    3.0273 H       1  UNL1        0.1591
@<TRIPOS>BOND
     1     1     2    1
     2     2     3    1
     3     3     4    1
     4     3     5    1
     5     5     6    1
     6     6     7    1
     7     5     8    1
     8     8     9    2
     9     8    10   am
    10    10    11   am
    11    11    12    2
    12    11    13   am
    13    13    14   am
    14    14    15    2
    15    14     5    1
    16     1    16    1
    17     1    17    1
    18     1    18    1
    19     2    19    1
    20     2    20    1
    21     3    21    1
    22     4    22    1
    23     4    23    1
    24     4    24    1
    25     6    25    1
    26     6    26    1
    27     7    27    1
    28     7    28    1
    29     7    29    1
    30    10    30    1
    31    13    31    1
