
     RDKit          3D

 31 31  0  0  0  0  0  0  0  0999 V2000
    2.3509   -1.2921    0.6238 C   0  0  0  0  0  0  0  0  0  0  0  0
    1.7482   -1.1431   -0.7326 C   0  0  0  0  0  0  0  0  0  0  0  0
    1.0061    0.1376   -0.9711 C   0  0  0  0  0  0  0  0  0  0  0  0
    1.9245    1.3077   -0.7915 C   0  0  0  0  0  0  0  0  0  0  0  0
   -0.3033    0.2499   -0.2507 C   0  0  0  0  0  0  0  0  0  0  0  0
   -0.8895    1.6202   -0.6317 C   0  0  0  0  0  0  0  0  0  0  0  0
   -2.2326    1.8198    0.0620 C   0  0  0  0  0  0  0  0  0  0  0  0
   -1.2880   -0.7436   -0.7630 C   0  0  0  0  0  0  0  0  0  0  0  0
   -1.3264   -0.6262   -2.0217 O   0  0  0  0  0  0  0  0  0  0  0  0
   -2.0677   -1.6695   -0.0628 N   0  0  0  0  0  0  0  0  0  0  0  0
   -1.8814   -1.6612    1.3269 C   0  0  0  0  0  0  0  0  0  0  0  0
   -2.5219   -2.4479    2.0921 O   0  0  0  0  0  0  0  0  0  0  0  0
   -0.9784   -0.7892    1.9806 N   0  0  0  0  0  0  0  0  0  0  0  0
   -0.1901    0.1533    1.2266 C   0  0  0  0  0  0  0  0  0  0  0  0
    0.6013    0.8970    1.8578 O   0  0  0  0  0  0  0  0  0  0  0  0
    2.8683   -0.3888    1.0052 H   0  0  0  0  0  0  0  0  0  0  0  0
    3.1816   -2.0529    0.5080 H   0  0  0  0  0  0  0  0  0  0  0  0
    1.6176   -1.6088    1.3705 H   0  0  0  0  0  0  0  0  0  0  0  0
    1.0397   -2.0175   -0.8420 H   0  0  0  0  0  0  0  0  0  0  0  0
    2.4938   -1.3259   -1.5343 H   0  0  0  0  0  0  0  0  0  0  0  0
    0.7367    0.1395   -2.0746 H   0  0  0  0  0  0  0  0  0  0  0  0
    2.8856    1.0111   -1.3057 H   0  0  0  0  0  0  0  0  0  0  0  0
    2.1428    1.5827    0.2436 H   0  0  0  0  0  0  0  0  0  0  0  0
    1.6147    2.2266   -1.3271 H   0  0  0  0  0  0  0  0  0  0  0  0
   -0.1781    2.4123   -0.3732 H   0  0  0  0  0  0  0  0  0  0  0  0
   -1.1262    1.5432   -1.7137 H   0  0  0  0  0  0  0  0  0  0  0  0
   -2.4873    2.8939   -0.0685 H   0  0  0  0  0  0  0  0  0  0  0  0
   -2.9886    1.2356   -0.4659 H   0  0  0  0  0  0  0  0  0  0  0  0
   -2.1723    1.6417    1.1421 H   0  0  0  0  0  0  0  0  0  0  0  0
   -2.7225   -2.3020   -0.5364 H   0  0  0  0  0  0  0  0  0  0  0  0
   -0.8574   -0.8034    3.0273 H   0  0  0  0  0  0  0  0  0  0  0  0
  1  2  1  0
  2  3  1  0
  3  4  1  0
  3  5  1  0
  5  6  1  0
  6  7  1  0
  5  8  1  0
  8  9  2  0
  8 10  1  0
 10 11  1  0
 11 12  2  0
 11 13  1  0
 13 14  1  0
 14 15  2  0
 14  5  1  0
  1 16  1  0
  1 17  1  0
  1 18  1  0
  2 19  1  0
  2 20  1  0
  3 21  1  0
  4 22  1  0
  4 23  1  0
  4 24  1  0
  6 25  1  0
  6 26  1  0
  7 27  1  0
  7 28  1  0
  7 29  1  0
 10 30  1  0
 13 31  1  0
M  END
$$$$
