@<TRIPOS>MOLECULE
*****
 57 59 0 0 0
SMALL
GASTEIGER

@<TRIPOS>ATOM
      1 C          -5.1565    1.2206   -0.8887 C.3     1  UNL1       -0.0612
      2 C          -4.4634    0.4961    0.2654 C.3     1  UNL1       -0.0294
      3 C          -2.9658    0.5755    0.0673 C.2     1  UNL1       -0.0322
      4 C          -2.2647   -0.5101    0.0710 C.2     1  UNL1       -0.0070
      5 C          -2.9335   -1.8079    0.2792 C.ar    1  UNL1       -0.0170
      6 C          -2.7383   -2.7375   -0.7321 C.ar    1  UNL1       -0.0540
      7 C          -3.2532   -4.0000   -0.6313 C.ar    1  UNL1       -0.0612
      8 C          -3.9773   -4.3709    0.4825 C.ar    1  UNL1       -0.0617
      9 C          -4.1586   -3.4250    1.4794 C.ar    1  UNL1       -0.0612
     10 C          -3.6435   -2.1473    1.3884 C.ar    1  UNL1       -0.0540
     11 C          -0.8131   -0.5114   -0.1253 C.ar    1  UNL1       -0.0168
     12 C          -0.1011   -0.8745    1.0285 C.ar    1  UNL1       -0.0506
     13 C           1.2694   -1.0021    1.0184 C.ar    1  UNL1       -0.0194
     14 C           1.9991   -0.7710   -0.1539 C.ar    1  UNL1        0.1206
     15 O           3.3840   -0.9067   -0.1455 O.3     1  UNL1       -0.4907
     16 C           4.1840   -0.6947   -1.2799 C.3     1  UNL1        0.1022
     17 C           5.6376   -0.9300   -0.9745 C.3     1  UNL1        0.0325
     18 N           6.1189   -0.0560    0.0515 N.3     1  UNL1       -0.3051
     19 C           7.5063   -0.3831    0.3669 C.3     1  UNL1       -0.0129
     20 C           6.0315    1.3356   -0.3106 C.3     1  UNL1       -0.0129
     21 C           1.2655   -0.4176   -1.2594 C.ar    1  UNL1       -0.0194
     22 C          -0.1271   -0.2878   -1.2534 C.ar    1  UNL1       -0.0506
     23 C          -2.4674    1.9418   -0.1100 C.ar    1  UNL1       -0.0213
     24 C          -1.9575    2.3605   -1.2783 C.ar    1  UNL1       -0.0543
     25 C          -1.4700    3.6713   -1.3942 C.ar    1  UNL1       -0.0612
     26 C          -1.5329    4.4878   -0.2996 C.ar    1  UNL1       -0.0617
     27 C          -2.0537    4.0875    0.9192 C.ar    1  UNL1       -0.0612
     28 C          -2.5164    2.7903    0.9734 C.ar    1  UNL1       -0.0543
     29 H          -5.3160    2.2904   -0.6412 H       1  UNL1        0.0233
     30 H          -6.1778    0.7694   -0.9746 H       1  UNL1        0.0233
     31 H          -4.6214    1.1539   -1.8339 H       1  UNL1        0.0233
     32 H          -4.8620   -0.4988    0.3388 H       1  UNL1        0.0311
     33 H          -4.6777    1.0685    1.1750 H       1  UNL1        0.0311
     34 H          -2.1705   -2.4917   -1.6361 H       1  UNL1        0.0624
     35 H          -3.0892   -4.7209   -1.4384 H       1  UNL1        0.0618
     36 H          -4.3705   -5.3734    0.5299 H       1  UNL1        0.0618
     37 H          -4.7148   -3.7001    2.3386 H       1  UNL1        0.0618
     38 H          -3.7568   -1.3949    2.1603 H       1  UNL1        0.0624
     39 H          -0.5938   -1.0705    1.9704 H       1  UNL1        0.0625
     40 H           1.8645   -1.2819    1.8864 H       1  UNL1        0.0654
     41 H           4.0092    0.2894   -1.7368 H       1  UNL1        0.0709
     42 H           3.9128   -1.4337   -2.0980 H       1  UNL1        0.0709
     43 H           5.7277   -1.9900   -0.6352 H       1  UNL1        0.0460
     44 H           6.2629   -0.8114   -1.8929 H       1  UNL1        0.0460
     45 H           7.5089   -1.1713    1.1602 H       1  UNL1        0.0391
     46 H           8.0189   -0.7850   -0.5292 H       1  UNL1        0.0391
     47 H           8.0036    0.5196    0.7748 H       1  UNL1        0.0391
     48 H           5.4883    1.5300   -1.2317 H       1  UNL1        0.0391
     49 H           5.6702    1.9669    0.5287 H       1  UNL1        0.0391
     50 H           7.0851    1.6927   -0.5100 H       1  UNL1        0.0391
     51 H           1.7749   -0.2266   -2.1886 H       1  UNL1        0.0654
     52 H          -0.6397   -0.0383   -2.1680 H       1  UNL1        0.0625
     53 H          -1.9066    1.7809   -2.1835 H       1  UNL1        0.0624
     54 H          -1.0479    4.0297   -2.3431 H       1  UNL1        0.0618
     55 H          -1.1675    5.5199   -0.3384 H       1  UNL1        0.0618
     56 H          -2.0856    4.7728    1.7648 H       1  UNL1        0.0618
     57 H          -2.9313    2.4711    1.9405 H       1  UNL1        0.0624
@<TRIPOS>BOND
     1     1     2    1
     2     2     3    1
     3     3     4    2
     4     4     5    1
     5     5     6   ar
     6     6     7   ar
     7     7     8   ar
     8     8     9   ar
     9     9    10   ar
    10     4    11    1
    11    11    12   ar
    12    12    13   ar
    13    13    14   ar
    14    14    15    1
    15    15    16    1
    16    16    17    1
    17    17    18    1
    18    18    19    1
    19    18    20    1
    20    14    21   ar
    21    21    22   ar
    22     3    23    1
    23    23    24   ar
    24    24    25   ar
    25    25    26   ar
    26    26    27   ar
    27    27    28   ar
    28    10     5   ar
    29    22    11   ar
    30    28    23   ar
    31     1    29    1
    32     1    30    1
    33     1    31    1
    34     2    32    1
    35     2    33    1
    36     6    34    1
    37     7    35    1
    38     8    36    1
    39     9    37    1
    40    10    38    1
    41    12    39    1
    42    13    40    1
    43    16    41    1
    44    16    42    1
    45    17    43    1
    46    17    44    1
    47    19    45    1
    48    19    46    1
    49    19    47    1
    50    20    48    1
    51    20    49    1
    52    20    50    1
    53    21    51    1
    54    22    52    1
    55    24    53    1
    56    25    54    1
    57    26    55    1
    58    27    56    1
    59    28    57    1
