@<TRIPOS>MOLECULE
*****
 56 59 0 0 0
SMALL
GASTEIGER

@<TRIPOS>ATOM
      1 C          -3.9754    3.7945   -0.4008 C.3     1  UNL1        0.0368
      2 O          -4.1707    2.4270   -0.5389 O.3     1  UNL1       -0.3798
      3 C          -3.0358    1.7419   -0.1099 C.3     1  UNL1        0.0585
      4 C          -3.4428    1.0138    1.1429 C.3     1  UNL1       -0.0249
      5 C          -2.5543   -0.1976    1.3381 C.3     1  UNL1       -0.0315
      6 C          -2.9274   -1.1294    0.2187 C.3     1  UNL1        0.0328
      7 N          -2.4703   -2.4668    0.3645 N.am    1  UNL1       -0.2490
      8 C          -3.3905   -3.5453    0.4805 C.2     1  UNL1        0.2383
      9 O          -4.6171   -3.4015    0.1438 O.2     1  UNL1       -0.2735
     10 C          -2.9792   -4.8783    0.9924 C.3     1  UNL1        0.0876
     11 N          -1.5899   -5.1364    0.6690 N.pl3   1  UNL1       -0.3177
     12 C          -0.6362   -4.0867    0.5568 C.ar    1  UNL1        0.1599
     13 N           0.6865   -4.3148    0.5921 N.ar    1  UNL1       -0.2349
     14 C           1.5431   -3.2614    0.4810 C.ar    1  UNL1        0.0558
     15 C           1.1232   -1.9585    0.3326 C.ar    1  UNL1        0.0927
     16 C           2.0529   -0.8278    0.2116 C.ar    1  UNL1        0.0200
     17 C           3.4161   -0.9381    0.2348 C.ar    1  UNL1       -0.0493
     18 C           4.2623    0.1515    0.1168 C.ar    1  UNL1       -0.0370
     19 C           3.7060    1.4149   -0.0320 C.ar    1  UNL1        0.0722
     20 C           4.5107    2.6443   -0.1665 C.3     1  UNL1        0.1020
     21 C           4.8225    2.9430   -1.6316 C.3     1  UNL1       -0.0307
     22 C           5.8356    2.5526    0.5452 C.3     1  UNL1       -0.0307
     23 O           3.8304    3.7411    0.3586 O.3     1  UNL1       -0.3830
     24 N           2.3807    1.5172   -0.0541 N.ar    1  UNL1       -0.2564
     25 C           1.5442    0.4451    0.0620 C.ar    1  UNL1        0.0372
     26 N          -0.2174   -1.7488    0.2992 N.ar    1  UNL1       -0.2266
     27 C          -1.0818   -2.7710    0.4066 C.ar    1  UNL1        0.1686
     28 C          -2.5618   -0.5494   -1.1082 C.3     1  UNL1       -0.0315
     29 C          -2.4645    0.9102   -1.1881 C.3     1  UNL1       -0.0249
     30 H          -4.8893    4.3330   -0.7465 H       1  UNL1        0.0524
     31 H          -3.0764    4.1616   -0.9451 H       1  UNL1        0.0524
     32 H          -3.7977    4.0165    0.6794 H       1  UNL1        0.0524
     33 H          -2.3048    2.5104    0.2187 H       1  UNL1        0.0596
     34 H          -4.4784    0.6108    0.9560 H       1  UNL1        0.0291
     35 H          -3.4256    1.6971    2.0053 H       1  UNL1        0.0291
     36 H          -2.7951   -0.6758    2.3146 H       1  UNL1        0.0284
     37 H          -1.5089    0.1654    1.3001 H       1  UNL1        0.0284
     38 H          -4.0624   -1.1512    0.2343 H       1  UNL1        0.0505
     39 H          -3.6011   -5.6762    0.5658 H       1  UNL1        0.0558
     40 H          -3.1264   -4.8246    2.1104 H       1  UNL1        0.0558
     41 H          -1.3095   -6.1324    0.5199 H       1  UNL1        0.1481
     42 H           2.6241   -3.4396    0.5089 H       1  UNL1        0.0852
     43 H           3.8725   -1.9039    0.3489 H       1  UNL1        0.0625
     44 H           5.3359    0.0599    0.1356 H       1  UNL1        0.0637
     45 H           4.3322    2.1721   -2.2641 H       1  UNL1        0.0261
     46 H           4.4068    3.9287   -1.9311 H       1  UNL1        0.0261
     47 H           5.8966    2.9173   -1.8468 H       1  UNL1        0.0261
     48 H           5.7386    2.2724    1.6147 H       1  UNL1        0.0261
     49 H           6.3070    3.5559    0.5045 H       1  UNL1        0.0261
     50 H           6.5161    1.8656   -0.0050 H       1  UNL1        0.0261
     51 H           4.5301    4.4259    0.5944 H       1  UNL1        0.2107
     52 H           0.4762    0.5715    0.0386 H       1  UNL1        0.0836
     53 H          -1.6246   -1.0434   -1.4428 H       1  UNL1        0.0284
     54 H          -3.3233   -0.9420   -1.8510 H       1  UNL1        0.0284
     55 H          -1.3792    1.1915   -1.3395 H       1  UNL1        0.0291
     56 H          -2.9327    1.2483   -2.1628 H       1  UNL1        0.0291
@<TRIPOS>BOND
     1     1     2    1
     2     2     3    1
     3     3     4    1
     4     4     5    1
     5     5     6    1
     6     6     7    1
     7     7     8   am
     8     8     9    2
     9     8    10    1
    10    10    11    1
    11    11    12    1
    12    12    13   ar
    13    13    14   ar
    14    14    15   ar
    15    15    16    1
    16    16    17   ar
    17    17    18   ar
    18    18    19   ar
    19    19    20    1
    20    20    21    1
    21    20    22    1
    22    20    23    1
    23    19    24   ar
    24    24    25   ar
    25    15    26   ar
    26    26    27   ar
    27     6    28    1
    28    28    29    1
    29    29     3    1
    30    27     7    1
    31    27    12   ar
    32    25    16   ar
    33     1    30    1
    34     1    31    1
    35     1    32    1
    36     3    33    1
    37     4    34    1
    38     4    35    1
    39     5    36    1
    40     5    37    1
    41     6    38    1
    42    10    39    1
    43    10    40    1
    44    11    41    1
    45    14    42    1
    46    17    43    1
    47    18    44    1
    48    21    45    1
    49    21    46    1
    50    21    47    1
    51    22    48    1
    52    22    49    1
    53    22    50    1
    54    23    51    1
    55    25    52    1
    56    28    53    1
    57    28    54    1
    58    29    55    1
    59    29    56    1
