@<TRIPOS>MOLECULE
*****
 46 50 0 0 0
SMALL
GASTEIGER

@<TRIPOS>ATOM
      1 C           8.4226    1.3105    0.5886 C.3     1  UNL1       -0.0584
      2 C           7.8392    0.5894   -0.6068 C.3     1  UNL1        0.0026
      3 C           6.4267    0.1578   -0.3191 C.ar    1  UNL1        0.1079
      4 N           5.3085    0.8659   -0.5533 N.ar    1  UNL1       -0.2324
      5 C           4.2267    0.1454   -0.1614 C.ar    1  UNL1        0.0911
      6 C           2.8729    0.3688   -0.1660 C.ar    1  UNL1       -0.0087
      7 C           1.9537   -0.5656    0.3088 C.ar    1  UNL1        0.0696
      8 N           0.5617   -0.2875    0.2827 N.ar    1  UNL1       -0.2182
      9 N          -0.0575    0.4436    1.1871 N.ar    1  UNL1       -0.1723
     10 C          -1.3760    0.5272    0.8907 C.ar    1  UNL1        0.0626
     11 C          -1.6092   -0.1778   -0.2462 C.ar    1  UNL1        0.0829
     12 C          -2.7944   -0.4007   -1.0148 C.2     1  UNL1        0.2140
     13 O          -2.7001   -0.9864   -2.1625 O.2     1  UNL1       -0.2849
     14 C          -4.1523   -0.0288   -0.6405 C.ar    1  UNL1        0.0883
     15 C          -5.2447    0.0308   -1.5314 C.ar    1  UNL1       -0.0255
     16 C          -6.3849    0.3797   -0.8612 C.ar    1  UNL1        0.0004
     17 C          -7.6916    0.5727   -1.2505 C.ar    1  UNL1       -0.0526
     18 C          -8.6504    0.9344   -0.3063 C.ar    1  UNL1       -0.0611
     19 C          -8.2893    1.0973    1.0086 C.ar    1  UNL1       -0.0598
     20 C          -6.9783    0.9013    1.3856 C.ar    1  UNL1       -0.0378
     21 C          -6.0167    0.5399    0.4463 C.ar    1  UNL1        0.0470
     22 N          -4.6790    0.2894    0.5498 N.ar    1  UNL1       -0.3516
     23 C          -0.3592   -0.6810   -0.6054 C.ar    1  UNL1        0.1307
     24 N          -0.0633   -1.4915   -1.7328 N.pl3   1  UNL1       -0.3425
     25 C           2.4376   -1.7591    0.8006 C.ar    1  UNL1       -0.0341
     26 C           3.7956   -1.9999    0.8126 C.ar    1  UNL1       -0.0342
     27 C           4.6890   -1.0510    0.3332 C.ar    1  UNL1        0.0663
     28 N           6.0191   -1.0085    0.2224 N.ar    1  UNL1       -0.3418
     29 H           7.8744    0.9507    1.4835 H       1  UNL1        0.0234
     30 H           8.3080    2.4237    0.4765 H       1  UNL1        0.0234
     31 H           9.5068    1.1245    0.7031 H       1  UNL1        0.0234
     32 H           7.8371    1.3009   -1.4676 H       1  UNL1        0.0340
     33 H           8.4678   -0.2635   -0.8970 H       1  UNL1        0.0340
     34 H           2.5209    1.3059   -0.5540 H       1  UNL1        0.0661
     35 H          -2.0691    1.0857    1.4880 H       1  UNL1        0.0856
     36 H          -5.1884   -0.1706   -2.5968 H       1  UNL1        0.0646
     37 H          -7.9863    0.4462   -2.2877 H       1  UNL1        0.0624
     38 H          -9.6470    1.0728   -0.6521 H       1  UNL1        0.0618
     39 H          -9.0088    1.3776    1.7664 H       1  UNL1        0.0618
     40 H          -6.6530    1.0192    2.4087 H       1  UNL1        0.0638
     41 H          -4.1672    0.3371    1.4739 H       1  UNL1        0.1660
     42 H          -0.1906   -2.5184   -1.7257 H       1  UNL1        0.1437
     43 H           0.3008   -1.0301   -2.6130 H       1  UNL1        0.1437
     44 H           1.7170   -2.4754    1.1657 H       1  UNL1        0.0639
     45 H           4.1830   -2.9456    1.2019 H       1  UNL1        0.0639
     46 H           6.6878   -1.7573    0.5057 H       1  UNL1        0.1671
@<TRIPOS>BOND
     1     1     2    1
     2     2     3    1
     3     3     4   ar
     4     4     5   ar
     5     5     6   ar
     6     6     7   ar
     7     7     8    1
     8     8     9   ar
     9     9    10   ar
    10    10    11   ar
    11    11    12    1
    12    12    13    2
    13    12    14    1
    14    14    15   ar
    15    15    16   ar
    16    16    17   ar
    17    17    18   ar
    18    18    19   ar
    19    19    20   ar
    20    20    21   ar
    21    21    22   ar
    22    11    23   ar
    23    23    24    1
    24     7    25   ar
    25    25    26   ar
    26    26    27   ar
    27    27    28   ar
    28    28     3   ar
    29    27     5   ar
    30    23     8   ar
    31    22    14   ar
    32    21    16   ar
    33     1    29    1
    34     1    30    1
    35     1    31    1
    36     2    32    1
    37     2    33    1
    38     6    34    1
    39    10    35    1
    40    15    36    1
    41    17    37    1
    42    18    38    1
    43    19    39    1
    44    20    40    1
    45    22    41    1
    46    24    42    1
    47    24    43    1
    48    25    44    1
    49    26    45    1
    50    28    46    1
