
     RDKit          3D

 46 50  0  0  0  0  0  0  0  0999 V2000
    8.4226    1.3105    0.5886 C   0  0  0  0  0  0  0  0  0  0  0  0
    7.8392    0.5894   -0.6068 C   0  0  0  0  0  0  0  0  0  0  0  0
    6.4267    0.1578   -0.3191 C   0  0  0  0  0  0  0  0  0  0  0  0
    5.3085    0.8659   -0.5533 N   0  0  0  0  0  0  0  0  0  0  0  0
    4.2267    0.1454   -0.1614 C   0  0  0  0  0  0  0  0  0  0  0  0
    2.8729    0.3688   -0.1660 C   0  0  0  0  0  0  0  0  0  0  0  0
    1.9537   -0.5656    0.3088 C   0  0  0  0  0  0  0  0  0  0  0  0
    0.5617   -0.2875    0.2827 N   0  0  0  0  0  0  0  0  0  0  0  0
   -0.0575    0.4436    1.1871 N   0  0  0  0  0  0  0  0  0  0  0  0
   -1.3760    0.5272    0.8907 C   0  0  0  0  0  0  0  0  0  0  0  0
   -1.6092   -0.1778   -0.2462 C   0  0  0  0  0  0  0  0  0  0  0  0
   -2.7944   -0.4007   -1.0148 C   0  0  0  0  0  0  0  0  0  0  0  0
   -2.7001   -0.9864   -2.1625 O   0  0  0  0  0  0  0  0  0  0  0  0
   -4.1523   -0.0288   -0.6405 C   0  0  0  0  0  0  0  0  0  0  0  0
   -5.2447    0.0308   -1.5314 C   0  0  0  0  0  0  0  0  0  0  0  0
   -6.3849    0.3797   -0.8612 C   0  0  0  0  0  0  0  0  0  0  0  0
   -7.6916    0.5727   -1.2505 C   0  0  0  0  0  0  0  0  0  0  0  0
   -8.6504    0.9344   -0.3063 C   0  0  0  0  0  0  0  0  0  0  0  0
   -8.2893    1.0973    1.0086 C   0  0  0  0  0  0  0  0  0  0  0  0
   -6.9783    0.9013    1.3856 C   0  0  0  0  0  0  0  0  0  0  0  0
   -6.0167    0.5399    0.4463 C   0  0  0  0  0  0  0  0  0  0  0  0
   -4.6790    0.2894    0.5498 N   0  0  0  0  0  0  0  0  0  0  0  0
   -0.3592   -0.6810   -0.6054 C   0  0  0  0  0  0  0  0  0  0  0  0
   -0.0633   -1.4915   -1.7328 N   0  0  0  0  0  0  0  0  0  0  0  0
    2.4376   -1.7591    0.8006 C   0  0  0  0  0  0  0  0  0  0  0  0
    3.7956   -1.9999    0.8126 C   0  0  0  0  0  0  0  0  0  0  0  0
    4.6890   -1.0510    0.3332 C   0  0  0  0  0  0  0  0  0  0  0  0
    6.0191   -1.0085    0.2224 N   0  0  0  0  0  0  0  0  0  0  0  0
    7.8744    0.9507    1.4835 H   0  0  0  0  0  0  0  0  0  0  0  0
    8.3080    2.4237    0.4765 H   0  0  0  0  0  0  0  0  0  0  0  0
    9.5068    1.1245    0.7031 H   0  0  0  0  0  0  0  0  0  0  0  0
    7.8371    1.3009   -1.4676 H   0  0  0  0  0  0  0  0  0  0  0  0
    8.4678   -0.2635   -0.8970 H   0  0  0  0  0  0  0  0  0  0  0  0
    2.5209    1.3059   -0.5540 H   0  0  0  0  0  0  0  0  0  0  0  0
   -2.0691    1.0857    1.4880 H   0  0  0  0  0  0  0  0  0  0  0  0
   -5.1884   -0.1706   -2.5968 H   0  0  0  0  0  0  0  0  0  0  0  0
   -7.9863    0.4462   -2.2877 H   0  0  0  0  0  0  0  0  0  0  0  0
   -9.6470    1.0728   -0.6521 H   0  0  0  0  0  0  0  0  0  0  0  0
   -9.0088    1.3776    1.7664 H   0  0  0  0  0  0  0  0  0  0  0  0
   -6.6530    1.0192    2.4087 H   0  0  0  0  0  0  0  0  0  0  0  0
   -4.1672    0.3371    1.4739 H   0  0  0  0  0  0  0  0  0  0  0  0
   -0.1906   -2.5184   -1.7257 H   0  0  0  0  0  0  0  0  0  0  0  0
    0.3008   -1.0301   -2.6130 H   0  0  0  0  0  0  0  0  0  0  0  0
    1.7170   -2.4754    1.1657 H   0  0  0  0  0  0  0  0  0  0  0  0
    4.1830   -2.9456    1.2019 H   0  0  0  0  0  0  0  0  0  0  0  0
    6.6878   -1.7573    0.5057 H   0  0  0  0  0  0  0  0  0  0  0  0
  1  2  1  0
  2  3  1  0
  3  4  2  0
  4  5  1  0
  5  6  2  0
  6  7  1  0
  7  8  1  0
  8  9  1  0
  9 10  2  0
 10 11  1  0
 11 12  1  0
 12 13  2  0
 12 14  1  0
 14 15  2  0
 15 16  1  0
 16 17  2  0
 17 18  1  0
 18 19  2  0
 19 20  1  0
 20 21  2  0
 21 22  1  0
 11 23  2  0
 23 24  1  0
  7 25  2  0
 25 26  1  0
 26 27  2  0
 27 28  1  0
 28  3  1  0
 27  5  1  0
 23  8  1  0
 22 14  1  0
 21 16  1  0
  1 29  1  0
  1 30  1  0
  1 31  1  0
  2 32  1  0
  2 33  1  0
  6 34  1  0
 10 35  1  0
 15 36  1  0
 17 37  1  0
 18 38  1  0
 19 39  1  0
 20 40  1  0
 22 41  1  0
 24 42  1  0
 24 43  1  0
 25 44  1  0
 26 45  1  0
 28 46  1  0
M  END
$$$$
