
     RDKit          3D

 73 77  0  0  0  0  0  0  0  0999 V2000
  -10.0640    0.7684   -1.9118 C   0  0  0  0  0  0  0  0  0  0  0  0
   -9.0953   -0.3271   -2.2895 C   0  0  0  0  0  0  0  0  0  0  0  0
   -8.3535   -0.7990   -1.1236 N   0  0  0  0  0  0  0  0  0  0  0  0
   -7.1915   -0.2582   -0.7377 C   0  0  0  0  0  0  0  0  0  0  0  0
   -6.7339   -0.9136    0.3932 C   0  0  0  0  0  0  0  0  0  0  0  0
   -5.5531   -0.6765    1.1465 N   0  0  0  0  0  0  0  0  0  0  0  0
   -4.6351    0.3380    0.7950 C   0  0  0  0  0  0  0  0  0  0  0  0
   -5.0651    1.6041    0.7327 N   0  0  0  0  0  0  0  0  0  0  0  0
   -4.2629    2.6342    0.4138 C   0  0  0  0  0  0  0  0  0  0  0  0
   -2.9208    2.3315    0.1400 C   0  0  0  0  0  0  0  0  0  0  0  0
   -2.0096    3.4350   -0.2108 C   0  0  0  0  0  0  0  0  0  0  0  0
   -2.4707    1.0361    0.2009 C   0  0  0  0  0  0  0  0  0  0  0  0
   -1.0893    0.7193   -0.0723 C   0  0  0  0  0  0  0  0  0  0  0  0
   -0.3434    1.0145   -1.1972 C   0  0  0  0  0  0  0  0  0  0  0  0
    0.9145    0.5498   -1.0788 N   0  0  0  0  0  0  0  0  0  0  0  0
    1.0140   -0.0602    0.1300 C   0  0  0  0  0  0  0  0  0  0  0  0
    2.0927   -0.7073    0.7455 C   0  0  0  0  0  0  0  0  0  0  0  0
    3.3307   -0.7762    0.0537 N   0  0  0  0  0  0  0  0  0  0  0  0
    4.3746    0.1774    0.1759 C   0  0  0  0  0  0  0  0  0  0  0  0
    4.1448    1.1415    0.9770 O   0  0  0  0  0  0  0  0  0  0  0  0
    5.6600    0.0667   -0.5812 C   0  0  1  0  0  0  0  0  0  0  0  0
    5.3924    0.0049   -2.0357 C   0  0  0  0  0  0  0  0  0  0  0  0
    6.4850    1.1814   -0.1737 N   0  0  0  0  0  0  0  0  0  0  0  0
    7.7267    1.2782   -0.9014 C   0  0  0  0  0  0  0  0  0  0  0  0
    8.4783   -0.0403   -0.9539 C   0  0  0  0  0  0  0  0  0  0  0  0
    8.8272   -0.3709    0.3889 N   0  0  0  0  0  0  0  0  0  0  0  0
    8.9245   -1.7548    0.6994 C   0  0  0  0  0  0  0  0  0  0  0  0
    8.2749    0.4741    1.3933 C   0  0  0  0  0  0  0  0  0  0  0  0
    6.8580    0.8884    1.2146 C   0  0  0  0  0  0  0  0  0  0  0  0
    1.9082   -1.2485    1.9975 C   0  0  0  0  0  0  0  0  0  0  0  0
    0.6854   -1.1673    2.6591 C   0  0  0  0  0  0  0  0  0  0  0  0
   -0.3558   -0.5198    2.0172 C   0  0  0  0  0  0  0  0  0  0  0  0
   -0.2130    0.0350    0.7644 C   0  0  0  0  0  0  0  0  0  0  0  0
   -3.3606    0.0771    0.5311 N   0  0  0  0  0  0  0  0  0  0  0  0
   -7.6828   -1.8781    0.6670 C   0  0  0  0  0  0  0  0  0  0  0  0
   -7.6193   -2.7706    1.7269 O   0  0  0  0  0  0  0  0  0  0  0  0
   -8.6600   -3.7147    1.8968 C   0  0  0  0  0  0  0  0  0  0  0  0
   -8.6352   -1.7655   -0.2756 N   0  0  0  0  0  0  0  0  0  0  0  0
  -10.8587    0.3342   -1.2775 H   0  0  0  0  0  0  0  0  0  0  0  0
  -10.4580    1.2063   -2.8545 H   0  0  0  0  0  0  0  0  0  0  0  0
   -9.4677    1.5437   -1.3614 H   0  0  0  0  0  0  0  0  0  0  0  0
   -9.6455   -1.1838   -2.7009 H   0  0  0  0  0  0  0  0  0  0  0  0
   -8.3793    0.0237   -3.0602 H   0  0  0  0  0  0  0  0  0  0  0  0
   -6.6505    0.5590   -1.1944 H   0  0  0  0  0  0  0  0  0  0  0  0
   -5.3540   -1.2617    1.9789 H   0  0  0  0  0  0  0  0  0  0  0  0
   -4.6448    3.6474    0.3727 H   0  0  0  0  0  0  0  0  0  0  0  0
   -1.8422    3.4575   -1.3047 H   0  0  0  0  0  0  0  0  0  0  0  0
   -2.4716    4.4300    0.0242 H   0  0  0  0  0  0  0  0  0  0  0  0
   -1.0720    3.2805    0.3529 H   0  0  0  0  0  0  0  0  0  0  0  0
   -0.6629    1.5397   -2.0859 H   0  0  0  0  0  0  0  0  0  0  0  0
    1.6993    0.6123   -1.7435 H   0  0  0  0  0  0  0  0  0  0  0  0
    3.5178   -1.5791   -0.6038 H   0  0  0  0  0  0  0  0  0  0  0  0
    6.1519   -0.8467   -0.2209 H   0  0  0  0  0  0  0  0  0  0  0  0
    5.6316   -1.0084   -2.4197 H   0  0  0  0  0  0  0  0  0  0  0  0
    5.9715    0.7114   -2.6517 H   0  0  0  0  0  0  0  0  0  0  0  0
    4.3128    0.1622   -2.2600 H   0  0  0  0  0  0  0  0  0  0  0  0
    7.6111    1.7271   -1.9073 H   0  0  0  0  0  0  0  0  0  0  0  0
    8.3727    1.9828   -0.3276 H   0  0  0  0  0  0  0  0  0  0  0  0
    7.9255   -0.8266   -1.4887 H   0  0  0  0  0  0  0  0  0  0  0  0
    9.4127    0.1683   -1.5209 H   0  0  0  0  0  0  0  0  0  0  0  0
    8.8820   -1.9353    1.7736 H   0  0  0  0  0  0  0  0  0  0  0  0
    9.9082   -2.1195    0.3159 H   0  0  0  0  0  0  0  0  0  0  0  0
    8.1159   -2.3311    0.1620 H   0  0  0  0  0  0  0  0  0  0  0  0
    8.3234   -0.1177    2.3569 H   0  0  0  0  0  0  0  0  0  0  0  0
    8.9517    1.3521    1.6266 H   0  0  0  0  0  0  0  0  0  0  0  0
    6.6952    1.8432    1.7604 H   0  0  0  0  0  0  0  0  0  0  0  0
    6.1955    0.1458    1.6762 H   0  0  0  0  0  0  0  0  0  0  0  0
    2.7457   -1.7433    2.4578 H   0  0  0  0  0  0  0  0  0  0  0  0
    0.5173   -1.5776    3.6285 H   0  0  0  0  0  0  0  0  0  0  0  0
   -1.3190   -0.4336    2.4932 H   0  0  0  0  0  0  0  0  0  0  0  0
   -8.8307   -4.3370    1.0176 H   0  0  0  0  0  0  0  0  0  0  0  0
   -8.4749   -4.3411    2.7858 H   0  0  0  0  0  0  0  0  0  0  0  0
   -9.5869   -3.0915    2.0649 H   0  0  0  0  0  0  0  0  0  0  0  0
  1  2  1  0
  2  3  1  0
  3  4  1  0
  4  5  2  0
  5  6  1  0
  6  7  1  0
  7  8  2  0
  8  9  1  0
  9 10  2  0
 10 11  1  0
 10 12  1  0
 12 13  1  0
 13 14  2  0
 14 15  1  0
 15 16  1  0
 16 17  2  0
 17 18  1  0
 18 19  1  0
 19 20  2  0
 19 21  1  0
 21 22  1  0
 21 23  1  0
 23 24  1  0
 24 25  1  0
 25 26  1  0
 26 27  1  0
 26 28  1  0
 28 29  1  0
 17 30  1  0
 30 31  2  0
 31 32  1  0
 32 33  2  0
 12 34  2  0
  5 35  1  0
 35 36  1  0
 36 37  1  0
 35 38  2  0
 38  3  1  0
 34  7  1  0
 33 13  1  0
 33 16  1  0
 29 23  1  0
  1 39  1  0
  1 40  1  0
  1 41  1  0
  2 42  1  0
  2 43  1  0
  4 44  1  0
  6 45  1  0
  9 46  1  0
 11 47  1  0
 11 48  1  0
 11 49  1  0
 14 50  1  0
 15 51  1  0
 18 52  1  0
 21 53  1  1
 22 54  1  0
 22 55  1  0
 22 56  1  0
 24 57  1  0
 24 58  1  0
 25 59  1  0
 25 60  1  0
 27 61  1  0
 27 62  1  0
 27 63  1  0
 28 64  1  0
 28 65  1  0
 29 66  1  0
 29 67  1  0
 30 68  1  0
 31 69  1  0
 32 70  1  0
 37 71  1  0
 37 72  1  0
 37 73  1  0
M  END
$$$$
