@<TRIPOS>MOLECULE
*****
 73 77 0 0 0
SMALL
GASTEIGER

@<TRIPOS>ATOM
      1 C         -10.0640    0.7684   -1.9118 C.3     1  UNL1       -0.0455
      2 C          -9.0953   -0.3271   -2.2895 C.3     1  UNL1        0.0389
      3 N          -8.3535   -0.7990   -1.1236 N.ar    1  UNL1       -0.2664
      4 C          -7.1915   -0.2582   -0.7377 C.ar    1  UNL1        0.0506
      5 C          -6.7339   -0.9136    0.3932 C.ar    1  UNL1        0.1152
      6 N          -5.5531   -0.6765    1.1465 N.pl3   1  UNL1       -0.2782
      7 C          -4.6351    0.3380    0.7950 C.ar    1  UNL1        0.2202
      8 N          -5.0651    1.6041    0.7327 N.ar    1  UNL1       -0.2224
      9 C          -4.2629    2.6342    0.4138 C.ar    1  UNL1        0.0361
     10 C          -2.9208    2.3315    0.1400 C.ar    1  UNL1       -0.0062
     11 C          -2.0096    3.4350   -0.2108 C.3     1  UNL1       -0.0362
     12 C          -2.4707    1.0361    0.2009 C.ar    1  UNL1        0.0809
     13 C          -1.0893    0.7193   -0.0723 C.ar    1  UNL1        0.0258
     14 C          -0.3434    1.0145   -1.1972 C.ar    1  UNL1        0.0120
     15 N           0.9145    0.5498   -1.0788 N.ar    1  UNL1       -0.3586
     16 C           1.0140   -0.0602    0.1300 C.ar    1  UNL1        0.0686
     17 C           2.0927   -0.7073    0.7455 C.ar    1  UNL1        0.0576
     18 N           3.3307   -0.7762    0.0537 N.am    1  UNL1       -0.2825
     19 C           4.3746    0.1774    0.1759 C.2     1  UNL1        0.2342
     20 O           4.1448    1.1415    0.9770 O.2     1  UNL1       -0.2738
     21 C           5.6600    0.0667   -0.5812 C.3     1  UNL1        0.0848
     22 C           5.3924    0.0049   -2.0357 C.3     1  UNL1       -0.0409
     23 N           6.4850    1.1814   -0.1737 N.3     1  UNL1       -0.2893
     24 C           7.7267    1.2782   -0.9014 C.3     1  UNL1        0.0124
     25 C           8.4783   -0.0403   -0.9539 C.3     1  UNL1        0.0114
     26 N           8.8272   -0.3709    0.3889 N.3     1  UNL1       -0.3029
     27 C           8.9245   -1.7548    0.6994 C.3     1  UNL1       -0.0127
     28 C           8.2749    0.4741    1.3933 C.3     1  UNL1        0.0114
     29 C           6.8580    0.8884    1.2146 C.3     1  UNL1        0.0124
     30 C           1.9082   -1.2485    1.9975 C.ar    1  UNL1       -0.0384
     31 C           0.6854   -1.1673    2.6591 C.ar    1  UNL1       -0.0593
     32 C          -0.3558   -0.5198    2.0172 C.ar    1  UNL1       -0.0518
     33 C          -0.2130    0.0350    0.7644 C.ar    1  UNL1        0.0107
     34 N          -3.3606    0.0771    0.5311 N.ar    1  UNL1       -0.2139
     35 C          -7.6828   -1.8781    0.6670 C.ar    1  UNL1        0.2552
     36 O          -7.6193   -2.7706    1.7269 O.3     1  UNL1       -0.4774
     37 C          -8.6600   -3.7147    1.8968 C.3     1  UNL1        0.0805
     38 N          -8.6352   -1.7655   -0.2756 N.ar    1  UNL1       -0.1315
     39 H         -10.8587    0.3342   -1.2775 H       1  UNL1        0.0247
     40 H         -10.4580    1.2063   -2.8545 H       1  UNL1        0.0247
     41 H          -9.4677    1.5437   -1.3614 H       1  UNL1        0.0247
     42 H          -9.6455   -1.1838   -2.7009 H       1  UNL1        0.0506
     43 H          -8.3793    0.0237   -3.0602 H       1  UNL1        0.0506
     44 H          -6.6505    0.5590   -1.1944 H       1  UNL1        0.0846
     45 H          -5.3540   -1.2617    1.9789 H       1  UNL1        0.1552
     46 H          -4.6448    3.6474    0.3727 H       1  UNL1        0.0834
     47 H          -1.8422    3.4575   -1.3047 H       1  UNL1        0.0279
     48 H          -2.4716    4.4300    0.0242 H       1  UNL1        0.0279
     49 H          -1.0720    3.2805    0.3529 H       1  UNL1        0.0279
     50 H          -0.6629    1.5397   -2.0859 H       1  UNL1        0.0814
     51 H           1.6993    0.6123   -1.7435 H       1  UNL1        0.1654
     52 H           3.5178   -1.5791   -0.6038 H       1  UNL1        0.1549
     53 H           6.1519   -0.8467   -0.2209 H       1  UNL1        0.0556
     54 H           5.6316   -1.0084   -2.4197 H       1  UNL1        0.0249
     55 H           5.9715    0.7114   -2.6517 H       1  UNL1        0.0249
     56 H           4.3128    0.1622   -2.2600 H       1  UNL1        0.0249
     57 H           7.6111    1.7271   -1.9073 H       1  UNL1        0.0439
     58 H           8.3727    1.9828   -0.3276 H       1  UNL1        0.0439
     59 H           7.9255   -0.8266   -1.4887 H       1  UNL1        0.0439
     60 H           9.4127    0.1683   -1.5209 H       1  UNL1        0.0439
     61 H           8.8820   -1.9353    1.7736 H       1  UNL1        0.0391
     62 H           9.9082   -2.1195    0.3159 H       1  UNL1        0.0391
     63 H           8.1159   -2.3311    0.1620 H       1  UNL1        0.0391
     64 H           8.3234   -0.1177    2.3569 H       1  UNL1        0.0439
     65 H           8.9517    1.3521    1.6266 H       1  UNL1        0.0439
     66 H           6.6952    1.8432    1.7604 H       1  UNL1        0.0439
     67 H           6.1955    0.1458    1.6762 H       1  UNL1        0.0439
     68 H           2.7457   -1.7433    2.4578 H       1  UNL1        0.0637
     69 H           0.5173   -1.5776    3.6285 H       1  UNL1        0.0618
     70 H          -1.3190   -0.4336    2.4932 H       1  UNL1        0.0624
     71 H          -8.8307   -4.3370    1.0176 H       1  UNL1        0.0660
     72 H          -8.4749   -4.3411    2.7858 H       1  UNL1        0.0660
     73 H          -9.5869   -3.0915    2.0649 H       1  UNL1        0.0660
@<TRIPOS>BOND
     1     1     2    1
     2     2     3    1
     3     3     4   ar
     4     4     5   ar
     5     5     6    1
     6     6     7    1
     7     7     8   ar
     8     8     9   ar
     9     9    10   ar
    10    10    11    1
    11    10    12   ar
    12    12    13    1
    13    13    14   ar
    14    14    15   ar
    15    15    16   ar
    16    16    17   ar
    17    17    18    1
    18    18    19   am
    19    19    20    2
    20    19    21    1
    21    21    22    1
    22    21    23    1
    23    23    24    1
    24    24    25    1
    25    25    26    1
    26    26    27    1
    27    26    28    1
    28    28    29    1
    29    17    30   ar
    30    30    31   ar
    31    31    32   ar
    32    32    33   ar
    33    12    34   ar
    34     5    35   ar
    35    35    36    1
    36    36    37    1
    37    35    38   ar
    38    38     3   ar
    39    34     7   ar
    40    33    13   ar
    41    33    16   ar
    42    29    23    1
    43     1    39    1
    44     1    40    1
    45     1    41    1
    46     2    42    1
    47     2    43    1
    48     4    44    1
    49     6    45    1
    50     9    46    1
    51    11    47    1
    52    11    48    1
    53    11    49    1
    54    14    50    1
    55    15    51    1
    56    18    52    1
    57    21    53    1
    58    22    54    1
    59    22    55    1
    60    22    56    1
    61    24    57    1
    62    24    58    1
    63    25    59    1
    64    25    60    1
    65    27    61    1
    66    27    62    1
    67    27    63    1
    68    28    64    1
    69    28    65    1
    70    29    66    1
    71    29    67    1
    72    30    68    1
    73    31    69    1
    74    32    70    1
    75    37    71    1
    76    37    72    1
    77    37    73    1
