
     RDKit          3D

 45 47  0  0  0  0  0  0  0  0999 V2000
    3.3215   -1.4743   -0.9980 C   0  0  0  0  0  0  0  0  0  0  0  0
    3.8898   -0.1577   -0.5250 C   0  0  0  0  0  0  0  0  0  0  0  0
    4.3810   -0.3723    0.8956 C   0  0  0  0  0  0  0  0  0  0  0  0
    2.8640    0.9376   -0.5724 C   0  0  0  0  0  0  0  0  0  0  0  0
    1.7065    0.5795    0.3132 C   0  0  1  0  0  0  0  0  0  0  0  0
    0.6528    1.6422    0.3065 C   0  0  0  0  0  0  0  0  0  0  0  0
   -0.6714    1.0573    0.8238 C   0  0  1  0  0  0  0  0  0  0  0  0
   -1.4182    2.2187    1.3237 C   0  0  0  0  0  0  0  0  0  0  0  0
   -1.9783    3.2110   -0.0838 S   0  0  0  0  0  0  0  0  0  0  0  0
   -2.3156    1.9999   -1.3674 C   0  0  0  0  0  0  0  0  0  0  0  0
   -3.0218    2.4450   -2.5009 N   0  0  0  0  0  0  0  0  0  0  0  0
   -1.9526    0.7950   -1.2938 N   0  0  0  0  0  0  0  0  0  0  0  0
   -1.2265    0.1704   -0.2154 C   0  0  2  0  0  0  0  0  0  0  0  0
   -2.0840   -0.9411    0.2706 C   0  0  0  0  0  0  0  0  0  0  0  0
   -1.5934   -2.2271    0.2871 C   0  0  0  0  0  0  0  0  0  0  0  0
   -2.4330   -3.2215    0.7817 C   0  0  0  0  0  0  0  0  0  0  0  0
   -3.7031   -2.9217    1.2350 C   0  0  0  0  0  0  0  0  0  0  0  0
   -4.4978   -3.9101    1.7111 F   0  0  0  0  0  0  0  0  0  0  0  0
   -4.1560   -1.6090    1.1992 C   0  0  0  0  0  0  0  0  0  0  0  0
   -3.3440   -0.6062    0.7137 C   0  0  0  0  0  0  0  0  0  0  0  0
   -3.8765    0.6374    0.7043 F   0  0  0  0  0  0  0  0  0  0  0  0
    0.0262   -0.3819   -0.9240 C   0  0  0  0  0  0  0  0  0  0  0  0
    1.0850   -0.6009   -0.0520 O   0  0  0  0  0  0  0  0  0  0  0  0
    4.2124   -2.0698   -1.3605 H   0  0  0  0  0  0  0  0  0  0  0  0
    2.5934   -1.3660   -1.8206 H   0  0  0  0  0  0  0  0  0  0  0  0
    2.9147   -2.0422   -0.1209 H   0  0  0  0  0  0  0  0  0  0  0  0
    4.7900    0.0973   -1.1307 H   0  0  0  0  0  0  0  0  0  0  0  0
    5.4374   -0.7053    0.8748 H   0  0  0  0  0  0  0  0  0  0  0  0
    3.8085   -1.1910    1.3806 H   0  0  0  0  0  0  0  0  0  0  0  0
    4.3577    0.5743    1.4887 H   0  0  0  0  0  0  0  0  0  0  0  0
    3.3329    1.8817   -0.2683 H   0  0  0  0  0  0  0  0  0  0  0  0
    2.5681    1.0596   -1.6355 H   0  0  0  0  0  0  0  0  0  0  0  0
    2.0811    0.4860    1.3522 H   0  0  0  0  0  0  0  0  0  0  0  0
    0.5486    2.0629   -0.6874 H   0  0  0  0  0  0  0  0  0  0  0  0
    0.9542    2.4953    0.9764 H   0  0  0  0  0  0  0  0  0  0  0  0
   -0.3361    0.3893    1.6693 H   0  0  0  0  0  0  0  0  0  0  0  0
   -2.1634    2.0668    2.1146 H   0  0  0  0  0  0  0  0  0  0  0  0
   -0.6518    2.8893    1.8351 H   0  0  0  0  0  0  0  0  0  0  0  0
   -2.5009    2.7905   -3.3252 H   0  0  0  0  0  0  0  0  0  0  0  0
   -4.0558    2.4346   -2.5289 H   0  0  0  0  0  0  0  0  0  0  0  0
   -0.6097   -2.5242   -0.0442 H   0  0  0  0  0  0  0  0  0  0  0  0
   -2.0501   -4.2441    0.7974 H   0  0  0  0  0  0  0  0  0  0  0  0
   -5.1578   -1.4312    1.5665 H   0  0  0  0  0  0  0  0  0  0  0  0
   -0.1131   -1.2924   -1.4709 H   0  0  0  0  0  0  0  0  0  0  0  0
    0.3851    0.3685   -1.6954 H   0  0  0  0  0  0  0  0  0  0  0  0
  1  2  1  0
  2  3  1  0
  2  4  1  0
  4  5  1  0
  5  6  1  0
  6  7  1  0
  7  8  1  0
  8  9  1  0
  9 10  1  0
 10 11  1  0
 10 12  2  0
 12 13  1  0
 13 14  1  1
 14 15  2  0
 15 16  1  0
 16 17  2  0
 17 18  1  0
 17 19  1  0
 19 20  2  0
 20 21  1  0
 13 22  1  0
 22 23  1  0
 23  5  1  0
 13  7  1  0
 20 14  1  0
  1 24  1  0
  1 25  1  0
  1 26  1  0
  2 27  1  0
  3 28  1  0
  3 29  1  0
  3 30  1  0
  4 31  1  0
  4 32  1  0
  5 33  1  1
  6 34  1  0
  6 35  1  0
  7 36  1  1
  8 37  1  0
  8 38  1  0
 11 39  1  0
 11 40  1  0
 15 41  1  0
 16 42  1  0
 19 43  1  0
 22 44  1  0
 22 45  1  0
M  END
$$$$
