@<TRIPOS>MOLECULE
*****
 45 47 0 0 0
SMALL
GASTEIGER

@<TRIPOS>ATOM
      1 C           3.3215   -1.4743   -0.9980 C.3     1  UNL1       -0.0626
      2 C           3.8898   -0.1577   -0.5250 C.3     1  UNL1       -0.0444
      3 C           4.3810   -0.3723    0.8956 C.3     1  UNL1       -0.0626
      4 C           2.8640    0.9376   -0.5724 C.3     1  UNL1       -0.0242
      5 C           1.7065    0.5795    0.3132 C.3     1  UNL1        0.0594
      6 C           0.6528    1.6422    0.3065 C.3     1  UNL1       -0.0204
      7 C          -0.6714    1.0573    0.8238 C.3     1  UNL1        0.0024
      8 C          -1.4182    2.2187    1.3237 C.3     1  UNL1        0.0064
      9 S          -1.9783    3.2110   -0.0838 S.3     1  UNL1       -0.0907
     10 C          -2.3156    1.9999   -1.3674 C.2     1  UNL1        0.1476
     11 N          -3.0218    2.4450   -2.5009 N.pl3   1  UNL1       -0.3380
     12 N          -1.9526    0.7950   -1.2938 N.2     1  UNL1       -0.2495
     13 C          -1.2265    0.1704   -0.2154 C.3     1  UNL1        0.1185
     14 C          -2.0840   -0.9411    0.2706 C.ar    1  UNL1        0.0178
     15 C          -1.5934   -2.2271    0.2871 C.ar    1  UNL1       -0.0507
     16 C          -2.4330   -3.2215    0.7817 C.ar    1  UNL1       -0.0259
     17 C          -3.7031   -2.9217    1.2350 C.ar    1  UNL1        0.1261
     18 F          -4.4978   -3.9101    1.7111 F       1  UNL1       -0.2054
     19 C          -4.1560   -1.6090    1.1992 C.ar    1  UNL1        0.0091
     20 C          -3.3440   -0.6062    0.7137 C.ar    1  UNL1        0.1317
     21 F          -3.8765    0.6374    0.7043 F       1  UNL1       -0.2050
     22 C           0.0262   -0.3819   -0.9240 C.3     1  UNL1        0.0777
     23 O           1.0850   -0.6009   -0.0520 O.3     1  UNL1       -0.3738
     24 H           4.2124   -2.0698   -1.3605 H       1  UNL1        0.0232
     25 H           2.5934   -1.3660   -1.8206 H       1  UNL1        0.0232
     26 H           2.9147   -2.0422   -0.1209 H       1  UNL1        0.0232
     27 H           4.7900    0.0973   -1.1307 H       1  UNL1        0.0296
     28 H           5.4374   -0.7053    0.8748 H       1  UNL1        0.0232
     29 H           3.8085   -1.1910    1.3806 H       1  UNL1        0.0232
     30 H           4.3577    0.5743    1.4887 H       1  UNL1        0.0232
     31 H           3.3329    1.8817   -0.2683 H       1  UNL1        0.0293
     32 H           2.5681    1.0596   -1.6355 H       1  UNL1        0.0293
     33 H           2.0811    0.4860    1.3522 H       1  UNL1        0.0596
     34 H           0.5486    2.0629   -0.6874 H       1  UNL1        0.0294
     35 H           0.9542    2.4953    0.9764 H       1  UNL1        0.0294
     36 H          -0.3361    0.3893    1.6693 H       1  UNL1        0.0337
     37 H          -2.1634    2.0668    2.1146 H       1  UNL1        0.0384
     38 H          -0.6518    2.8893    1.8351 H       1  UNL1        0.0384
     39 H          -2.5009    2.7905   -3.3252 H       1  UNL1        0.1442
     40 H          -4.0558    2.4346   -2.5289 H       1  UNL1        0.1442
     41 H          -0.6097   -2.5242   -0.0442 H       1  UNL1        0.0623
     42 H          -2.0501   -4.2441    0.7974 H       1  UNL1        0.0646
     43 H          -5.1578   -1.4312    1.5665 H       1  UNL1        0.0675
     44 H          -0.1131   -1.2924   -1.4709 H       1  UNL1        0.0587
     45 H           0.3851    0.3685   -1.6954 H       1  UNL1        0.0587
@<TRIPOS>BOND
     1     1     2    1
     2     2     3    1
     3     2     4    1
     4     4     5    1
     5     5     6    1
     6     6     7    1
     7     7     8    1
     8     8     9    1
     9     9    10    1
    10    10    11    1
    11    10    12    2
    12    12    13    1
    13    13    14    1
    14    14    15   ar
    15    15    16   ar
    16    16    17   ar
    17    17    18    1
    18    17    19   ar
    19    19    20   ar
    20    20    21    1
    21    13    22    1
    22    22    23    1
    23    23     5    1
    24    13     7    1
    25    20    14   ar
    26     1    24    1
    27     1    25    1
    28     1    26    1
    29     2    27    1
    30     3    28    1
    31     3    29    1
    32     3    30    1
    33     4    31    1
    34     4    32    1
    35     5    33    1
    36     6    34    1
    37     6    35    1
    38     7    36    1
    39     8    37    1
    40     8    38    1
    41    11    39    1
    42    11    40    1
    43    15    41    1
    44    16    42    1
    45    19    43    1
    46    22    44    1
    47    22    45    1
