@<TRIPOS>MOLECULE
*****
 49 51 0 0 0
SMALL
GASTEIGER

@<TRIPOS>ATOM
      1 C           8.3988    0.7622    0.6754 C.3     1  UNL1        0.0790
      2 O           7.2660   -0.0916    0.6849 O.3     1  UNL1       -0.4913
      3 C           5.9896    0.4400    0.5240 C.ar    1  UNL1        0.1650
      4 C           5.7673    1.7801    0.3527 C.ar    1  UNL1        0.0259
      5 C           4.4966    2.2822    0.1957 C.ar    1  UNL1        0.1313
      6 O           4.3129    3.6581    0.0233 O.3     1  UNL1       -0.5059
      7 C           3.3494    1.4655    0.1998 C.ar    1  UNL1        0.0667
      8 C           2.0794    2.1081    0.0267 C.2     1  UNL1        0.1897
      9 O           2.1110    3.4326   -0.1228 O.2     1  UNL1       -0.2872
     10 C           0.7347    1.6367   -0.0243 C.2     1  UNL1       -0.0137
     11 C           0.1828    0.4747    0.0659 C.2     1  UNL1       -0.0510
     12 C          -1.2669    0.1969   -0.0156 C.ar    1  UNL1       -0.0248
     13 C          -2.2020    1.1654   -0.1999 C.ar    1  UNL1       -0.0528
     14 C          -3.5655    0.8162   -0.2665 C.ar    1  UNL1       -0.0401
     15 C          -4.0060   -0.4818   -0.1521 C.ar    1  UNL1        0.0297
     16 N          -5.3783   -0.7817   -0.2254 N.pl3   1  UNL1       -0.3299
     17 C          -6.4505    0.1434   -0.4299 C.3     1  UNL1        0.0122
     18 C          -7.2714   -0.5926   -1.5007 C.3     1  UNL1       -0.0358
     19 C          -7.1738   -2.0036   -1.0052 C.3     1  UNL1       -0.0358
     20 C          -5.9694   -2.0831   -0.1049 C.3     1  UNL1        0.0122
     21 C          -3.0411   -1.4716    0.0370 C.ar    1  UNL1       -0.0401
     22 C          -1.7229   -1.1080    0.0984 C.ar    1  UNL1       -0.0528
     23 C           3.5903    0.1422    0.3707 C.ar    1  UNL1       -0.0020
     24 C           4.8920   -0.3746    0.5318 C.ar    1  UNL1        0.1624
     25 O           5.0596   -1.7298    0.7006 O.3     1  UNL1       -0.4914
     26 C           3.9517   -2.5985    0.7138 C.3     1  UNL1        0.0790
     27 H           8.4321    1.4135    1.5519 H       1  UNL1        0.0660
     28 H           9.3166    0.1477    0.5412 H       1  UNL1        0.0660
     29 H           8.2930    1.4136   -0.2390 H       1  UNL1        0.0660
     30 H           6.6322    2.4459    0.3439 H       1  UNL1        0.0692
     31 H           4.4275    4.3272    0.7484 H       1  UNL1        0.2922
     32 H          -0.0478    2.4471   -0.1786 H       1  UNL1        0.0656
     33 H           0.8159   -0.3735    0.2127 H       1  UNL1        0.0625
     34 H          -1.9261    2.2110   -0.2983 H       1  UNL1        0.0624
     35 H          -4.2474    1.6555   -0.4151 H       1  UNL1        0.0636
     36 H          -7.0718    0.2628    0.4873 H       1  UNL1        0.0464
     37 H          -6.1395    1.1197   -0.8441 H       1  UNL1        0.0464
     38 H          -8.3060   -0.2066   -1.5246 H       1  UNL1        0.0281
     39 H          -6.7278   -0.4631   -2.4586 H       1  UNL1        0.0281
     40 H          -8.1145   -2.2436   -0.4813 H       1  UNL1        0.0281
     41 H          -7.1074   -2.7026   -1.8661 H       1  UNL1        0.0281
     42 H          -5.2883   -2.9164   -0.3869 H       1  UNL1        0.0464
     43 H          -6.3626   -2.2525    0.9406 H       1  UNL1        0.0464
     44 H          -3.3737   -2.4952    0.1290 H       1  UNL1        0.0636
     45 H          -0.9723   -1.8802    0.2457 H       1  UNL1        0.0624
     46 H           2.7765   -0.5559    0.3872 H       1  UNL1        0.0663
     47 H           3.3064   -2.4815   -0.2004 H       1  UNL1        0.0660
     48 H           3.2710   -2.4073    1.5829 H       1  UNL1        0.0660
     49 H           4.2796   -3.6527    0.7858 H       1  UNL1        0.0660
@<TRIPOS>BOND
     1     1     2    1
     2     2     3    1
     3     3     4   ar
     4     4     5   ar
     5     5     6    1
     6     5     7   ar
     7     7     8    1
     8     8     9    2
     9     8    10    1
    10    10    11    2
    11    11    12    1
    12    12    13   ar
    13    13    14   ar
    14    14    15   ar
    15    15    16    1
    16    16    17    1
    17    17    18    1
    18    18    19    1
    19    19    20    1
    20    15    21   ar
    21    21    22   ar
    22     7    23   ar
    23    23    24   ar
    24    24    25    1
    25    25    26    1
    26    24     3   ar
    27    22    12   ar
    28    20    16    1
    29     1    27    1
    30     1    28    1
    31     1    29    1
    32     4    30    1
    33     6    31    1
    34    10    32    1
    35    11    33    1
    36    13    34    1
    37    14    35    1
    38    17    36    1
    39    17    37    1
    40    18    38    1
    41    18    39    1
    42    19    40    1
    43    19    41    1
    44    20    42    1
    45    20    43    1
    46    21    44    1
    47    22    45    1
    48    23    46    1
    49    26    47    1
    50    26    48    1
    51    26    49    1
