
     RDKit          3D

 41 45  0  0  0  0  0  0  0  0999 V2000
   -4.3696    2.8269    1.2391 C   0  0  0  0  0  0  0  0  0  0  0  0
   -4.2611    2.5083   -0.0891 C   0  0  0  0  0  0  0  0  0  0  0  0
   -3.7812    1.2603   -0.4883 C   0  0  0  0  0  0  0  0  0  0  0  0
   -3.4007    0.3071    0.4332 C   0  0  0  0  0  0  0  0  0  0  0  0
   -2.9203   -1.0029    0.0605 C   0  0  0  0  0  0  0  0  0  0  0  0
   -3.7929   -2.0486   -0.0992 N   0  0  0  0  0  0  0  0  0  0  0  0
   -3.1740   -3.1341   -0.4322 N   0  0  0  0  0  0  0  0  0  0  0  0
   -1.8477   -2.8079   -0.4978 C   0  0  0  0  0  0  0  0  0  0  0  0
   -1.7202   -1.5071   -0.1942 N   0  0  0  0  0  0  0  0  0  0  0  0
   -0.4349   -0.8785   -0.1834 C   0  0  0  0  0  0  0  0  0  0  0  0
   -0.2897    0.4545    0.1289 C   0  0  0  0  0  0  0  0  0  0  0  0
    0.9781    1.0087    0.1257 C   0  0  0  0  0  0  0  0  0  0  0  0
    2.0963    0.2706   -0.1790 C   0  0  0  0  0  0  0  0  0  0  0  0
    3.4366    0.8526   -0.1826 C   0  0  0  0  0  0  0  0  0  0  0  0
    4.4494    0.4260   -1.0144 C   0  0  0  0  0  0  0  0  0  0  0  0
    5.7085    1.0190   -0.9730 C   0  0  0  0  0  0  0  0  0  0  0  0
    5.9746    2.0500   -0.0969 C   0  0  0  0  0  0  0  0  0  0  0  0
    4.9696    2.4541    0.7101 N   0  0  0  0  0  0  0  0  0  0  0  0
    3.7442    1.8889    0.6812 C   0  0  0  0  0  0  0  0  0  0  0  0
    1.9308   -1.0652   -0.4898 C   0  0  0  0  0  0  0  0  0  0  0  0
    0.6533   -1.6527   -0.4939 C   0  0  0  0  0  0  0  0  0  0  0  0
    0.5638   -3.0708   -0.8356 C   0  0  0  0  0  0  0  0  0  0  0  0
   -0.7537   -3.7203   -0.8388 C   0  0  0  0  0  0  0  0  0  0  0  0
   -3.5162    0.6441    1.7686 C   0  0  0  0  0  0  0  0  0  0  0  0
   -3.9926    1.8832    2.1684 C   0  0  0  0  0  0  0  0  0  0  0  0
   -4.7497    3.8138    1.5164 H   0  0  0  0  0  0  0  0  0  0  0  0
   -4.5589    3.2550   -0.8135 H   0  0  0  0  0  0  0  0  0  0  0  0
   -3.7039    1.0304   -1.5253 H   0  0  0  0  0  0  0  0  0  0  0  0
   -1.1035    1.0557    0.3665 H   0  0  0  0  0  0  0  0  0  0  0  0
    1.0848    2.0459    0.3692 H   0  0  0  0  0  0  0  0  0  0  0  0
    4.2587   -0.3749   -1.7015 H   0  0  0  0  0  0  0  0  0  0  0  0
    6.5086    0.6849   -1.6282 H   0  0  0  0  0  0  0  0  0  0  0  0
    6.9558    2.5102   -0.0664 H   0  0  0  0  0  0  0  0  0  0  0  0
    2.9932    2.2604    1.3507 H   0  0  0  0  0  0  0  0  0  0  0  0
    2.7620   -1.6805   -0.7329 H   0  0  0  0  0  0  0  0  0  0  0  0
    1.2355   -3.6159   -0.1181 H   0  0  0  0  0  0  0  0  0  0  0  0
    1.0382   -3.1936   -1.8517 H   0  0  0  0  0  0  0  0  0  0  0  0
   -0.7496   -4.5893   -0.1106 H   0  0  0  0  0  0  0  0  0  0  0  0
   -0.9153   -4.2276   -1.8236 H   0  0  0  0  0  0  0  0  0  0  0  0
   -3.2231   -0.0881    2.5228 H   0  0  0  0  0  0  0  0  0  0  0  0
   -4.0832    2.1472    3.2112 H   0  0  0  0  0  0  0  0  0  0  0  0
  1  2  2  0
  2  3  1  0
  3  4  2  0
  4  5  1  0
  5  6  2  0
  6  7  1  0
  7  8  2  0
  8  9  1  0
  9 10  1  0
 10 11  2  0
 11 12  1  0
 12 13  2  0
 13 14  1  0
 14 15  2  0
 15 16  1  0
 16 17  2  0
 17 18  1  0
 18 19  2  0
 13 20  1  0
 20 21  2  0
 21 22  1  0
 22 23  1  0
  4 24  1  0
 24 25  2  0
 25  1  1  0
  9  5  1  0
 21 10  1  0
 23  8  1  0
 19 14  1  0
  1 26  1  0
  2 27  1  0
  3 28  1  0
 11 29  1  0
 12 30  1  0
 15 31  1  0
 16 32  1  0
 17 33  1  0
 19 34  1  0
 20 35  1  0
 22 36  1  0
 22 37  1  0
 23 38  1  0
 23 39  1  0
 24 40  1  0
 25 41  1  0
M  END
$$$$
