@<TRIPOS>MOLECULE
*****
 41 45 0 0 0
SMALL
GASTEIGER

@<TRIPOS>ATOM
      1 C          -4.3696    2.8269    1.2391 C.ar    1  UNL1       -0.0617
      2 C          -4.2611    2.5083   -0.0891 C.ar    1  UNL1       -0.0611
      3 C          -3.7812    1.2603   -0.4883 C.ar    1  UNL1       -0.0510
      4 C          -3.4007    0.3071    0.4332 C.ar    1  UNL1        0.0196
      5 C          -2.9203   -1.0029    0.0605 C.ar    1  UNL1        0.1687
      6 N          -3.7929   -2.0486   -0.0992 N.ar    1  UNL1       -0.1288
      7 N          -3.1740   -3.1341   -0.4322 N.ar    1  UNL1       -0.1337
      8 C          -1.8477   -2.8079   -0.4978 C.ar    1  UNL1        0.1385
      9 N          -1.7202   -1.5071   -0.1942 N.ar    1  UNL1       -0.2788
     10 C          -0.4349   -0.8785   -0.1834 C.ar    1  UNL1        0.0529
     11 C          -0.2897    0.4545    0.1289 C.ar    1  UNL1       -0.0369
     12 C           0.9781    1.0087    0.1257 C.ar    1  UNL1       -0.0520
     13 C           2.0963    0.2706   -0.1790 C.ar    1  UNL1       -0.0161
     14 C           3.4366    0.8526   -0.1826 C.ar    1  UNL1        0.0002
     15 C           4.4494    0.4260   -1.0144 C.ar    1  UNL1       -0.0512
     16 C           5.7085    1.0190   -0.9730 C.ar    1  UNL1       -0.0430
     17 C           5.9746    2.0500   -0.0969 C.ar    1  UNL1        0.0276
     18 N           4.9696    2.4541    0.7101 N.ar    1  UNL1       -0.2627
     19 C           3.7442    1.8889    0.6812 C.ar    1  UNL1        0.0352
     20 C           1.9308   -1.0652   -0.4898 C.ar    1  UNL1       -0.0488
     21 C           0.6533   -1.6527   -0.4939 C.ar    1  UNL1       -0.0225
     22 C           0.5638   -3.0708   -0.8356 C.3     1  UNL1       -0.0188
     23 C          -0.7537   -3.7203   -0.8388 C.3     1  UNL1        0.0118
     24 C          -3.5162    0.6441    1.7686 C.ar    1  UNL1       -0.0510
     25 C          -3.9926    1.8832    2.1684 C.ar    1  UNL1       -0.0611
     26 H          -4.7497    3.8138    1.5164 H       1  UNL1        0.0618
     27 H          -4.5589    3.2550   -0.8135 H       1  UNL1        0.0618
     28 H          -3.7039    1.0304   -1.5253 H       1  UNL1        0.0625
     29 H          -1.1035    1.0557    0.3665 H       1  UNL1        0.0638
     30 H           1.0848    2.0459    0.3692 H       1  UNL1        0.0624
     31 H           4.2587   -0.3749   -1.7015 H       1  UNL1        0.0625
     32 H           6.5086    0.6849   -1.6282 H       1  UNL1        0.0633
     33 H           6.9558    2.5102   -0.0664 H       1  UNL1        0.0829
     34 H           2.9932    2.2604    1.3507 H       1  UNL1        0.0836
     35 H           2.7620   -1.6805   -0.7329 H       1  UNL1        0.0627
     36 H           1.2355   -3.6159   -0.1181 H       1  UNL1        0.0318
     37 H           1.0382   -3.1936   -1.8517 H       1  UNL1        0.0318
     38 H          -0.7496   -4.5893   -0.1106 H       1  UNL1        0.0347
     39 H          -0.9153   -4.2276   -1.8236 H       1  UNL1        0.0347
     40 H          -3.2231   -0.0881    2.5228 H       1  UNL1        0.0625
     41 H          -4.0832    2.1472    3.2112 H       1  UNL1        0.0618
@<TRIPOS>BOND
     1     1     2   ar
     2     2     3   ar
     3     3     4   ar
     4     4     5    1
     5     5     6   ar
     6     6     7   ar
     7     7     8   ar
     8     8     9   ar
     9     9    10    1
    10    10    11   ar
    11    11    12   ar
    12    12    13   ar
    13    13    14    1
    14    14    15   ar
    15    15    16   ar
    16    16    17   ar
    17    17    18   ar
    18    18    19   ar
    19    13    20   ar
    20    20    21   ar
    21    21    22    1
    22    22    23    1
    23     4    24   ar
    24    24    25   ar
    25    25     1   ar
    26     9     5   ar
    27    21    10   ar
    28    23     8    1
    29    19    14   ar
    30     1    26    1
    31     2    27    1
    32     3    28    1
    33    11    29    1
    34    12    30    1
    35    15    31    1
    36    16    32    1
    37    17    33    1
    38    19    34    1
    39    20    35    1
    40    22    36    1
    41    22    37    1
    42    23    38    1
    43    23    39    1
    44    24    40    1
    45    25    41    1
