@<TRIPOS>MOLECULE
*****
 53 55 0 0 0
SMALL
GASTEIGER

@<TRIPOS>ATOM
      1 C           5.8740   -0.9141    0.6745 C.3     1  UNL1       -0.0652
      2 C           6.0194   -0.8583   -0.7911 C.3     1  UNL1       -0.0545
      3 C           4.9544   -1.3708   -1.6675 C.3     1  UNL1       -0.0376
      4 C           3.6580   -0.6514   -1.4961 C.3     1  UNL1        0.0118
      5 N           3.1227   -0.8599   -0.1792 N.pl3   1  UNL1       -0.3134
      6 C           1.9895   -0.1309    0.2657 C.ar    1  UNL1        0.2169
      7 N           2.1442    1.0795    0.7947 N.ar    1  UNL1       -0.2222
      8 C           1.1158    1.7860    1.2339 C.ar    1  UNL1        0.0437
      9 C          -0.1807    1.2756    1.1546 C.ar    1  UNL1        0.0597
     10 C          -1.3101    2.0461    1.6435 C.ar    1  UNL1        0.0935
     11 C          -1.1771    3.3143    2.1982 C.ar    1  UNL1        0.0317
     12 N          -2.4099    3.7528    2.5504 N.ar    1  UNL1       -0.3393
     13 C          -2.7231    5.0262    3.1658 C.3     1  UNL1        0.0127
     14 C          -3.2985    2.7944    2.2301 C.ar    1  UNL1        0.0964
     15 N          -2.6019    1.7886    1.6894 N.ar    1  UNL1       -0.2356
     16 C          -0.3404    0.0294    0.6099 C.ar    1  UNL1        0.1333
     17 N          -1.5661   -0.6271    0.4720 N.pl3   1  UNL1       -0.3256
     18 C          -1.6555   -1.9382   -0.1323 C.3     1  UNL1        0.0221
     19 C          -3.0799   -2.4797   -0.0273 C.3     1  UNL1       -0.0322
     20 C          -3.8058   -2.4540   -1.3361 C.3     1  UNL1       -0.0252
     21 C          -3.6263   -1.0739   -1.9364 C.3     1  UNL1        0.0554
     22 O          -4.5232   -0.8404   -2.9790 O.3     1  UNL1       -0.3918
     23 C          -2.1927   -0.9367   -2.3782 C.3     1  UNL1       -0.0252
     24 C          -1.3003   -1.8951   -1.6188 C.3     1  UNL1       -0.0322
     25 N           0.7718   -0.6375    0.1785 N.ar    1  UNL1       -0.1991
     26 H           6.9155   -0.6530    1.1004 H       1  UNL1        0.0230
     27 H           5.7021   -1.9654    1.0012 H       1  UNL1        0.0230
     28 H           5.2217   -0.1901    1.1569 H       1  UNL1        0.0230
     29 H           6.2502    0.2118   -1.0741 H       1  UNL1        0.0263
     30 H           6.9579   -1.4519   -1.0474 H       1  UNL1        0.0263
     31 H           4.7335   -2.4597   -1.4907 H       1  UNL1        0.0280
     32 H           5.2672   -1.2669   -2.7425 H       1  UNL1        0.0280
     33 H           2.8982   -0.9733   -2.2684 H       1  UNL1        0.0462
     34 H           3.8112    0.4479   -1.6738 H       1  UNL1        0.0462
     35 H           3.5035   -1.5558    0.4905 H       1  UNL1        0.1489
     36 H           1.2422    2.7787    1.6671 H       1  UNL1        0.0838
     37 H          -0.2646    3.8835    2.3393 H       1  UNL1        0.0831
     38 H          -2.0600    5.2605    4.0273 H       1  UNL1        0.0456
     39 H          -2.6145    5.8553    2.4363 H       1  UNL1        0.0456
     40 H          -3.7669    5.0339    3.5149 H       1  UNL1        0.0456
     41 H          -4.3832    2.8702    2.4009 H       1  UNL1        0.1029
     42 H          -2.4415   -0.2023    0.7930 H       1  UNL1        0.1478
     43 H          -0.9779   -2.6818    0.3236 H       1  UNL1        0.0498
     44 H          -3.0783   -3.4900    0.4253 H       1  UNL1        0.0284
     45 H          -3.6510   -1.8237    0.6860 H       1  UNL1        0.0284
     46 H          -3.3918   -3.2064   -2.0179 H       1  UNL1        0.0291
     47 H          -4.8789   -2.6205   -1.1333 H       1  UNL1        0.0291
     48 H          -3.8318   -0.3352   -1.1615 H       1  UNL1        0.0593
     49 H          -5.4290   -1.0747   -2.6276 H       1  UNL1        0.2098
     50 H          -1.8144    0.0991   -2.2903 H       1  UNL1        0.0291
     51 H          -2.1338   -1.2192   -3.4538 H       1  UNL1        0.0291
     52 H          -0.2735   -1.5598   -1.7143 H       1  UNL1        0.0284
     53 H          -1.3701   -2.9363   -1.9865 H       1  UNL1        0.0284
@<TRIPOS>BOND
     1     1     2    1
     2     2     3    1
     3     3     4    1
     4     4     5    1
     5     5     6    1
     6     6     7   ar
     7     7     8   ar
     8     8     9   ar
     9     9    10    1
    10    10    11   ar
    11    11    12   ar
    12    12    13    1
    13    12    14   ar
    14    14    15   ar
    15     9    16   ar
    16    16    17    1
    17    17    18    1
    18    18    19    1
    19    19    20    1
    20    20    21    1
    21    21    22    1
    22    21    23    1
    23    23    24    1
    24    16    25   ar
    25    25     6   ar
    26    15    10   ar
    27    24    18    1
    28     1    26    1
    29     1    27    1
    30     1    28    1
    31     2    29    1
    32     2    30    1
    33     3    31    1
    34     3    32    1
    35     4    33    1
    36     4    34    1
    37     5    35    1
    38     8    36    1
    39    11    37    1
    40    13    38    1
    41    13    39    1
    42    13    40    1
    43    14    41    1
    44    17    42    1
    45    18    43    1
    46    19    44    1
    47    19    45    1
    48    20    46    1
    49    20    47    1
    50    21    48    1
    51    22    49    1
    52    23    50    1
    53    23    51    1
    54    24    52    1
    55    24    53    1
