@<TRIPOS>MOLECULE
*****
 46 49 0 0 0
SMALL
GASTEIGER

@<TRIPOS>ATOM
      1 C          -1.0622    1.0760   -3.7905 C.3     1  UNL1        0.0178
      2 N          -1.6087    0.7081   -2.4769 N.ar    1  UNL1       -0.2839
      3 C          -0.8517    0.4005   -1.4229 C.ar    1  UNL1        0.2013
      4 N           0.5536    0.3155   -1.5024 N.pl3   1  UNL1       -0.2962
      5 C           1.3536    0.1798   -2.6635 C.3     1  UNL1        0.0384
      6 C           2.8124   -0.0256   -2.1501 C.3     1  UNL1        0.0638
      7 O           2.7873   -1.1203   -1.3235 O.3     1  UNL1       -0.3732
      8 C           2.0963   -0.8587   -0.1279 C.3     1  UNL1        0.0772
      9 C           3.0745   -0.9022    0.9815 C.3     1  UNL1       -0.0132
     10 C           2.5590   -0.6458    2.3668 C.3     1  UNL1       -0.0478
     11 C           3.8145    0.2069    2.5875 C.3     1  UNL1       -0.0524
     12 C           4.0466    0.2333    1.0891 C.3     1  UNL1       -0.0478
     13 C           1.3043    0.4009   -0.2278 C.3     1  UNL1        0.0414
     14 N          -1.4431    0.1061   -0.2177 N.ar    1  UNL1       -0.2154
     15 C          -2.7633    0.1029   -0.0102 C.ar    1  UNL1        0.0825
     16 C          -3.2862   -0.2491    1.3334 C.ar    1  UNL1        0.0387
     17 C          -2.3431   -0.6524    2.2991 C.ar    1  UNL1       -0.0316
     18 C          -2.7786   -0.9836    3.5597 C.ar    1  UNL1        0.0284
     19 N          -4.0793   -0.9288    3.8842 N.ar    1  UNL1       -0.2604
     20 C          -4.9818   -0.5479    2.9785 C.ar    1  UNL1        0.0634
     21 C          -4.5809   -0.2110    1.7113 C.ar    1  UNL1        0.1505
     22 F          -5.5416    0.1761    0.8285 F       1  UNL1       -0.2032
     23 C          -3.5406    0.4164   -1.0878 C.ar    1  UNL1        0.0292
     24 C          -2.9473    0.7151   -2.3083 C.ar    1  UNL1        0.2555
     25 O          -3.6567    1.0094   -3.3183 O.2     1  UNL1       -0.2675
     26 H          -0.5702    0.2298   -4.2789 H       1  UNL1        0.0458
     27 H          -0.5356    2.0313   -3.7758 H       1  UNL1        0.0458
     28 H          -1.9456    1.2875   -4.4855 H       1  UNL1        0.0458
     29 H           1.1441   -0.7906   -3.2156 H       1  UNL1        0.0487
     30 H           1.4485    1.0306   -3.3322 H       1  UNL1        0.0487
     31 H           3.1755    0.9059   -1.7294 H       1  UNL1        0.0575
     32 H           3.4622   -0.2902   -3.0162 H       1  UNL1        0.0575
     33 H           1.3807   -1.6974    0.0027 H       1  UNL1        0.0614
     34 H           3.6351   -1.8725    0.9660 H       1  UNL1        0.0326
     35 H           1.6809    0.0033    2.4657 H       1  UNL1        0.0269
     36 H           2.5991   -1.5206    3.0449 H       1  UNL1        0.0269
     37 H           4.6443   -0.3109    3.0833 H       1  UNL1        0.0265
     38 H           3.6266    1.2125    2.9760 H       1  UNL1        0.0265
     39 H           3.7408    1.1497    0.5824 H       1  UNL1        0.0269
     40 H           5.1041   -0.0071    0.7813 H       1  UNL1        0.0269
     41 H           0.5932    0.4482    0.5940 H       1  UNL1        0.0490
     42 H           1.8791    1.3342   -0.2287 H       1  UNL1        0.0490
     43 H          -1.2948   -0.6962    2.0339 H       1  UNL1        0.0640
     44 H          -2.0453   -1.2988    4.3052 H       1  UNL1        0.0830
     45 H          -6.0554   -0.5077    3.2581 H       1  UNL1        0.0859
     46 H          -4.6042    0.4375   -1.0229 H       1  UNL1        0.0693
@<TRIPOS>BOND
     1     1     2    1
     2     2     3   ar
     3     3     4    1
     4     4     5    1
     5     5     6    1
     6     6     7    1
     7     7     8    1
     8     8     9    1
     9     9    10    1
    10    10    11    1
    11    11    12    1
    12     8    13    1
    13     3    14   ar
    14    14    15   ar
    15    15    16    1
    16    16    17   ar
    17    17    18   ar
    18    18    19   ar
    19    19    20   ar
    20    20    21   ar
    21    21    22    1
    22    15    23   ar
    23    23    24   ar
    24    24    25    2
    25    24     2   ar
    26    13     4    1
    27    21    16   ar
    28    12     9    1
    29     1    26    1
    30     1    27    1
    31     1    28    1
    32     5    29    1
    33     5    30    1
    34     6    31    1
    35     6    32    1
    36     8    33    1
    37     9    34    1
    38    10    35    1
    39    10    36    1
    40    11    37    1
    41    11    38    1
    42    12    39    1
    43    12    40    1
    44    13    41    1
    45    13    42    1
    46    17    43    1
    47    18    44    1
    48    20    45    1
    49    23    46    1
