@<TRIPOS>MOLECULE
*****
 47 51 0 0 0
SMALL
GASTEIGER

@<TRIPOS>ATOM
      1 C           8.3184   -0.1342    1.2772 C.3     1  UNL1       -0.0012
      2 C           7.2898   -0.2704    0.2256 C.ar    1  UNL1        0.1692
      3 N           7.4849   -0.3205   -1.1004 N.ar    1  UNL1       -0.0610
      4 O           6.3399   -0.4494   -1.7000 O.2     1  UNL1       -0.3295
      5 C           5.3544   -0.4901   -0.8323 C.ar    1  UNL1        0.2958
      6 C           3.9324   -0.6278   -1.0958 C.ar    1  UNL1        0.2221
      7 N           3.4063   -1.0336   -2.2902 N.ar    1  UNL1       -0.1241
      8 N           2.0857   -1.0754   -2.2130 N.ar    1  UNL1       -0.1319
      9 C           1.7181   -0.6989   -0.9691 C.ar    1  UNL1        0.1542
     10 N           2.8700   -0.4337   -0.3209 N.ar    1  UNL1       -0.3040
     11 C           2.8125    0.0349    1.0647 C.3     1  UNL1        0.0424
     12 C           1.6863    1.0433    1.1892 C.3     1  UNL1        0.0338
     13 N           0.4414    0.5015    0.6502 N.am    1  UNL1       -0.2860
     14 C          -0.7520    1.1213    1.0805 C.2     1  UNL1        0.2472
     15 O          -0.6471    2.1013    1.8919 O.2     1  UNL1       -0.2700
     16 C          -2.0707    0.6797    0.6336 C.ar    1  UNL1        0.0370
     17 C          -2.6869   -0.4834    1.0330 C.ar    1  UNL1       -0.0490
     18 C          -3.9615   -0.8348    0.6050 C.ar    1  UNL1       -0.0528
     19 C          -4.6887   -0.0100   -0.2636 C.ar    1  UNL1       -0.0113
     20 C          -6.0120   -0.3656   -0.7047 C.ar    1  UNL1        0.0193
     21 C          -6.8903    0.3258   -1.4409 C.ar    1  UNL1       -0.0469
     22 C          -8.0962   -0.2006   -1.7189 C.ar    1  UNL1       -0.0541
     23 C          -8.4508   -1.4233   -1.2696 C.ar    1  UNL1       -0.0237
     24 S          -6.9059   -1.9012   -0.3403 S.2     1  UNL1       -0.0967
     25 C          -4.0598    1.1483   -0.6536 C.ar    1  UNL1       -0.0528
     26 C          -2.8027    1.4973   -0.2349 C.ar    1  UNL1       -0.0490
     27 C           0.4027   -0.5860   -0.2717 C.3     1  UNL1        0.0834
     28 C           0.2519   -1.8970    0.5180 C.3     1  UNL1       -0.0393
     29 N           5.9397   -0.3787    0.3703 N.ar    1  UNL1       -0.1895
     30 H           7.9267    0.4108    2.1585 H       1  UNL1        0.0309
     31 H           9.2013    0.3330    0.8038 H       1  UNL1        0.0309
     32 H           8.6454   -1.1637    1.6000 H       1  UNL1        0.0309
     33 H           2.7010   -0.8152    1.7566 H       1  UNL1        0.0508
     34 H           3.7480    0.5661    1.3237 H       1  UNL1        0.0508
     35 H           1.9691    1.9564    0.6377 H       1  UNL1        0.0482
     36 H           1.5655    1.2956    2.2476 H       1  UNL1        0.0482
     37 H          -2.1846   -1.1539    1.7125 H       1  UNL1        0.0625
     38 H          -4.4417   -1.7639    0.9287 H       1  UNL1        0.0624
     39 H          -6.6172    1.3634   -1.8302 H       1  UNL1        0.0629
     40 H          -8.8683    0.3703   -2.3397 H       1  UNL1        0.0623
     41 H          -9.2856   -2.0466   -1.3334 H       1  UNL1        0.0693
     42 H          -4.6420    1.7936   -1.3319 H       1  UNL1        0.0624
     43 H          -2.3457    2.4084   -0.5665 H       1  UNL1        0.0625
     44 H          -0.4062   -0.4787   -1.0244 H       1  UNL1        0.0579
     45 H           0.1437   -1.6849    1.6086 H       1  UNL1        0.0252
     46 H           1.1643   -2.5326    0.4186 H       1  UNL1        0.0252
     47 H          -0.5836   -2.5005    0.1105 H       1  UNL1        0.0252
@<TRIPOS>BOND
     1     1     2    1
     2     2     3   ar
     3     3     4   ar
     4     4     5   ar
     5     5     6    1
     6     6     7   ar
     7     7     8   ar
     8     8     9   ar
     9     9    10   ar
    10    10    11    1
    11    11    12    1
    12    12    13    1
    13    13    14   am
    14    14    15    2
    15    14    16    1
    16    16    17   ar
    17    17    18   ar
    18    18    19   ar
    19    19    20    1
    20    20    21   ar
    21    21    22   ar
    22    22    23   ar
    23    23    24   ar
    24    19    25   ar
    25    25    26   ar
    26    13    27    1
    27    27    28    1
    28     5    29   ar
    29    29     2   ar
    30    10     6   ar
    31    26    16   ar
    32    27     9    1
    33    24    20   ar
    34     1    30    1
    35     1    31    1
    36     1    32    1
    37    11    33    1
    38    11    34    1
    39    12    35    1
    40    12    36    1
    41    17    37    1
    42    18    38    1
    43    21    39    1
    44    22    40    1
    45    23    41    1
    46    25    42    1
    47    26    43    1
    48    27    44    1
    49    28    45    1
    50    28    46    1
    51    28    47    1
