
     RDKit          3D

 47 51  0  0  0  0  0  0  0  0999 V2000
    8.3184   -0.1342    1.2772 C   0  0  0  0  0  0  0  0  0  0  0  0
    7.2898   -0.2704    0.2256 C   0  0  0  0  0  0  0  0  0  0  0  0
    7.4849   -0.3205   -1.1004 N   0  0  0  0  0  0  0  0  0  0  0  0
    6.3399   -0.4494   -1.7000 O   0  0  0  0  0  0  0  0  0  0  0  0
    5.3544   -0.4901   -0.8323 C   0  0  0  0  0  0  0  0  0  0  0  0
    3.9324   -0.6278   -1.0958 C   0  0  0  0  0  0  0  0  0  0  0  0
    3.4063   -1.0336   -2.2902 N   0  0  0  0  0  0  0  0  0  0  0  0
    2.0857   -1.0754   -2.2130 N   0  0  0  0  0  0  0  0  0  0  0  0
    1.7181   -0.6989   -0.9691 C   0  0  0  0  0  0  0  0  0  0  0  0
    2.8700   -0.4337   -0.3209 N   0  0  0  0  0  0  0  0  0  0  0  0
    2.8125    0.0349    1.0647 C   0  0  0  0  0  0  0  0  0  0  0  0
    1.6863    1.0433    1.1892 C   0  0  0  0  0  0  0  0  0  0  0  0
    0.4414    0.5015    0.6502 N   0  0  0  0  0  0  0  0  0  0  0  0
   -0.7520    1.1213    1.0805 C   0  0  0  0  0  0  0  0  0  0  0  0
   -0.6471    2.1013    1.8919 O   0  0  0  0  0  0  0  0  0  0  0  0
   -2.0707    0.6797    0.6336 C   0  0  0  0  0  0  0  0  0  0  0  0
   -2.6869   -0.4834    1.0330 C   0  0  0  0  0  0  0  0  0  0  0  0
   -3.9615   -0.8348    0.6050 C   0  0  0  0  0  0  0  0  0  0  0  0
   -4.6887   -0.0100   -0.2636 C   0  0  0  0  0  0  0  0  0  0  0  0
   -6.0120   -0.3656   -0.7047 C   0  0  0  0  0  0  0  0  0  0  0  0
   -6.8903    0.3258   -1.4409 C   0  0  0  0  0  0  0  0  0  0  0  0
   -8.0962   -0.2006   -1.7189 C   0  0  0  0  0  0  0  0  0  0  0  0
   -8.4508   -1.4233   -1.2696 C   0  0  0  0  0  0  0  0  0  0  0  0
   -6.9059   -1.9012   -0.3403 S   0  0  0  0  0  0  0  0  0  0  0  0
   -4.0598    1.1483   -0.6536 C   0  0  0  0  0  0  0  0  0  0  0  0
   -2.8027    1.4973   -0.2349 C   0  0  0  0  0  0  0  0  0  0  0  0
    0.4027   -0.5860   -0.2717 C   0  0  2  0  0  0  0  0  0  0  0  0
    0.2519   -1.8970    0.5180 C   0  0  0  0  0  0  0  0  0  0  0  0
    5.9397   -0.3787    0.3703 N   0  0  0  0  0  0  0  0  0  0  0  0
    7.9267    0.4108    2.1585 H   0  0  0  0  0  0  0  0  0  0  0  0
    9.2013    0.3330    0.8038 H   0  0  0  0  0  0  0  0  0  0  0  0
    8.6454   -1.1637    1.6000 H   0  0  0  0  0  0  0  0  0  0  0  0
    2.7010   -0.8152    1.7566 H   0  0  0  0  0  0  0  0  0  0  0  0
    3.7480    0.5661    1.3237 H   0  0  0  0  0  0  0  0  0  0  0  0
    1.9691    1.9564    0.6377 H   0  0  0  0  0  0  0  0  0  0  0  0
    1.5655    1.2956    2.2476 H   0  0  0  0  0  0  0  0  0  0  0  0
   -2.1846   -1.1539    1.7125 H   0  0  0  0  0  0  0  0  0  0  0  0
   -4.4417   -1.7639    0.9287 H   0  0  0  0  0  0  0  0  0  0  0  0
   -6.6172    1.3634   -1.8302 H   0  0  0  0  0  0  0  0  0  0  0  0
   -8.8683    0.3703   -2.3397 H   0  0  0  0  0  0  0  0  0  0  0  0
   -9.2856   -2.0466   -1.3334 H   0  0  0  0  0  0  0  0  0  0  0  0
   -4.6420    1.7936   -1.3319 H   0  0  0  0  0  0  0  0  0  0  0  0
   -2.3457    2.4084   -0.5665 H   0  0  0  0  0  0  0  0  0  0  0  0
   -0.4062   -0.4787   -1.0244 H   0  0  0  0  0  0  0  0  0  0  0  0
    0.1437   -1.6849    1.6086 H   0  0  0  0  0  0  0  0  0  0  0  0
    1.1643   -2.5326    0.4186 H   0  0  0  0  0  0  0  0  0  0  0  0
   -0.5836   -2.5005    0.1105 H   0  0  0  0  0  0  0  0  0  0  0  0
  1  2  1  0
  2  3  2  0
  3  4  1  0
  4  5  1  0
  5  6  1  0
  6  7  2  0
  7  8  1  0
  8  9  2  0
  9 10  1  0
 10 11  1  0
 11 12  1  0
 12 13  1  0
 13 14  1  0
 14 15  2  0
 14 16  1  0
 16 17  2  0
 17 18  1  0
 18 19  2  0
 19 20  1  0
 20 21  2  0
 21 22  1  0
 22 23  2  0
 23 24  1  0
 19 25  1  0
 25 26  2  0
 13 27  1  0
 27 28  1  0
  5 29  2  0
 29  2  1  0
 10  6  1  0
 26 16  1  0
 27  9  1  0
 24 20  1  0
  1 30  1  0
  1 31  1  0
  1 32  1  0
 11 33  1  0
 11 34  1  0
 12 35  1  0
 12 36  1  0
 17 37  1  0
 18 38  1  0
 21 39  1  0
 22 40  1  0
 23 41  1  0
 25 42  1  0
 26 43  1  0
 27 44  1  6
 28 45  1  0
 28 46  1  0
 28 47  1  0
M  END
$$$$
