@<TRIPOS>MOLECULE
*****
 39 40 0 0 0
SMALL
GASTEIGER

@<TRIPOS>ATOM
      1 C          -5.8627   -2.3238   -0.0088 C.3     1  UNL1        0.1072
      2 O          -4.9335   -1.3271    0.3864 O.2     1  UNL1       -0.3965
      3 N          -3.6806   -1.3887   -0.1715 N.2     1  UNL1       -0.0790
      4 C          -2.9543   -0.3304   -0.1573 C.2     1  UNL1        0.1776
      5 C          -1.5926   -0.3303   -0.7429 C.2     1  UNL1        0.2672
      6 O          -0.9055    0.7117   -0.7170 O.2     1  UNL1       -0.2684
      7 N          -1.1005   -1.5182   -1.3210 N.am    1  UNL1       -0.2978
      8 C           0.2184   -1.5411   -1.8951 C.3     1  UNL1        0.1250
      9 P           1.4109   -1.1329   -0.6036 P.3     1  UNL1        0.3960
     10 O           0.7081   -0.8156    0.6979 O.2     1  UNL1       -0.2426
     11 O           2.4296   -2.4522   -0.3060 O.3     1  UNL1       -0.3141
     12 O           2.3048    0.2432   -1.0872 O.3     1  UNL1       -0.4229
     13 C           3.5376    0.4655   -0.4765 C.ar    1  UNL1        0.1327
     14 C           4.5753   -0.4108   -0.7119 C.ar    1  UNL1       -0.0181
     15 C           5.8039   -0.2094   -0.1174 C.ar    1  UNL1       -0.0381
     16 C           6.0543    0.8625    0.7302 C.ar    1  UNL1        0.0871
     17 C           7.3395    1.0615    1.3440 C.1     1  UNL1        0.1020
     18 N           8.3858    1.2030    1.8443 N.1     1  UNL1       -0.1908
     19 C           4.9949    1.7245    0.9475 C.ar    1  UNL1        0.1442
     20 F           5.1942    2.7940    1.7747 F       1  UNL1       -0.2040
     21 C           3.7584    1.5388    0.3612 C.ar    1  UNL1        0.0170
     22 C          -3.4891    0.8732    0.4440 C.ar    1  UNL1        0.0458
     23 C          -3.5607    2.1743    0.0643 C.ar    1  UNL1       -0.0452
     24 C          -4.1437    3.0657    0.8895 C.ar    1  UNL1       -0.0541
     25 C          -4.6349    2.6653    2.0497 C.ar    1  UNL1       -0.0237
     26 S          -4.3140    0.9392    2.0942 S.2     1  UNL1       -0.0949
     27 H          -6.4568   -1.9465   -0.8630 H       1  UNL1        0.0687
     28 H          -5.3683   -3.2828   -0.2726 H       1  UNL1        0.0687
     29 H          -6.5844   -2.5513    0.8010 H       1  UNL1        0.0687
     30 H          -1.6776   -2.3724   -1.3364 H       1  UNL1        0.1497
     31 H           0.4384   -2.5332   -2.3605 H       1  UNL1        0.0599
     32 H           0.2327   -0.7429   -2.6855 H       1  UNL1        0.0599
     33 H           2.3989   -3.0212   -1.1242 H       1  UNL1        0.2208
     34 H           4.3802   -1.2468   -1.3729 H       1  UNL1        0.0655
     35 H           6.6285   -0.8924   -0.2950 H       1  UNL1        0.0632
     36 H           2.9384    2.2236    0.5418 H       1  UNL1        0.0683
     37 H          -3.1174    2.4393   -0.9439 H       1  UNL1        0.0629
     38 H          -4.2080    4.1475    0.5837 H       1  UNL1        0.0623
     39 H          -5.1483    3.2372    2.8625 H       1  UNL1        0.0693
@<TRIPOS>BOND
     1     1     2    1
     2     2     3    1
     3     3     4    2
     4     4     5    1
     5     5     6    2
     6     5     7   am
     7     7     8    1
     8     8     9    1
     9     9    10    2
    10     9    11    1
    11     9    12    1
    12    12    13    1
    13    13    14   ar
    14    14    15   ar
    15    15    16   ar
    16    16    17    1
    17    17    18    3
    18    16    19   ar
    19    19    20    1
    20    19    21   ar
    21     4    22    1
    22    22    23   ar
    23    23    24   ar
    24    24    25   ar
    25    25    26   ar
    26    21    13   ar
    27    26    22   ar
    28     1    27    1
    29     1    28    1
    30     1    29    1
    31     7    30    1
    32     8    31    1
    33     8    32    1
    34    11    33    1
    35    14    34    1
    36    15    35    1
    37    21    36    1
    38    23    37    1
    39    24    38    1
    40    25    39    1
