
     RDKit          3D

 39 40  0  0  0  0  0  0  0  0999 V2000
   -5.8627   -2.3238   -0.0088 C   0  0  0  0  0  0  0  0  0  0  0  0
   -4.9335   -1.3271    0.3864 O   0  0  0  0  0  0  0  0  0  0  0  0
   -3.6806   -1.3887   -0.1715 N   0  0  0  0  0  0  0  0  0  0  0  0
   -2.9543   -0.3304   -0.1573 C   0  0  0  0  0  0  0  0  0  0  0  0
   -1.5926   -0.3303   -0.7429 C   0  0  0  0  0  0  0  0  0  0  0  0
   -0.9055    0.7117   -0.7170 O   0  0  0  0  0  0  0  0  0  0  0  0
   -1.1005   -1.5182   -1.3210 N   0  0  0  0  0  0  0  0  0  0  0  0
    0.2184   -1.5411   -1.8951 C   0  0  0  0  0  0  0  0  0  0  0  0
    1.4109   -1.1329   -0.6036 P   0  0  0  0  0  5  0  0  0  0  0  0
    0.7081   -0.8156    0.6979 O   0  0  0  0  0  0  0  0  0  0  0  0
    2.4296   -2.4522   -0.3060 O   0  0  0  0  0  0  0  0  0  0  0  0
    2.3048    0.2432   -1.0872 O   0  0  0  0  0  0  0  0  0  0  0  0
    3.5376    0.4655   -0.4765 C   0  0  0  0  0  0  0  0  0  0  0  0
    4.5753   -0.4108   -0.7119 C   0  0  0  0  0  0  0  0  0  0  0  0
    5.8039   -0.2094   -0.1174 C   0  0  0  0  0  0  0  0  0  0  0  0
    6.0543    0.8625    0.7302 C   0  0  0  0  0  0  0  0  0  0  0  0
    7.3395    1.0615    1.3440 C   0  0  0  0  0  0  0  0  0  0  0  0
    8.3858    1.2030    1.8443 N   0  0  0  0  0  0  0  0  0  0  0  0
    4.9949    1.7245    0.9475 C   0  0  0  0  0  0  0  0  0  0  0  0
    5.1942    2.7940    1.7747 F   0  0  0  0  0  0  0  0  0  0  0  0
    3.7584    1.5388    0.3612 C   0  0  0  0  0  0  0  0  0  0  0  0
   -3.4891    0.8732    0.4440 C   0  0  0  0  0  0  0  0  0  0  0  0
   -3.5607    2.1743    0.0643 C   0  0  0  0  0  0  0  0  0  0  0  0
   -4.1437    3.0657    0.8895 C   0  0  0  0  0  0  0  0  0  0  0  0
   -4.6349    2.6653    2.0497 C   0  0  0  0  0  0  0  0  0  0  0  0
   -4.3140    0.9392    2.0942 S   0  0  0  0  0  0  0  0  0  0  0  0
   -6.4568   -1.9465   -0.8630 H   0  0  0  0  0  0  0  0  0  0  0  0
   -5.3683   -3.2828   -0.2726 H   0  0  0  0  0  0  0  0  0  0  0  0
   -6.5844   -2.5513    0.8010 H   0  0  0  0  0  0  0  0  0  0  0  0
   -1.6776   -2.3724   -1.3364 H   0  0  0  0  0  0  0  0  0  0  0  0
    0.4384   -2.5332   -2.3605 H   0  0  0  0  0  0  0  0  0  0  0  0
    0.2327   -0.7429   -2.6855 H   0  0  0  0  0  0  0  0  0  0  0  0
    2.3989   -3.0212   -1.1242 H   0  0  0  0  0  0  0  0  0  0  0  0
    4.3802   -1.2468   -1.3729 H   0  0  0  0  0  0  0  0  0  0  0  0
    6.6285   -0.8924   -0.2950 H   0  0  0  0  0  0  0  0  0  0  0  0
    2.9384    2.2236    0.5418 H   0  0  0  0  0  0  0  0  0  0  0  0
   -3.1174    2.4393   -0.9439 H   0  0  0  0  0  0  0  0  0  0  0  0
   -4.2080    4.1475    0.5837 H   0  0  0  0  0  0  0  0  0  0  0  0
   -5.1483    3.2372    2.8625 H   0  0  0  0  0  0  0  0  0  0  0  0
  1  2  1  0
  2  3  1  0
  3  4  2  0
  4  5  1  0
  5  6  2  0
  5  7  1  0
  7  8  1  0
  8  9  1  0
  9 10  2  0
  9 11  1  0
  9 12  1  0
 12 13  1  0
 13 14  2  0
 14 15  1  0
 15 16  2  0
 16 17  1  0
 17 18  3  0
 16 19  1  0
 19 20  1  0
 19 21  2  0
  4 22  1  0
 22 23  2  0
 23 24  1  0
 24 25  2  0
 25 26  1  0
 21 13  1  0
 26 22  1  0
  1 27  1  0
  1 28  1  0
  1 29  1  0
  7 30  1  0
  8 31  1  0
  8 32  1  0
 11 33  1  0
 14 34  1  0
 15 35  1  0
 21 36  1  0
 23 37  1  0
 24 38  1  0
 25 39  1  0
M  END
$$$$
