@<TRIPOS>MOLECULE
*****
 44 43 0 0 0
SMALL
GASTEIGER

@<TRIPOS>ATOM
      1 C          -4.6922   -1.4111   -0.9982 C.3     1  UNL1       -0.0653
      2 C          -5.6100   -0.6982   -0.0991 C.3     1  UNL1       -0.0559
      3 C          -5.0499    0.2697    0.8890 C.3     1  UNL1       -0.0533
      4 C          -4.2971    1.4211    0.3682 C.3     1  UNL1       -0.0531
      5 C          -3.0689    1.2557   -0.4011 C.3     1  UNL1       -0.0531
      6 C          -1.9142    0.5866    0.2521 C.3     1  UNL1       -0.0531
      7 C          -0.7482    0.5133   -0.7218 C.3     1  UNL1       -0.0531
      8 C           0.4515   -0.1617   -0.0981 C.3     1  UNL1       -0.0531
      9 C           1.5263   -0.1615   -1.1795 C.3     1  UNL1       -0.0531
     10 C           2.8068   -0.8114   -0.7056 C.3     1  UNL1       -0.0530
     11 C           3.3722   -0.0806    0.4960 C.3     1  UNL1       -0.0526
     12 C           4.6342   -0.7471    0.9368 C.3     1  UNL1       -0.0430
     13 C           5.6968   -0.7587   -0.1374 C.3     1  UNL1        0.0448
     14 C           6.0794    0.6116   -0.5670 C.2     1  UNL1        0.3047
     15 O           7.0528    0.6918   -1.5540 O.3     1  UNL1       -0.4806
     16 O           5.6272    1.7257   -0.1445 O.2     1  UNL1       -0.2510
     17 H          -4.6066   -0.9912   -2.0211 H       1  UNL1        0.0230
     18 H          -3.6761   -1.5333   -0.6014 H       1  UNL1        0.0230
     19 H          -5.1293   -2.4435   -1.1852 H       1  UNL1        0.0230
     20 H          -6.3959   -0.1427   -0.6696 H       1  UNL1        0.0263
     21 H          -6.1710   -1.4662    0.5216 H       1  UNL1        0.0263
     22 H          -4.5881   -0.2290    1.7741 H       1  UNL1        0.0265
     23 H          -5.9861    0.7095    1.3632 H       1  UNL1        0.0265
     24 H          -4.1340    2.1709    1.2032 H       1  UNL1        0.0265
     25 H          -5.0288    1.9898   -0.2888 H       1  UNL1        0.0265
     26 H          -2.6803    2.2966   -0.6447 H       1  UNL1        0.0265
     27 H          -3.2154    0.8283   -1.4137 H       1  UNL1        0.0265
     28 H          -1.5300    1.2423    1.0913 H       1  UNL1        0.0265
     29 H          -2.0475   -0.3916    0.6798 H       1  UNL1        0.0265
     30 H          -0.9999   -0.0054   -1.6498 H       1  UNL1        0.0265
     31 H          -0.4129    1.5373   -0.9997 H       1  UNL1        0.0265
     32 H           0.1878   -1.1734    0.2124 H       1  UNL1        0.0265
     33 H           0.8015    0.4412    0.7418 H       1  UNL1        0.0265
     34 H           1.7795    0.8566   -1.4760 H       1  UNL1        0.0265
     35 H           1.1988   -0.7067   -2.0821 H       1  UNL1        0.0265
     36 H           2.6306   -1.8705   -0.5115 H       1  UNL1        0.0265
     37 H           3.5345   -0.7064   -1.5161 H       1  UNL1        0.0265
     38 H           3.4349    0.9943    0.3357 H       1  UNL1        0.0265
     39 H           2.6367   -0.2199    1.3367 H       1  UNL1        0.0265
     40 H           5.0307   -0.3688    1.8791 H       1  UNL1        0.0270
     41 H           4.3775   -1.8246    1.1097 H       1  UNL1        0.0270
     42 H           5.4076   -1.3896   -0.9973 H       1  UNL1        0.0377
     43 H           6.5819   -1.2804    0.3098 H       1  UNL1        0.0377
     44 H           7.1334    1.4313   -2.2288 H       1  UNL1        0.2951
@<TRIPOS>BOND
     1     1     2    1
     2     2     3    1
     3     3     4    1
     4     4     5    1
     5     5     6    1
     6     6     7    1
     7     7     8    1
     8     8     9    1
     9     9    10    1
    10    10    11    1
    11    11    12    1
    12    12    13    1
    13    13    14    1
    14    14    15    1
    15    14    16    2
    16     1    17    1
    17     1    18    1
    18     1    19    1
    19     2    20    1
    20     2    21    1
    21     3    22    1
    22     3    23    1
    23     4    24    1
    24     4    25    1
    25     5    26    1
    26     5    27    1
    27     6    28    1
    28     6    29    1
    29     7    30    1
    30     7    31    1
    31     8    32    1
    32     8    33    1
    33     9    34    1
    34     9    35    1
    35    10    36    1
    36    10    37    1
    37    11    38    1
    38    11    39    1
    39    12    40    1
    40    12    41    1
    41    13    42    1
    42    13    43    1
    43    15    44    1
