@<TRIPOS>MOLECULE
*****
 40 43 0 0 0
SMALL
GASTEIGER

@<TRIPOS>ATOM
      1 CL          1.9207   -4.0945    1.8521 Cl      1  UNL1       -0.0410
      2 C           0.7999   -2.7396    1.6396 C.ar    1  UNL1        0.2250
      3 N           0.7666   -2.0197    0.5320 N.ar    1  UNL1       -0.2020
      4 C          -0.0740   -0.9630    0.3072 C.ar    1  UNL1        0.1321
      5 N           0.1400   -0.1756   -0.8253 N.pl3   1  UNL1       -0.3229
      6 C           1.0605   -0.6881   -1.8594 C.3     1  UNL1        0.0528
      7 C           2.4325   -0.6265   -1.2938 C.ar    1  UNL1        0.0583
      8 C           3.1880    0.5476   -1.3986 C.ar    1  UNL1       -0.0388
      9 C           4.4719    0.6462   -0.9067 C.ar    1  UNL1       -0.0586
     10 C           5.0576   -0.4360   -0.2841 C.ar    1  UNL1       -0.0436
     11 C           4.3058   -1.5700   -0.1919 C.ar    1  UNL1        0.0279
     12 N           3.0580   -1.6406   -0.6789 N.ar    1  UNL1       -0.2583
     13 C          -0.9494   -0.6433    1.3158 C.ar    1  UNL1        0.0479
     14 C          -1.8465    0.3725    1.1820 C.ar    1  UNL1       -0.0054
     15 C          -2.1150    1.0846   -0.0463 C.ar    1  UNL1       -0.0171
     16 C          -2.6023    0.3362   -1.1221 C.ar    1  UNL1       -0.0540
     17 C          -2.9480    0.9369   -2.3013 C.ar    1  UNL1       -0.0612
     18 C          -2.8318    2.3001   -2.4802 C.ar    1  UNL1       -0.0617
     19 C          -2.3434    3.0183   -1.3902 C.ar    1  UNL1       -0.0612
     20 C          -1.9944    2.4320   -0.2070 C.ar    1  UNL1       -0.0540
     21 C          -2.7164    0.6448    2.2578 C.ar    1  UNL1       -0.0532
     22 C          -2.6713   -0.0938    3.4085 C.ar    1  UNL1       -0.0591
     23 C          -1.7737   -1.1216    3.5351 C.ar    1  UNL1       -0.0355
     24 C          -0.9052   -1.4142    2.4977 C.ar    1  UNL1        0.0781
     25 N          -0.0378   -2.4413    2.6384 N.ar    1  UNL1       -0.2173
     26 H          -0.1731    0.7404   -1.0193 H       1  UNL1        0.1479
     27 H           0.7768   -1.7529   -2.0993 H       1  UNL1        0.0526
     28 H           0.9566   -0.1505   -2.8183 H       1  UNL1        0.0526
     29 H           2.7437    1.3997   -1.8820 H       1  UNL1        0.0636
     30 H           5.0287    1.5757   -1.0067 H       1  UNL1        0.0619
     31 H           6.0555   -0.3624    0.0993 H       1  UNL1        0.0633
     32 H           4.6967   -2.4683    0.2858 H       1  UNL1        0.0829
     33 H          -2.7141   -0.7450   -1.0346 H       1  UNL1        0.0624
     34 H          -3.3336    0.3671   -3.1609 H       1  UNL1        0.0618
     35 H          -3.1022    2.7902   -3.4100 H       1  UNL1        0.0618
     36 H          -2.2532    4.0984   -1.5369 H       1  UNL1        0.0618
     37 H          -1.6254    3.0318    0.5957 H       1  UNL1        0.0624
     38 H          -3.4131    1.4570    2.1316 H       1  UNL1        0.0624
     39 H          -3.3361    0.1019    4.2569 H       1  UNL1        0.0618
     40 H          -1.6995   -1.7347    4.4185 H       1  UNL1        0.0639
@<TRIPOS>BOND
     1     1     2    1
     2     2     3   ar
     3     3     4   ar
     4     4     5    1
     5     5     6    1
     6     6     7    1
     7     7     8   ar
     8     8     9   ar
     9     9    10   ar
    10    10    11   ar
    11    11    12   ar
    12     4    13   ar
    13    13    14   ar
    14    14    15    1
    15    15    16   ar
    16    16    17   ar
    17    17    18   ar
    18    18    19   ar
    19    19    20   ar
    20    14    21   ar
    21    21    22   ar
    22    22    23   ar
    23    23    24   ar
    24    24    25   ar
    25    25     2   ar
    26    12     7   ar
    27    24    13   ar
    28    20    15   ar
    29     5    26    1
    30     6    27    1
    31     6    28    1
    32     8    29    1
    33     9    30    1
    34    10    31    1
    35    11    32    1
    36    16    33    1
    37    17    34    1
    38    18    35    1
    39    19    36    1
    40    20    37    1
    41    21    38    1
    42    22    39    1
    43    23    40    1
