@<TRIPOS>MOLECULE
*****
 40 43 0 0 0
SMALL
GASTEIGER

@<TRIPOS>ATOM
      1 C           6.4613   -0.8744   -2.8050 C.3     1  UNL1       -0.0039
      2 C           4.9773   -0.5068   -2.6098 C.ar    1  UNL1        0.1359
      3 N           4.0813   -0.6640   -3.6459 N.ar    1  UNL1       -0.1939
      4 S           2.5364   -0.0778   -2.8242 S.2     1  UNL1        0.0369
      5 C           3.3147    0.2637   -1.3009 C.ar    1  UNL1        0.1652
      6 C           2.5700    0.8100   -0.1023 C.ar    1  UNL1        0.1910
      7 N           2.8631    1.9307    0.5285 N.ar    1  UNL1       -0.1269
      8 N           2.0082    2.1198    1.5432 N.ar    1  UNL1       -0.1320
      9 C           1.1563    1.0913    1.5498 C.ar    1  UNL1        0.1542
     10 N           1.5198    0.2867    0.5205 N.ar    1  UNL1       -0.3062
     11 C           0.7961   -0.9364    0.2378 C.3     1  UNL1        0.0423
     12 C          -0.6924   -0.7924    0.4635 C.3     1  UNL1        0.0338
     13 N          -1.0224    0.2198    1.4308 N.am    1  UNL1       -0.2859
     14 C          -2.3275    0.7804    1.4493 C.2     1  UNL1        0.2502
     15 O          -2.7007    1.6674    2.2583 O.2     1  UNL1       -0.2699
     16 C          -3.3406    0.3259    0.4799 C.ar    1  UNL1        0.0778
     17 C          -4.1429   -0.7275    0.8238 C.ar    1  UNL1       -0.0085
     18 C          -5.0919   -1.1413   -0.1032 C.ar    1  UNL1        0.1622
     19 F          -5.9053   -2.1814    0.2010 F       1  UNL1       -0.2024
     20 C          -5.1830   -0.4755   -1.3229 C.ar    1  UNL1        0.1962
     21 F          -6.1213   -0.9155   -2.1898 F       1  UNL1       -0.1994
     22 C          -4.3576    0.5880   -1.6442 C.ar    1  UNL1        0.1969
     23 F          -4.4470    1.2244   -2.8141 F       1  UNL1       -0.1993
     24 C          -3.4033    1.0064   -0.7159 C.ar    1  UNL1        0.1735
     25 F          -2.5982    2.0457   -1.0324 F       1  UNL1       -0.2016
     26 C          -0.0194    0.6414    2.3590 C.3     1  UNL1        0.0834
     27 C          -0.4466    1.7011    3.3228 C.3     1  UNL1       -0.0393
     28 N           4.4779   -0.0401   -1.5012 N.ar    1  UNL1       -0.2199
     29 H           6.8780   -1.1318   -1.8103 H       1  UNL1        0.0308
     30 H           6.5251   -1.6740   -3.5394 H       1  UNL1        0.0308
     31 H           6.9931    0.0343   -3.1526 H       1  UNL1        0.0308
     32 H           1.2061   -1.7685    0.8588 H       1  UNL1        0.0508
     33 H           0.9313   -1.2400   -0.8201 H       1  UNL1        0.0508
     34 H          -1.2367   -0.6035   -0.4963 H       1  UNL1        0.0482
     35 H          -1.1015   -1.7601    0.8397 H       1  UNL1        0.0482
     36 H          -4.0970   -1.2640    1.7606 H       1  UNL1        0.0655
     37 H           0.3788   -0.2195    2.9709 H       1  UNL1        0.0579
     38 H          -1.2055    1.3120    4.0077 H       1  UNL1        0.0252
     39 H          -0.6826    2.6679    2.8479 H       1  UNL1        0.0252
     40 H           0.4484    1.9254    3.9772 H       1  UNL1        0.0252
@<TRIPOS>BOND
     1     1     2    1
     2     2     3   ar
     3     3     4   ar
     4     4     5   ar
     5     5     6    1
     6     6     7   ar
     7     7     8   ar
     8     8     9   ar
     9     9    10   ar
    10    10    11    1
    11    11    12    1
    12    12    13    1
    13    13    14   am
    14    14    15    2
    15    14    16    1
    16    16    17   ar
    17    17    18   ar
    18    18    19    1
    19    18    20   ar
    20    20    21    1
    21    20    22   ar
    22    22    23    1
    23    22    24   ar
    24    24    25    1
    25    13    26    1
    26    26    27    1
    27     5    28   ar
    28    28     2   ar
    29    10     6   ar
    30    24    16   ar
    31    26     9    1
    32     1    29    1
    33     1    30    1
    34     1    31    1
    35    11    32    1
    36    11    33    1
    37    12    34    1
    38    12    35    1
    39    17    36    1
    40    26    37    1
    41    27    38    1
    42    27    39    1
    43    27    40    1
