
     RDKit          3D

 40 43  0  0  0  0  0  0  0  0999 V2000
    6.4613   -0.8744   -2.8050 C   0  0  0  0  0  0  0  0  0  0  0  0
    4.9773   -0.5068   -2.6098 C   0  0  0  0  0  0  0  0  0  0  0  0
    4.0813   -0.6640   -3.6459 N   0  0  0  0  0  0  0  0  0  0  0  0
    2.5364   -0.0778   -2.8242 S   0  0  0  0  0  0  0  0  0  0  0  0
    3.3147    0.2637   -1.3009 C   0  0  0  0  0  0  0  0  0  0  0  0
    2.5700    0.8100   -0.1023 C   0  0  0  0  0  0  0  0  0  0  0  0
    2.8631    1.9307    0.5285 N   0  0  0  0  0  0  0  0  0  0  0  0
    2.0082    2.1198    1.5432 N   0  0  0  0  0  0  0  0  0  0  0  0
    1.1563    1.0913    1.5498 C   0  0  0  0  0  0  0  0  0  0  0  0
    1.5198    0.2867    0.5205 N   0  0  0  0  0  0  0  0  0  0  0  0
    0.7961   -0.9364    0.2378 C   0  0  0  0  0  0  0  0  0  0  0  0
   -0.6924   -0.7924    0.4635 C   0  0  0  0  0  0  0  0  0  0  0  0
   -1.0224    0.2198    1.4308 N   0  0  0  0  0  0  0  0  0  0  0  0
   -2.3275    0.7804    1.4493 C   0  0  0  0  0  0  0  0  0  0  0  0
   -2.7007    1.6674    2.2583 O   0  0  0  0  0  0  0  0  0  0  0  0
   -3.3406    0.3259    0.4799 C   0  0  0  0  0  0  0  0  0  0  0  0
   -4.1429   -0.7275    0.8238 C   0  0  0  0  0  0  0  0  0  0  0  0
   -5.0919   -1.1413   -0.1032 C   0  0  0  0  0  0  0  0  0  0  0  0
   -5.9053   -2.1814    0.2010 F   0  0  0  0  0  0  0  0  0  0  0  0
   -5.1830   -0.4755   -1.3229 C   0  0  0  0  0  0  0  0  0  0  0  0
   -6.1213   -0.9155   -2.1898 F   0  0  0  0  0  0  0  0  0  0  0  0
   -4.3576    0.5880   -1.6442 C   0  0  0  0  0  0  0  0  0  0  0  0
   -4.4470    1.2244   -2.8141 F   0  0  0  0  0  0  0  0  0  0  0  0
   -3.4033    1.0064   -0.7159 C   0  0  0  0  0  0  0  0  0  0  0  0
   -2.5982    2.0457   -1.0324 F   0  0  0  0  0  0  0  0  0  0  0  0
   -0.0194    0.6414    2.3590 C   0  0  2  0  0  0  0  0  0  0  0  0
   -0.4466    1.7011    3.3228 C   0  0  0  0  0  0  0  0  0  0  0  0
    4.4779   -0.0401   -1.5012 N   0  0  0  0  0  0  0  0  0  0  0  0
    6.8780   -1.1318   -1.8103 H   0  0  0  0  0  0  0  0  0  0  0  0
    6.5251   -1.6740   -3.5394 H   0  0  0  0  0  0  0  0  0  0  0  0
    6.9931    0.0343   -3.1526 H   0  0  0  0  0  0  0  0  0  0  0  0
    1.2061   -1.7685    0.8588 H   0  0  0  0  0  0  0  0  0  0  0  0
    0.9313   -1.2400   -0.8201 H   0  0  0  0  0  0  0  0  0  0  0  0
   -1.2367   -0.6035   -0.4963 H   0  0  0  0  0  0  0  0  0  0  0  0
   -1.1015   -1.7601    0.8397 H   0  0  0  0  0  0  0  0  0  0  0  0
   -4.0970   -1.2640    1.7606 H   0  0  0  0  0  0  0  0  0  0  0  0
    0.3788   -0.2195    2.9709 H   0  0  0  0  0  0  0  0  0  0  0  0
   -1.2055    1.3120    4.0077 H   0  0  0  0  0  0  0  0  0  0  0  0
   -0.6826    2.6679    2.8479 H   0  0  0  0  0  0  0  0  0  0  0  0
    0.4484    1.9254    3.9772 H   0  0  0  0  0  0  0  0  0  0  0  0
  1  2  1  0
  2  3  2  0
  3  4  1  0
  4  5  1  0
  5  6  1  0
  6  7  2  0
  7  8  1  0
  8  9  2  0
  9 10  1  0
 10 11  1  0
 11 12  1  0
 12 13  1  0
 13 14  1  0
 14 15  2  0
 14 16  1  0
 16 17  2  0
 17 18  1  0
 18 19  1  0
 18 20  2  0
 20 21  1  0
 20 22  1  0
 22 23  1  0
 22 24  2  0
 24 25  1  0
 13 26  1  0
 26 27  1  0
  5 28  2  0
 28  2  1  0
 10  6  1  0
 24 16  1  0
 26  9  1  0
  1 29  1  0
  1 30  1  0
  1 31  1  0
 11 32  1  0
 11 33  1  0
 12 34  1  0
 12 35  1  0
 17 36  1  0
 26 37  1  1
 27 38  1  0
 27 39  1  0
 27 40  1  0
M  END
$$$$
