
     RDKit          3D

 47 49  0  0  0  0  0  0  0  0999 V2000
   -5.1163    3.0084    0.8029 C   0  0  0  0  0  0  0  0  0  0  0  0
   -4.8370    1.6508    0.9651 O   0  0  0  0  0  0  0  0  0  0  0  0
   -3.7388    0.9845    0.4857 C   0  0  0  0  0  0  0  0  0  0  0  0
   -2.7682    1.6454   -0.2422 C   0  0  0  0  0  0  0  0  0  0  0  0
   -1.6923    0.9355   -0.6940 C   0  0  0  0  0  0  0  0  0  0  0  0
   -1.5280   -0.4303   -0.4535 C   0  0  0  0  0  0  0  0  0  0  0  0
   -2.4988   -1.0674    0.2671 C   0  0  0  0  0  0  0  0  0  0  0  0
   -3.5975   -0.3607    0.7341 C   0  0  0  0  0  0  0  0  0  0  0  0
   -4.5734   -1.0171    1.4657 O   0  0  0  0  0  0  0  0  0  0  0  0
   -4.4415   -2.4103    1.7387 C   0  0  0  0  0  0  0  0  0  0  0  0
   -0.2979   -1.1001   -0.9667 C   0  0  0  0  0  0  0  0  0  0  0  0
   -0.2163   -2.4236   -0.2590 C   0  0  0  0  0  0  0  0  0  0  0  0
    0.8628   -0.3264   -0.5832 N   0  0  0  0  0  0  0  0  0  0  0  0
    2.1096   -0.8273   -1.0966 C   0  0  0  0  0  0  0  0  0  0  0  0
    3.2414   -0.2969   -0.2878 C   0  0  0  0  0  0  0  0  0  0  0  0
    3.0056    0.1377    1.0205 C   0  0  0  0  0  0  0  0  0  0  0  0
    4.0461    0.5904    1.7526 N   0  0  0  0  0  0  0  0  0  0  0  0
    5.2802    0.6139    1.2137 C   0  0  0  0  0  0  0  0  0  0  0  0
    6.3979    1.0750    1.9658 N   0  0  0  0  0  0  0  0  0  0  0  0
    5.5154    0.1910   -0.0648 N   0  0  0  0  0  0  0  0  0  0  0  0
    4.4980   -0.2729   -0.8393 C   0  0  0  0  0  0  0  0  0  0  0  0
    4.7269   -0.7280   -2.1657 N   0  0  0  0  0  0  0  0  0  0  0  0
    0.7096    1.0813   -0.8474 C   0  0  0  0  0  0  0  0  0  0  0  0
   -0.5596    1.5105   -1.4903 C   0  0  0  0  0  0  0  0  0  0  0  0
   -5.9097    3.2982    1.5311 H   0  0  0  0  0  0  0  0  0  0  0  0
   -5.4688    3.2496   -0.1991 H   0  0  0  0  0  0  0  0  0  0  0  0
   -4.2489    3.6604    1.0287 H   0  0  0  0  0  0  0  0  0  0  0  0
   -2.8451    2.7242   -0.4588 H   0  0  0  0  0  0  0  0  0  0  0  0
   -2.4170   -2.1483    0.4763 H   0  0  0  0  0  0  0  0  0  0  0  0
   -5.2204   -2.7570    2.4272 H   0  0  0  0  0  0  0  0  0  0  0  0
   -3.4654   -2.6588    2.1718 H   0  0  0  0  0  0  0  0  0  0  0  0
   -4.5413   -3.0148    0.8067 H   0  0  0  0  0  0  0  0  0  0  0  0
   -0.3950   -1.2771   -2.0459 H   0  0  0  0  0  0  0  0  0  0  0  0
   -1.0231   -3.0992   -0.6268 H   0  0  0  0  0  0  0  0  0  0  0  0
    0.7592   -2.8884   -0.2454 H   0  0  0  0  0  0  0  0  0  0  0  0
   -0.4694   -2.2013    0.8183 H   0  0  0  0  0  0  0  0  0  0  0  0
    2.2440   -0.4835   -2.1658 H   0  0  0  0  0  0  0  0  0  0  0  0
    2.1424   -1.9088   -1.1258 H   0  0  0  0  0  0  0  0  0  0  0  0
    2.0037    0.0887    1.4157 H   0  0  0  0  0  0  0  0  0  0  0  0
    7.3178    1.2281    1.5379 H   0  0  0  0  0  0  0  0  0  0  0  0
    6.2789    1.2601    2.9811 H   0  0  0  0  0  0  0  0  0  0  0  0
    4.7238   -0.1583   -3.0189 H   0  0  0  0  0  0  0  0  0  0  0  0
    4.9241   -1.7734   -2.2644 H   0  0  0  0  0  0  0  0  0  0  0  0
    1.5430    1.3981   -1.5270 H   0  0  0  0  0  0  0  0  0  0  0  0
    0.8274    1.6408    0.0875 H   0  0  0  0  0  0  0  0  0  0  0  0
   -0.6821    1.0573   -2.5164 H   0  0  0  0  0  0  0  0  0  0  0  0
   -0.6061    2.6001   -1.5093 H   0  0  0  0  0  0  0  0  0  0  0  0
  1  2  1  0
  2  3  1  0
  3  4  2  0
  4  5  1  0
  5  6  2  0
  6  7  1  0
  7  8  2  0
  8  9  1  0
  9 10  1  0
  6 11  1  0
 11 12  1  0
 11 13  1  0
 13 14  1  0
 14 15  1  0
 15 16  2  0
 16 17  1  0
 17 18  2  0
 18 19  1  0
 18 20  1  0
 20 21  2  0
 21 22  1  0
 13 23  1  0
 23 24  1  0
  8  3  1  0
 21 15  1  0
 24  5  1  0
  1 25  1  0
  1 26  1  0
  1 27  1  0
  4 28  1  0
  7 29  1  0
 10 30  1  0
 10 31  1  0
 10 32  1  0
 11 33  1  0
 12 34  1  0
 12 35  1  0
 12 36  1  0
 14 37  1  0
 14 38  1  0
 16 39  1  0
 19 40  1  0
 19 41  1  0
 22 42  1  0
 22 43  1  0
 23 44  1  0
 23 45  1  0
 24 46  1  0
 24 47  1  0
M  END
$$$$
