@<TRIPOS>MOLECULE
*****
 47 49 0 0 0
SMALL
GASTEIGER

@<TRIPOS>ATOM
      1 C          -5.1163    3.0084    0.8029 C.3     1  UNL1        0.0790
      2 O          -4.8370    1.6508    0.9651 O.3     1  UNL1       -0.4914
      3 C          -3.7388    0.9845    0.4857 C.ar    1  UNL1        0.1618
      4 C          -2.7682    1.6454   -0.2422 C.ar    1  UNL1       -0.0128
      5 C          -1.6923    0.9355   -0.6940 C.ar    1  UNL1       -0.0378
      6 C          -1.5280   -0.4303   -0.4535 C.ar    1  UNL1       -0.0236
      7 C          -2.4988   -1.0674    0.2671 C.ar    1  UNL1       -0.0114
      8 C          -3.5975   -0.3607    0.7341 C.ar    1  UNL1        0.1618
      9 O          -4.5734   -1.0171    1.4657 O.3     1  UNL1       -0.4914
     10 C          -4.4415   -2.4103    1.7387 C.3     1  UNL1        0.0790
     11 C          -0.2979   -1.1001   -0.9667 C.3     1  UNL1        0.0335
     12 C          -0.2163   -2.4236   -0.2590 C.3     1  UNL1       -0.0453
     13 N           0.8628   -0.3264   -0.5832 N.3     1  UNL1       -0.2911
     14 C           2.1096   -0.8273   -1.0966 C.3     1  UNL1        0.0293
     15 C           3.2414   -0.2969   -0.2878 C.ar    1  UNL1        0.0243
     16 C           3.0056    0.1377    1.0205 C.ar    1  UNL1        0.0388
     17 N           4.0461    0.5904    1.7526 N.ar    1  UNL1       -0.2227
     18 C           5.2802    0.6139    1.2137 C.ar    1  UNL1        0.2142
     19 N           6.3979    1.0750    1.9658 N.pl3   1  UNL1       -0.3274
     20 N           5.5154    0.1910   -0.0648 N.ar    1  UNL1       -0.1998
     21 C           4.4980   -0.2729   -0.8393 C.ar    1  UNL1        0.1257
     22 N           4.7269   -0.7280   -2.1657 N.pl3   1  UNL1       -0.3428
     23 C           0.7096    1.0813   -0.8474 C.3     1  UNL1        0.0038
     24 C          -0.5596    1.5105   -1.4903 C.3     1  UNL1       -0.0144
     25 H          -5.9097    3.2982    1.5311 H       1  UNL1        0.0660
     26 H          -5.4688    3.2496   -0.1991 H       1  UNL1        0.0660
     27 H          -4.2489    3.6604    1.0287 H       1  UNL1        0.0660
     28 H          -2.8451    2.7242   -0.4588 H       1  UNL1        0.0658
     29 H          -2.4170   -2.1483    0.4763 H       1  UNL1        0.0659
     30 H          -5.2204   -2.7570    2.4272 H       1  UNL1        0.0660
     31 H          -3.4654   -2.6588    2.1718 H       1  UNL1        0.0660
     32 H          -4.5413   -3.0148    0.8067 H       1  UNL1        0.0660
     33 H          -0.3950   -1.2771   -2.0459 H       1  UNL1        0.0510
     34 H          -1.0231   -3.0992   -0.6268 H       1  UNL1        0.0248
     35 H           0.7592   -2.8884   -0.2454 H       1  UNL1        0.0248
     36 H          -0.4694   -2.2013    0.8183 H       1  UNL1        0.0248
     37 H           2.2440   -0.4835   -2.1658 H       1  UNL1        0.0477
     38 H           2.1424   -1.9088   -1.1258 H       1  UNL1        0.0477
     39 H           2.0037    0.0887    1.4157 H       1  UNL1        0.0835
     40 H           7.3178    1.2281    1.5379 H       1  UNL1        0.1452
     41 H           6.2789    1.2601    2.9811 H       1  UNL1        0.1452
     42 H           4.7238   -0.1583   -3.0189 H       1  UNL1        0.1437
     43 H           4.9241   -1.7734   -2.2644 H       1  UNL1        0.1437
     44 H           1.5430    1.3981   -1.5270 H       1  UNL1        0.0430
     45 H           0.8274    1.6408    0.0875 H       1  UNL1        0.0430
     46 H          -0.6821    1.0573   -2.5164 H       1  UNL1        0.0326
     47 H          -0.6061    2.6001   -1.5093 H       1  UNL1        0.0326
@<TRIPOS>BOND
     1     1     2    1
     2     2     3    1
     3     3     4   ar
     4     4     5   ar
     5     5     6   ar
     6     6     7   ar
     7     7     8   ar
     8     8     9    1
     9     9    10    1
    10     6    11    1
    11    11    12    1
    12    11    13    1
    13    13    14    1
    14    14    15    1
    15    15    16   ar
    16    16    17   ar
    17    17    18   ar
    18    18    19    1
    19    18    20   ar
    20    20    21   ar
    21    21    22    1
    22    13    23    1
    23    23    24    1
    24     8     3   ar
    25    21    15   ar
    26    24     5    1
    27     1    25    1
    28     1    26    1
    29     1    27    1
    30     4    28    1
    31     7    29    1
    32    10    30    1
    33    10    31    1
    34    10    32    1
    35    11    33    1
    36    12    34    1
    37    12    35    1
    38    12    36    1
    39    14    37    1
    40    14    38    1
    41    16    39    1
    42    19    40    1
    43    19    41    1
    44    22    42    1
    45    22    43    1
    46    23    44    1
    47    23    45    1
    48    24    46    1
    49    24    47    1
