
     RDKit          3D

 42 44  0  0  0  0  0  0  0  0999 V2000
   -0.8857   -1.3629    2.0845 C   0  0  0  0  0  0  0  0  0  0  0  0
   -0.1289   -0.7698    0.9474 C   0  0  0  0  0  0  0  0  0  0  0  0
    1.2352   -0.9160    0.8894 C   0  0  0  0  0  0  0  0  0  0  0  0
    1.9899   -0.3902   -0.1371 C   0  0  0  0  0  0  0  0  0  0  0  0
    3.4276   -0.5591   -0.1736 C   0  0  0  0  0  0  0  0  0  0  0  0
    3.9871   -1.2098    0.7711 O   0  0  0  0  0  0  0  0  0  0  0  0
    4.2719   -0.0623   -1.1722 N   0  0  0  0  0  0  0  0  0  0  0  0
    5.7212   -0.2754   -1.1372 C   0  0  0  0  0  0  0  0  0  0  0  0
    6.3588    0.3119    0.0892 C   0  0  0  0  0  0  0  0  0  0  0  0
    6.1498    1.6934    0.1641 O   0  0  0  0  0  0  0  0  0  0  0  0
    1.3635    0.3056   -1.1409 C   0  0  0  0  0  0  0  0  0  0  0  0
   -0.0189    0.4471   -1.0714 C   0  0  0  0  0  0  0  0  0  0  0  0
   -0.7756   -0.0748   -0.0509 C   0  0  0  0  0  0  0  0  0  0  0  0
   -2.2248    0.0974   -0.0169 C   0  0  0  0  0  0  0  0  0  0  0  0
   -3.0734   -0.8293   -0.6174 C   0  0  0  0  0  0  0  0  0  0  0  0
   -4.4422   -0.6819   -0.5945 C   0  0  0  0  0  0  0  0  0  0  0  0
   -5.3136   -1.6901   -1.2452 C   0  0  0  0  0  0  0  0  0  0  0  0
   -6.6230   -1.5334   -0.8494 F   0  0  0  0  0  0  0  0  0  0  0  0
   -5.2722   -1.4381   -2.6062 F   0  0  0  0  0  0  0  0  0  0  0  0
   -4.8400   -2.9634   -1.0247 F   0  0  0  0  0  0  0  0  0  0  0  0
   -5.0412    0.3914    0.0245 C   0  0  0  0  0  0  0  0  0  0  0  0
   -4.1986    1.3157    0.6233 C   0  0  0  0  0  0  0  0  0  0  0  0
   -4.4564    2.4532    1.2975 N   0  0  0  0  0  0  0  0  0  0  0  0
   -3.3261    3.0131    1.6901 N   0  0  0  0  0  0  0  0  0  0  0  0
   -2.2955    2.2538    1.2815 C   0  0  0  0  0  0  0  0  0  0  0  0
   -2.8273    1.1723    0.6029 C   0  0  0  0  0  0  0  0  0  0  0  0
   -0.2700   -2.1911    2.5105 H   0  0  0  0  0  0  0  0  0  0  0  0
   -0.8955   -0.5681    2.8823 H   0  0  0  0  0  0  0  0  0  0  0  0
   -1.8939   -1.6688    1.8010 H   0  0  0  0  0  0  0  0  0  0  0  0
    1.7881   -1.4624    1.6644 H   0  0  0  0  0  0  0  0  0  0  0  0
    3.8880    0.4784   -1.9759 H   0  0  0  0  0  0  0  0  0  0  0  0
    6.2035    0.1339   -2.0367 H   0  0  0  0  0  0  0  0  0  0  0  0
    5.9465   -1.3747   -1.1170 H   0  0  0  0  0  0  0  0  0  0  0  0
    6.0775   -0.2170    1.0164 H   0  0  0  0  0  0  0  0  0  0  0  0
    7.4677    0.1540   -0.0335 H   0  0  0  0  0  0  0  0  0  0  0  0
    6.8602    2.1572   -0.3611 H   0  0  0  0  0  0  0  0  0  0  0  0
    1.9050    0.7494   -1.9864 H   0  0  0  0  0  0  0  0  0  0  0  0
   -0.4927    0.9955   -1.8669 H   0  0  0  0  0  0  0  0  0  0  0  0
   -2.5803   -1.6704   -1.1013 H   0  0  0  0  0  0  0  0  0  0  0  0
   -6.1090    0.5500    0.0687 H   0  0  0  0  0  0  0  0  0  0  0  0
   -5.4239    2.8061    1.4638 H   0  0  0  0  0  0  0  0  0  0  0  0
   -1.2327    2.4298    1.4391 H   0  0  0  0  0  0  0  0  0  0  0  0
  1  2  1  0
  2  3  2  0
  3  4  1  0
  4  5  1  0
  5  6  2  0
  5  7  1  0
  7  8  1  0
  8  9  1  0
  9 10  1  0
  4 11  2  0
 11 12  1  0
 12 13  2  0
 13 14  1  0
 14 15  2  0
 15 16  1  0
 16 17  1  0
 17 18  1  0
 17 19  1  0
 17 20  1  0
 16 21  2  0
 21 22  1  0
 22 23  1  0
 23 24  1  0
 24 25  2  0
 25 26  1  0
 13  2  1  0
 26 14  1  0
 26 22  2  0
  1 27  1  0
  1 28  1  0
  1 29  1  0
  3 30  1  0
  7 31  1  0
  8 32  1  0
  8 33  1  0
  9 34  1  0
  9 35  1  0
 10 36  1  0
 11 37  1  0
 12 38  1  0
 15 39  1  0
 21 40  1  0
 23 41  1  0
 25 42  1  0
M  END
$$$$
