@<TRIPOS>MOLECULE
*****
 42 44 0 0 0
SMALL
GASTEIGER

@<TRIPOS>ATOM
      1 C          -0.8857   -1.3629    2.0845 C.3     1  UNL1       -0.0391
      2 C          -0.1289   -0.7698    0.9474 C.ar    1  UNL1       -0.0420
      3 C           1.2352   -0.9160    0.8894 C.ar    1  UNL1       -0.0461
      4 C           1.9899   -0.3902   -0.1371 C.ar    1  UNL1        0.0370
      5 C           3.4276   -0.5591   -0.1736 C.2     1  UNL1        0.2442
      6 O           3.9871   -1.2098    0.7711 O.2     1  UNL1       -0.2702
      7 N           4.2719   -0.0623   -1.1722 N.am    1  UNL1       -0.3092
      8 C           5.7212   -0.2754   -1.1372 C.3     1  UNL1        0.0351
      9 C           6.3588    0.3119    0.0892 C.3     1  UNL1        0.0597
     10 O           6.1498    1.6934    0.1641 O.3     1  UNL1       -0.3935
     11 C           1.3635    0.3056   -1.1409 C.ar    1  UNL1       -0.0490
     12 C          -0.0189    0.4471   -1.0714 C.ar    1  UNL1       -0.0530
     13 C          -0.7756   -0.0748   -0.0509 C.ar    1  UNL1       -0.0142
     14 C          -2.2248    0.0974   -0.0169 C.ar    1  UNL1       -0.0064
     15 C          -3.0734   -0.8293   -0.6174 C.ar    1  UNL1       -0.0416
     16 C          -4.4422   -0.6819   -0.5945 C.ar    1  UNL1        0.0574
     17 C          -5.3136   -1.6901   -1.2452 C.3     1  UNL1        0.4175
     18 F          -6.6230   -1.5334   -0.8494 F       1  UNL1       -0.1659
     19 F          -5.2722   -1.4381   -2.6062 F       1  UNL1       -0.1659
     20 F          -4.8400   -2.9634   -1.0247 F       1  UNL1       -0.1659
     21 C          -5.0412    0.3914    0.0245 C.ar    1  UNL1       -0.0246
     22 C          -4.1986    1.3157    0.6233 C.ar    1  UNL1        0.0668
     23 N          -4.4564    2.4532    1.2975 N.ar    1  UNL1       -0.2769
     24 N          -3.3261    3.0131    1.6901 N.ar    1  UNL1       -0.1812
     25 C          -2.2955    2.2538    1.2815 C.ar    1  UNL1        0.0575
     26 C          -2.8273    1.1723    0.6029 C.ar    1  UNL1        0.0272
     27 H          -0.2700   -2.1911    2.5105 H       1  UNL1        0.0278
     28 H          -0.8955   -0.5681    2.8823 H       1  UNL1        0.0278
     29 H          -1.8939   -1.6688    1.8010 H       1  UNL1        0.0278
     30 H           1.7881   -1.4624    1.6644 H       1  UNL1        0.0628
     31 H           3.8880    0.4784   -1.9759 H       1  UNL1        0.1491
     32 H           6.2035    0.1339   -2.0367 H       1  UNL1        0.0485
     33 H           5.9465   -1.3747   -1.1170 H       1  UNL1        0.0485
     34 H           6.0775   -0.2170    1.0164 H       1  UNL1        0.0573
     35 H           7.4677    0.1540   -0.0335 H       1  UNL1        0.0573
     36 H           6.8602    2.1572   -0.3611 H       1  UNL1        0.2095
     37 H           1.9050    0.7494   -1.9864 H       1  UNL1        0.0625
     38 H          -0.4927    0.9955   -1.8669 H       1  UNL1        0.0624
     39 H          -2.5803   -1.6704   -1.1013 H       1  UNL1        0.0629
     40 H          -6.1090    0.5500    0.0687 H       1  UNL1        0.0644
     41 H          -5.4239    2.8061    1.4638 H       1  UNL1        0.1889
     42 H          -1.2327    2.4298    1.4391 H       1  UNL1        0.0854
@<TRIPOS>BOND
     1     1     2    1
     2     2     3   ar
     3     3     4   ar
     4     4     5    1
     5     5     6    2
     6     5     7   am
     7     7     8    1
     8     8     9    1
     9     9    10    1
    10     4    11   ar
    11    11    12   ar
    12    12    13   ar
    13    13    14    1
    14    14    15   ar
    15    15    16   ar
    16    16    17    1
    17    17    18    1
    18    17    19    1
    19    17    20    1
    20    16    21   ar
    21    21    22   ar
    22    22    23   ar
    23    23    24   ar
    24    24    25   ar
    25    25    26   ar
    26    13     2   ar
    27    26    14   ar
    28    26    22   ar
    29     1    27    1
    30     1    28    1
    31     1    29    1
    32     3    30    1
    33     7    31    1
    34     8    32    1
    35     8    33    1
    36     9    34    1
    37     9    35    1
    38    10    36    1
    39    11    37    1
    40    12    38    1
    41    15    39    1
    42    21    40    1
    43    23    41    1
    44    25    42    1
